REMARK  Name = ZINC35518611
REMARK  19 active torsions:
REMARK  status: ('A' for Active; 'I' for Inactive)
REMARK    1  A    between atoms: C_1  and  C_2
REMARK    2  A    between atoms: C_2  and  C_3
REMARK    3  A    between atoms: C_3  and  C_4
REMARK    4  A    between atoms: C_4  and  N_5
REMARK    5  A    between atoms: N_5  and  C_6
REMARK    6  A    between atoms: N_5  and  C_16
REMARK    7  A    between atoms: C_6  and  C_7
REMARK    8  A    between atoms: C_7  and  C_9
REMARK    9  A    between atoms: C_7  and  O_15
REMARK   10  A    between atoms: C_16  and  C_17
REMARK   11  A    between atoms: N_19  and  C_20
REMARK   12  A    between atoms: N_19  and  C_32
REMARK   13  A    between atoms: C_20  and  C_21
REMARK   14  A    between atoms: C_21  and  C_22
REMARK   15  A    between atoms: C_32  and  C_33
REMARK   16  A    between atoms: C_36  and  C_39
REMARK   17  A    between atoms: C_39  and  C_40
REMARK   18  A    between atoms: C_39  and  C_41
REMARK   19  A    between atoms: C_39  and  C_42
REMARK                            x       y       z     vdW  Elec       q    Type
REMARK                         _______ _______ _______ _____ _____    ______ ____
ROOT
ATOM      1  C   UNL     1      -2.152  -4.276   1.732  0.00  0.00    +0.199 C 
ATOM      2  O   UNL     1      -1.690  -3.359   2.377  0.00  0.00    -0.278 OA
ATOM      3  N   UNL     1      -2.069  -5.538   2.199  0.00  0.00    -0.298 N 
ENDROOT
BRANCH   1   4
ATOM      4  C   UNL     1      -2.818  -4.006   0.407  0.00  0.00    +0.019 C 
BRANCH   4   5
ATOM      5  N   UNL     1      -2.780  -2.564   0.126  0.00  0.00    +0.387 N 
ATOM      6  H   UNL     1      -3.194  -2.060   0.895  0.00  0.00    -0.081 HD
BRANCH   5   7
ATOM      7  C   UNL     1      -1.385  -2.136  -0.046  0.00  0.00    -0.078 C 
BRANCH   7   8
ATOM      8  C   UNL     1      -1.333  -0.614  -0.193  0.00  0.00    -0.019 C 
BRANCH   8  10
ATOM      9  C   UNL     1       0.178   1.367  -0.383  0.00  0.00    +0.004 C 
ATOM     10  C   UNL     1       0.126  -0.156  -0.236  0.00  0.00    -0.005 C 
ENDBRANCH   8  10
ENDBRANCH   7   8
ENDBRANCH   5   7
BRANCH   5  11
ATOM     11  C   UNL     1      -3.533  -2.286  -1.105  0.00  0.00    -0.042 C 
BRANCH  11  12
ATOM     12  C   UNL     1      -5.014  -2.593  -0.876  0.00  0.00    +0.128 C 
BRANCH  12  13
ATOM     13  C   UNL     1      -5.786  -2.312  -2.140  0.00  0.00    -0.021 A 
ATOM     14  C   UNL     1      -6.135  -1.014  -2.463  0.00  0.00    +0.006 A 
ATOM     15  C   UNL     1      -6.842  -0.756  -3.622  0.00  0.00    +0.000 A 
ATOM     16  C   UNL     1      -7.201  -1.797  -4.458  0.00  0.00    +0.000 A 
ATOM     17  C   UNL     1      -6.852  -3.095  -4.136  0.00  0.00    +0.000 A 
ATOM     18  C   UNL     1      -6.140  -3.352  -2.979  0.00  0.00    +0.006 A 
ENDBRANCH  12  13
BRANCH  12  19
ATOM     19  O   UNL     1      -5.514  -1.770   0.180  0.00  0.00    -0.389 OA
ATOM     20  H   UNL     1      -5.508  -0.824  -0.022  0.00  0.00    +0.210 HD
ENDBRANCH  12  19
ENDBRANCH  11  12
ENDBRANCH   5  11
ENDBRANCH   4   5
ENDBRANCH   1   4
BRANCH   3  21
ATOM     21  C   UNL     1      -2.627  -6.646   1.419  0.00  0.00    +0.113 C 
BRANCH  21  22
ATOM     22  C   UNL     1      -1.555  -7.197   0.477  0.00  0.00    +0.056 C 
BRANCH  22  23
ATOM     23  C   UNL     1      -2.128  -8.336  -0.325  0.00  0.00    -0.021 A 
ATOM     24  C   UNL     1      -2.042  -9.643  -0.030  0.00  0.00    +0.087 A 
ATOM     25  N   UNL     1      -2.682 -10.381  -0.988  0.00  0.00    -0.360 N 
ATOM     26  H   UNL     1      -2.754 -11.348  -0.991  0.00  0.00    +0.165 HD
ATOM     27  C   UNL     1      -3.210  -9.546  -1.947  0.00  0.00    +0.047 A 
ATOM     28  C   UNL     1      -2.891  -8.228  -1.571  0.00  0.00    +0.003 A 
ATOM     29  C   UNL     1      -3.308  -7.157  -2.363  0.00  0.00    +0.010 A 
ATOM     30  C   UNL     1      -4.027  -7.395  -3.501  0.00  0.00    +0.001 A 
ATOM     31  C   UNL     1      -4.347  -8.692  -3.875  0.00  0.00    +0.002 A 
ATOM     32  C   UNL     1      -3.938  -9.765  -3.112  0.00  0.00    +0.026 A 
ENDBRANCH  22  23
ENDBRANCH  21  22
ENDBRANCH   3  21
BRANCH   3  33
ATOM     33  C   UNL     1      -1.421  -5.801   3.486  0.00  0.00    +0.142 C 
BRANCH  33  34
ATOM     34  C   UNL     1      -2.447  -5.729   4.589  0.00  0.00    -0.030 A 
ATOM     35  C   UNL     1      -2.700  -4.525   5.218  0.00  0.00    +0.005 A 
ATOM     36  C   UNL     1      -3.640  -4.458   6.230  0.00  0.00    +0.004 A 
ATOM     37  C   UNL     1      -4.327  -5.596   6.610  0.00  0.00    -0.042 A 
ATOM     38  C   UNL     1      -4.074  -6.800   5.980  0.00  0.00    +0.004 A 
ATOM     39  C   UNL     1      -3.137  -6.865   4.966  0.00  0.00    +0.005 A 
BRANCH  37  40
ATOM     40  C   UNL     1      -5.352  -5.523   7.713  0.00  0.00    -0.013 C 
ATOM     41  C   UNL     1      -6.455  -4.539   7.321  0.00  0.00    +0.015 C 
ATOM     42  C   UNL     1      -5.960  -6.909   7.936  0.00  0.00    +0.015 C 
ATOM     43  C   UNL     1      -4.680  -5.048   9.003  0.00  0.00    +0.015 C 
ENDBRANCH  37  40
ENDBRANCH  33  34
ENDBRANCH   3  33
TORSDOF 15
