REMARK  Name = ZINC13064648
REMARK  11 active torsions:
REMARK  status: ('A' for Active; 'I' for Inactive)
REMARK    1  A    between atoms: C_1  and  C_2
REMARK    2  A    between atoms: C_2  and  C_3
REMARK    3  A    between atoms: C_3  and  C_5
REMARK    4  A    between atoms: C_3  and  N_69
REMARK    5  A    between atoms: N_9  and  C_10
REMARK    6  A    between atoms: C_10  and  C_11
REMARK    7  A    between atoms: C_17  and  C_18
REMARK    8  A    between atoms: C_17  and  N_69
REMARK    9  A    between atoms: C_22  and  C_31
REMARK   10  A    between atoms: C_23  and  C_30
REMARK   11  A    between atoms: C_32  and  N_69
REMARK                            x       y       z     vdW  Elec       q    Type
REMARK                         _______ _______ _______ _____ _____    ______ ____
ROOT
ATOM      1  N   UNL     1      -5.716   3.645  -1.340  0.00  0.00    +0.391 N 
ATOM      2  H   UNL     1      -5.532   2.639  -1.432  0.00  0.00    -0.080 HD
ENDROOT
BRANCH   1   3
ATOM      3  C   UNL     1      -4.641   4.395  -2.023  0.00  0.00    -0.067 C 
ATOM      4  C   UNL     1      -4.749   4.184  -3.548  0.00  0.00    -0.015 C 
ATOM      5  C   UNL     1      -3.277   4.085  -4.022  0.00  0.00    -0.002 C 
ATOM      6  C   UNL     1      -2.601   3.293  -2.875  0.00  0.00    -0.002 C 
ATOM      7  C   UNL     1      -3.276   3.829  -1.596  0.00  0.00    -0.015 C 
ENDBRANCH   1   3
BRANCH   1   8
ATOM      8  C   UNL     1      -7.021   3.952  -1.964  0.00  0.00    +0.003 C 
BRANCH   8   9
ATOM      9  C   UNL     1      -7.939   2.774  -1.764  0.00  0.00    +0.138 A 
ATOM     10  N   UNL     1      -7.849   1.863  -0.826  0.00  0.00    -0.115 NA
ATOM     11  N   UNL     1      -8.815   1.026  -0.990  0.00  0.00    -0.023 NA
ATOM     12  N   UNL     1      -9.518   1.379  -2.009  0.00  0.00    -0.044 NA
ATOM     13  N   UNL     1      -9.012   2.455  -2.510  0.00  0.00    -0.226 N 
BRANCH  13  14
ATOM     14  C   UNL     1      -9.512   3.191  -3.675  0.00  0.00    +0.182 C 
BRANCH  14  15
ATOM     15  C   UNL     1      -8.924   2.602  -4.931  0.00  0.00    -0.026 A 
ATOM     16  C   UNL     1      -7.803   3.173  -5.504  0.00  0.00    +0.005 A 
ATOM     17  C   UNL     1      -7.262   2.629  -6.654  0.00  0.00    +0.000 A 
ATOM     18  C   UNL     1      -7.847   1.521  -7.236  0.00  0.00    +0.000 A 
ATOM     19  C   UNL     1      -8.970   0.952  -6.666  0.00  0.00    +0.000 A 
ATOM     20  C   UNL     1      -9.509   1.493  -5.513  0.00  0.00    +0.005 A 
ENDBRANCH  14  15
ENDBRANCH  13  14
ENDBRANCH   8   9
BRANCH   8  22
ATOM     21  C   UNL     1      -6.759   6.412  -1.613  0.00  0.00    +0.002 C 
ATOM     22  C   UNL     1      -7.640   5.195  -1.322  0.00  0.00    -0.011 C 
ENDBRANCH   8  22
ENDBRANCH   1   8
BRANCH   1  23
ATOM     23  C   UNL     1      -5.747   3.999   0.094  0.00  0.00    -0.036 C 
BRANCH  23  24
ATOM     24  C   UNL     1      -4.626   3.274   0.794  0.00  0.00    +0.001 A 
ATOM     25  C   UNL     1      -3.442   3.902   1.004  0.00  0.00    +0.017 A 
ATOM     26  C   UNL     1      -2.374   3.170   1.687  0.00  0.00    -0.001 A 
ATOM     27  C   UNL     1      -1.131   3.764   1.931  0.00  0.00    +0.013 A 
ATOM     28  C   UNL     1      -0.155   3.054   2.571  0.00  0.00    -0.047 A 
ATOM     29  C   UNL     1      -0.386   1.748   2.981  0.00  0.00    -0.046 A 
ATOM     30  C   UNL     1      -1.602   1.142   2.750  0.00  0.00    +0.030 A 
ATOM     31  C   UNL     1      -2.609   1.844   2.095  0.00  0.00    +0.049 A 
ATOM     32  N   UNL     1      -3.837   1.265   1.857  0.00  0.00    -0.322 N 
ATOM     33  H   UNL     1      -3.999   0.352   2.143  0.00  0.00    +0.169 HD
ATOM     34  C   UNL     1      -4.812   1.945   1.229  0.00  0.00    +0.251 A 
ATOM     35  O   UNL     1      -5.884   1.399   1.030  0.00  0.00    -0.268 OA
ATOM     36  C   UNL     1       0.706   0.984   3.685  0.00  0.00    +0.044 C 
ATOM     37  C   UNL     1       1.183   3.695   2.834  0.00  0.00    +0.044 C 
ENDBRANCH  23  24
ENDBRANCH   1  23
TORSDOF 8
