REMARK  Name = ZINC32960345
REMARK  10 active torsions:
REMARK  status: ('A' for Active; 'I' for Inactive)
REMARK    1  A    between atoms: C_1  and  C_2
REMARK    2  A    between atoms: C_3  and  C_34
REMARK    3  A    between atoms: C_7  and  N_12
REMARK    4  A    between atoms: C_9  and  C_11
REMARK    5  A    between atoms: C_16  and  C_19
REMARK    6  A    between atoms: N_21  and  C_22
REMARK    7  A    between atoms: C_22  and  C_23
REMARK    8  A    between atoms: C_23  and  C_24
REMARK    9  A    between atoms: C_27  and  S_30
REMARK   10  A    between atoms: S_30  and  N_33
REMARK                            x       y       z     vdW  Elec       q    Type
REMARK                         _______ _______ _______ _____ _____    ______ ____
ROOT
ATOM      1  N   UNL     1       3.597   1.953  -0.461  0.00  0.00    -0.314 N 
ATOM      2  C   UNL     1       4.428   1.469  -1.572  0.00  0.00    +0.106 C 
ATOM      3  C   UNL     1       5.782   2.181  -1.546  0.00  0.00    +0.020 C 
ATOM      4  C   UNL     1       5.561   3.692  -1.669  0.00  0.00    +0.016 C 
ATOM      5  C   UNL     1       4.654   4.162  -0.529  0.00  0.00    +0.092 C 
ATOM      6  C   UNL     1       3.332   3.392  -0.585  0.00  0.00    +0.119 C 
ENDROOT
BRANCH   1  13
ATOM      7  C   UNL     1       4.657  -0.264   1.655  0.00  0.00    +0.048 C 
ATOM      8  C   UNL     1       3.221  -0.606   1.353  0.00  0.00    +0.003 A 
ATOM      9  C   UNL     1       2.512  -1.626   1.857  0.00  0.00    +0.108 A 
ATOM     10  O   UNL     1       1.263  -1.612   1.355  0.00  0.00    -0.442 OA
ATOM     11  C   UNL     1       1.098  -0.587   0.504  0.00  0.00    +0.233 A 
ATOM     12  C   UNL     1       2.317   0.109   0.450  0.00  0.00    +0.083 A 
ATOM     13  C   UNL     1       2.417   1.237  -0.377  0.00  0.00    +0.136 A 
ATOM     14  N   UNL     1       1.345   1.602  -1.077  0.00  0.00    -0.217 NA
ATOM     15  C   UNL     1       0.218   0.919  -0.997  0.00  0.00    +0.132 A 
ATOM     16  N   UNL     1       0.083  -0.145  -0.234  0.00  0.00    -0.197 NA
ATOM     17  C   UNL     1      -0.961   1.374  -1.818  0.00  0.00    +0.088 C 
ATOM     18  C   UNL     1       3.036  -2.640   2.841  0.00  0.00    +0.086 C 
ENDBRANCH   1  13
BRANCH   5  19
ATOM     19  C   UNL     1       4.383   5.637  -0.677  0.00  0.00    +0.218 C 
ATOM     20  O   UNL     1       3.245   6.034  -0.814  0.00  0.00    -0.275 OA
ATOM     21  N   UNL     1       5.405   6.515  -0.658  0.00  0.00    -0.315 N 
ATOM     22  H   UNL     1       6.437   6.155  -0.534  0.00  0.00    +0.149 HD
BRANCH  21  23
ATOM     23  C   UNL     1       5.142   7.949  -0.802  0.00  0.00    +0.109 C 
BRANCH  23  24
ATOM     24  C   UNL     1       6.464   8.718  -0.746  0.00  0.00    +0.054 C 
BRANCH  24  25
ATOM     25  C   UNL     1       6.193  10.193  -0.894  0.00  0.00    -0.046 A 
ATOM     26  C   UNL     1       6.183  10.771  -2.150  0.00  0.00    +0.005 A 
ATOM     27  C   UNL     1       5.930  12.123  -2.286  0.00  0.00    +0.029 A 
ATOM     28  C   UNL     1       5.698  12.899  -1.166  0.00  0.00    +0.105 A 
ATOM     29  C   UNL     1       5.713  12.322   0.090  0.00  0.00    +0.029 A 
ATOM     30  C   UNL     1       5.962  10.969   0.226  0.00  0.00    +0.005 A 
BRANCH  28  31
ATOM     31  S   UNL     1       5.381  14.624  -1.339  0.00  0.00    +0.056 S 
ATOM     32  O   UNL     1       4.882  14.815  -2.655  0.00  0.00    -0.153 OA
ATOM     33  O   UNL     1       4.656  15.022  -0.184  0.00  0.00    -0.153 OA
BRANCH  31  34
ATOM     34  N   UNL     1       6.843  15.399  -1.270  0.00  0.00    -0.204 NA
ATOM     35  H   UNL     1       6.689  16.483  -1.375  0.00  0.00    +0.144 HD
ATOM     36  H   UNL     1       7.487  15.040  -2.086  0.00  0.00    +0.144 HD
ENDBRANCH  31  34
ENDBRANCH  28  31
ENDBRANCH  24  25
ENDBRANCH  23  24
ENDBRANCH  21  23
ENDBRANCH   5  19
TORSDOF 7
