REMARK  Name = ZINC03335338
REMARK  5 active torsions:
REMARK  status: ('A' for Active; 'I' for Inactive)
REMARK    1  A    between atoms: C_1  and  C_2
REMARK    2  A    between atoms: C_2  and  C_4
REMARK    3  A    between atoms: C_2  and  O_15
REMARK    4  A    between atoms: N_6  and  C_7
REMARK    5  A    between atoms: O_15  and  C_16
REMARK                            x       y       z     vdW  Elec       q    Type
REMARK                         _______ _______ _______ _____ _____    ______ ____
ROOT
ATOM      1  C   UNL     1      -0.333   4.154  -1.447  0.00  0.00    +0.062 C 
ATOM      2  C   UNL     1      -0.141   4.026   0.065  0.00  0.00    +0.256 C 
ENDROOT
BRANCH   2   3
ATOM      3  C   UNL     1      -0.089   5.399   0.684  0.00  0.00    +0.258 C 
ATOM      4  O   UNL     1       0.930   5.787   1.216  0.00  0.00    -0.271 OA
ATOM      5  N   UNL     1      -1.175   6.196   0.646  0.00  0.00    -0.282 N 
ATOM      6  H   UNL     1      -2.012   5.859   0.290  0.00  0.00    +0.155 HD
BRANCH   5   7
ATOM      7  C   UNL     1      -1.095   7.510   1.122  0.00  0.00    +0.036 A 
ATOM      8  C   UNL     1      -2.200   8.100   1.722  0.00  0.00    +0.043 A 
ATOM      9  C   UNL     1      -2.117   9.396   2.196  0.00  0.00    +0.044 A 
ATOM     10  C   UNL     1      -0.938  10.109   2.063  0.00  0.00    +0.040 A 
ATOM     11  C   UNL     1       0.162   9.524   1.460  0.00  0.00    +0.044 A 
ATOM     12  C   UNL     1       0.086   8.227   0.989  0.00  0.00    +0.043 A 
ATOM     13 CL   UNL     1       1.639  10.422   1.294  0.00  0.00    -0.083 Cl
ATOM     14 CL   UNL     1      -3.494  10.132   2.953  0.00  0.00    -0.083 Cl
ENDBRANCH   5   7
ENDBRANCH   2   3
BRANCH   2  15
ATOM     15  O   UNL     1       1.082   3.336   0.333  0.00  0.00    -0.480 OA
BRANCH  15  16
ATOM     16  C   UNL     1       1.040   1.977   0.323  0.00  0.00    +0.125 A 
ATOM     17  C   UNL     1      -0.125   1.323  -0.051  0.00  0.00    +0.049 A 
ATOM     18  C   UNL     1      -0.170  -0.059  -0.063  0.00  0.00    +0.053 A 
ATOM     19  C   UNL     1       0.947  -0.793   0.300  0.00  0.00    +0.166 A 
ATOM     20  C   UNL     1       2.117  -0.139   0.676  0.00  0.00    +0.170 A 
ATOM     21  C   UNL     1       2.160   1.246   0.687  0.00  0.00    +0.095 A 
ATOM     22  O   UNL     1       3.061  -1.075   0.983  0.00  0.00    -0.452 OA
ATOM     23  C   UNL     1       2.589  -2.304   0.400  0.00  0.00    +0.466 C 
ATOM     24  O   UNL     1       1.159  -2.141   0.371  0.00  0.00    -0.453 OA
ENDBRANCH  15  16
ENDBRANCH   2  15
TORSDOF 4
