REMARK  Name = ZINC09357176
REMARK  7 active torsions:
REMARK  status: ('A' for Active; 'I' for Inactive)
REMARK    1  A    between atoms: C_1  and  C_2
REMARK    2  A    between atoms: C_4  and  C_38
REMARK    3  A    between atoms: N_20  and  C_23
REMARK    4  A    between atoms: C_25  and  O_33
REMARK    5  A    between atoms: C_26  and  N_30
REMARK    6  A    between atoms: C_28  and  C_29
REMARK    7  A    between atoms: O_33  and  C_34
REMARK                            x       y       z     vdW  Elec       q    Type
REMARK                         _______ _______ _______ _____ _____    ______ ____
ROOT
ATOM      1  C   UNL     1      -3.470  -0.620  -1.046  0.00  0.00    +0.044 C 
ATOM      2  C   UNL     1      -4.173   0.521  -1.734  0.00  0.00    -0.050 A 
ATOM      3  C   UNL     1      -4.337   0.508  -3.107  0.00  0.00    +0.008 A 
ATOM      4  C   UNL     1      -4.979   1.550  -3.743  0.00  0.00    -0.029 A 
ATOM      5  C   UNL     1      -5.470   2.625  -3.005  0.00  0.00    +0.039 A 
ATOM      6  C   UNL     1      -5.299   2.628  -1.624  0.00  0.00    -0.027 A 
ATOM      7  C   UNL     1      -4.657   1.586  -0.994  0.00  0.00    +0.008 A 
ATOM      8  C   UNL     1      -5.928   3.902  -1.134  0.00  0.00    +0.053 C 
ATOM      9  C   UNL     1      -4.910   4.785  -0.403  0.00  0.00    +0.089 C 
ATOM     10  C   UNL     1      -5.163   4.512   1.105  0.00  0.00    +0.074 C 
ATOM     11  C   UNL     1      -6.312   3.487   1.141  0.00  0.00    -0.054 C 
ATOM     12  C   UNL     1      -7.852   4.845  -0.013  0.00  0.00    -0.076 C 
ATOM     13  C   UNL     1      -8.366   4.793   1.440  0.00  0.00    -0.020 C 
ATOM     14  C   UNL     1      -7.346   3.920   2.196  0.00  0.00    -0.016 C 
ATOM     15  C   UNL     1      -3.885   3.843   1.558  0.00  0.00    +0.228 C 
ATOM     16  O   UNL     1      -3.659   3.453   2.683  0.00  0.00    -0.275 OA
ATOM     17  N   UNL     1      -3.041   3.751   0.524  0.00  0.00    -0.210 N 
ATOM     18  C   UNL     1      -3.514   4.246  -0.625  0.00  0.00    +0.229 C 
ATOM     19  O   UNL     1      -2.918   4.260  -1.681  0.00  0.00    -0.275 OA
ATOM     20  C   UNL     1      -6.449   4.580  -2.373  0.00  0.00    +0.212 C 
ATOM     21  O   UNL     1      -7.032   5.643  -2.425  0.00  0.00    -0.277 OA
ATOM     22  N   UNL     1      -6.144   3.778  -3.411  0.00  0.00    -0.286 N 
ATOM     23  C   UNL     1      -5.153   1.524  -5.239  0.00  0.00    +0.045 C 
ATOM     24  H   UNL     1      -6.368   3.978  -4.333  0.00  0.00    +0.155 HD
ATOM     25  N   UNL     1      -6.976   3.667  -0.129  0.00  0.00    +0.395 N 
ATOM     26  H   UNL     1      -7.527   2.837  -0.376  0.00  0.00    -0.079 HD
ENDROOT
BRANCH  17  27
ATOM     27  C   UNL     1      -1.766   3.178   0.634  0.00  0.00    +0.050 A 
ATOM     28  C   UNL     1      -1.634   1.833   0.950  0.00  0.00    +0.072 A 
ATOM     29  C   UNL     1      -0.373   1.270   1.059  0.00  0.00    +0.152 A 
ATOM     30  C   UNL     1       0.755   2.051   0.851  0.00  0.00    +0.168 A 
ATOM     31  C   UNL     1       0.622   3.390   0.537  0.00  0.00    +0.041 A 
ATOM     32  C   UNL     1      -0.634   3.956   0.433  0.00  0.00    -0.026 A 
ATOM     33  C   UNL     1      -0.775   5.418   0.096  0.00  0.00    +0.046 C 
BRANCH  30  34
ATOM     34  N   UNL     1       2.103   1.449   0.966  0.00  0.00    +0.060 N 
ATOM     35  O   UNL     1       3.094   2.134   0.784  0.00  0.00    -0.126 OA
ATOM     36  O   UNL     1       2.221   0.269   1.244  0.00  0.00    -0.126 OA
ENDBRANCH  30  34
BRANCH  29  37
ATOM     37  O   UNL     1      -0.240  -0.047   1.368  0.00  0.00    -0.493 OA
ATOM     38  C   UNL     1      -1.444  -0.791   1.569  0.00  0.00    +0.277 C 
ENDBRANCH  29  37
ENDBRANCH  17  27
TORSDOF 3
