REMARK  Name = ZINC12042710
REMARK  10 active torsions:
REMARK  status: ('A' for Active; 'I' for Inactive)
REMARK    1  A    between atoms: C_1  and  C_2
REMARK    2  A    between atoms: C_3  and  C_36
REMARK    3  A    between atoms: C_5  and  N_28
REMARK    4  A    between atoms: C_6  and  C_7
REMARK    5  A    between atoms: C_7  and  C_9
REMARK    6  A    between atoms: C_7  and  N_67
REMARK    7  A    between atoms: C_12  and  S_15
REMARK    8  A    between atoms: S_15  and  C_16
REMARK    9  A    between atoms: N_19  and  C_22
REMARK   10  A    between atoms: C_29  and  C_31
REMARK                            x       y       z     vdW  Elec       q    Type
REMARK                         _______ _______ _______ _____ _____    ______ ____
ROOT
ATOM      1  C   UNL     1       0.071   1.013   0.047  0.00  0.00    -0.004 C 
ENDROOT
BRANCH   1   7
ATOM      2  C   UNL     1      -0.436  -1.343  -1.592  0.00  0.00    +0.045 C 
ATOM      3  C   UNL     1      -0.978   0.003  -1.999  0.00  0.00    -0.037 A 
ATOM      4  C   UNL     1      -1.713   0.134  -3.130  0.00  0.00    -0.008 A 
ATOM      5  S   UNL     1      -2.082   1.881  -3.134  0.00  0.00    -0.078 S 
ATOM      6  C   UNL     1      -1.238   2.322  -1.624  0.00  0.00    +0.074 A 
ATOM      7  C   UNL     1      -0.737   1.121  -1.221  0.00  0.00    -0.025 A 
ATOM      8  C   UNL     1      -2.111  -0.921  -4.129  0.00  0.00    +0.052 C 
BRANCH   6   9
ATOM      9  N   UNL     1      -1.122   3.572  -1.014  0.00  0.00    -0.273 N 
ATOM     10  C   UNL     1      -1.593   4.672  -1.635  0.00  0.00    +0.284 C 
ATOM     11  O   UNL     1      -2.120   4.574  -2.729  0.00  0.00    -0.266 OA
ATOM     12  H   UNL     1      -0.702   3.650  -0.143  0.00  0.00    +0.156 HD
BRANCH  10  13
ATOM     13  C   UNL     1      -1.472   5.985  -0.995  0.00  0.00    +0.189 A 
ATOM     14  C   UNL     1      -1.904   7.173  -1.512  0.00  0.00    +0.054 A 
ATOM     15  C   UNL     1      -1.585   8.163  -0.569  0.00  0.00    +0.042 A 
ATOM     16  C   UNL     1      -0.980   7.544   0.468  0.00  0.00    +0.196 A 
ATOM     17  O   UNL     1      -0.918   6.231   0.210  0.00  0.00    -0.458 OA
ENDBRANCH  10  13
ENDBRANCH   6   9
ENDBRANCH   1   7
BRANCH   1  23
ATOM     18  C   UNL     1       0.196   1.729   2.357  0.00  0.00    -0.058 C 
ATOM     19  C   UNL     1      -0.457   2.630   3.407  0.00  0.00    +0.086 C 
ATOM     20  N   UNL     1      -1.849   2.206   3.615  0.00  0.00    -0.333 N 
ATOM     21  C   UNL     1      -2.613   2.285   2.363  0.00  0.00    +0.086 C 
ATOM     22  C   UNL     1      -1.960   1.383   1.312  0.00  0.00    -0.058 C 
ATOM     23  N   UNL     1      -0.569   1.834   1.096  0.00  0.00    +0.389 N 
ATOM     24  H   UNL     1      -0.579   2.815   0.793  0.00  0.00    -0.080 HD
BRANCH  20  25
ATOM     25  C   UNL     1      -2.457   2.962   4.621  0.00  0.00    +0.030 A 
ATOM     26  C   UNL     1      -3.627   3.660   4.355  0.00  0.00    +0.023 A 
ATOM     27  C   UNL     1      -4.228   4.402   5.353  0.00  0.00    +0.002 A 
ATOM     28  C   UNL     1      -3.661   4.458   6.612  0.00  0.00    +0.000 A 
ATOM     29  C   UNL     1      -2.493   3.768   6.879  0.00  0.00    +0.002 A 
ATOM     30  C   UNL     1      -1.889   3.020   5.887  0.00  0.00    +0.023 A 
ENDBRANCH  20  25
ENDBRANCH   1  23
BRANCH   1  31
ATOM     31  C   UNL     1       1.464   1.533  -0.200  0.00  0.00    -0.057 A 
ATOM     32  C   UNL     1       1.725   2.886  -0.085  0.00  0.00    +0.003 A 
ATOM     33  C   UNL     1       3.001   3.366  -0.305  0.00  0.00    +0.015 A 
ATOM     34  C   UNL     1       4.021   2.489  -0.653  0.00  0.00    +0.008 A 
ATOM     35  C   UNL     1       3.754   1.130  -0.772  0.00  0.00    +0.015 A 
ATOM     36  C   UNL     1       2.477   0.657  -0.545  0.00  0.00    +0.003 A 
BRANCH  34  37
ATOM     37  S   UNL     1       5.649   3.097  -0.942  0.00  0.00    -0.129 S 
ATOM     38  C   UNL     1       5.504   4.885  -0.672  0.00  0.00    +0.090 C 
ENDBRANCH  34  37
ENDBRANCH   1  31
TORSDOF 7
