REMARK  Name = ZINC11986086
REMARK  10 active torsions:
REMARK  status: ('A' for Active; 'I' for Inactive)
REMARK    1  A    between atoms: C_1  and  C_2
REMARK    2  A    between atoms: C_2  and  O_3
REMARK    3  A    between atoms: O_3  and  C_4
REMARK    4  A    between atoms: C_4  and  C_6
REMARK    5  A    between atoms: C_7  and  C_19
REMARK    6  A    between atoms: C_12  and  C_14
REMARK    7  A    between atoms: C_19  and  S_20
REMARK    8  A    between atoms: S_20  and  C_21
REMARK    9  A    between atoms: N_25  and  C_26
REMARK   10  A    between atoms: C_32  and  C_35
REMARK                            x       y       z     vdW  Elec       q    Type
REMARK                         _______ _______ _______ _____ _____    ______ ____
ROOT
ATOM      1  C   UNL     1       1.616  -2.398   1.707  0.00  0.00    +0.082 C 
ATOM      2  C   UNL     1       2.861  -2.859   1.952  0.00  0.00    +0.034 C 
ATOM      3  N   UNL     1       3.750  -3.062   0.936  0.00  0.00    -0.272 N 
ATOM      4  C   UNL     1       3.471  -2.827  -0.353  0.00  0.00    +0.304 C 
ATOM      5  O   UNL     1       4.329  -3.039  -1.188  0.00  0.00    -0.252 OA
ATOM      6  N   UNL     1       2.271  -2.365  -0.754  0.00  0.00    -0.285 N 
ATOM      7  C   UNL     1       1.240  -2.113   0.267  0.00  0.00    +0.179 C 
ATOM      8  H   UNL     1       4.634  -3.394   1.160  0.00  0.00    +0.156 HD
ATOM      9  H   UNL     1       2.090  -2.202  -1.693  0.00  0.00    +0.151 HD
ENDROOT
BRANCH   7  10
ATOM     10  C   UNL     1       0.834  -0.665   0.170  0.00  0.00    +0.130 A 
ATOM     11  C   UNL     1      -0.419  -0.190   0.284  0.00  0.00    +0.047 A 
ATOM     12  C   UNL     1      -0.341   1.213   0.129  0.00  0.00    +0.041 A 
ATOM     13  C   UNL     1       0.955   1.511  -0.071  0.00  0.00    +0.195 A 
ATOM     14  O   UNL     1       1.662   0.370  -0.045  0.00  0.00    -0.466 OA
ENDBRANCH   7  10
BRANCH   1  15
ATOM     15  C   UNL     1       0.694  -2.187   2.759  0.00  0.00    +0.339 C 
ATOM     16  O   UNL     1      -0.145  -3.031   3.011  0.00  0.00    -0.245 OA
BRANCH  15  17
ATOM     17  O   UNL     1       0.745  -1.049   3.483  0.00  0.00    -0.462 OA
BRANCH  17  19
ATOM     18  C   UNL     1      -0.004   0.439   5.234  0.00  0.00    +0.048 C 
ATOM     19  C   UNL     1      -0.216  -0.903   4.530  0.00  0.00    +0.229 C 
ENDBRANCH  17  19
ENDBRANCH  15  17
ENDBRANCH   1  15
BRANCH   2  20
ATOM     20  C   UNL     1       3.276  -3.156   3.370  0.00  0.00    +0.128 C 
BRANCH  20  21
ATOM     21  S   UNL     1       3.300  -4.951   3.630  0.00  0.00    -0.080 S 
BRANCH  21  22
ATOM     22  C   UNL     1       3.796  -5.132   5.311  0.00  0.00    +0.193 A 
ATOM     23  N   UNL     1       4.080  -4.157   6.140  0.00  0.00    -0.121 NA
ATOM     24  N   UNL     1       4.426  -4.724   7.373  0.00  0.00    -0.112 NA
ATOM     25  C   UNL     1       4.351  -6.027   7.255  0.00  0.00    +0.221 A 
ATOM     26  N   UNL     1       3.960  -6.314   5.978  0.00  0.00    -0.287 N 
ATOM     27  N   UNL     1       4.622  -6.954   8.253  0.00  0.00    -0.300 N 
ATOM     28  C   UNL     1       3.475  -7.846   8.468  0.00  0.00    +0.108 C 
ATOM     29  C   UNL     1       3.859  -8.941   9.466  0.00  0.00    +0.022 C 
ATOM     30  C   UNL     1       4.281  -8.294  10.789  0.00  0.00    -0.011 C 
ATOM     31  C   UNL     1       5.444  -7.333  10.529  0.00  0.00    +0.022 C 
ATOM     32  C   UNL     1       5.015  -6.285   9.500  0.00  0.00    +0.108 C 
ATOM     33  C   UNL     1       4.723  -9.380  11.771  0.00  0.00    +0.007 C 
BRANCH  26  34
ATOM     34  C   UNL     1       3.753  -7.653   5.421  0.00  0.00    +0.093 C 
ATOM     35  C   UNL     1       3.743  -7.790   3.897  0.00  0.00    +0.027 C 
ATOM     36  C   UNL     1       2.438  -7.916   4.684  0.00  0.00    +0.027 C 
ENDBRANCH  26  34
ENDBRANCH  21  22
ENDBRANCH  20  21
ENDBRANCH   2  20
TORSDOF 8
