REMARK  Name = ZINC08918318
REMARK  12 active torsions:
REMARK  status: ('A' for Active; 'I' for Inactive)
REMARK    1  A    between atoms: C_1  and  C_2
REMARK    2  A    between atoms: C_2  and  C_3
REMARK    3  A    between atoms: C_3  and  C_4
REMARK    4  A    between atoms: C_4  and  C_5
REMARK    5  A    between atoms: C_5  and  C_6
REMARK    6  A    between atoms: C_6  and  C_8
REMARK    7  A    between atoms: C_6  and  N_9
REMARK    8  A    between atoms: C_10  and  C_12
REMARK    9  A    between atoms: C_15  and  N_18
REMARK   10  A    between atoms: C_21  and  C_39
REMARK   11  A    between atoms: C_26  and  O_32
REMARK   12  A    between atoms: O_32  and  C_33
REMARK                            x       y       z     vdW  Elec       q    Type
REMARK                         _______ _______ _______ _____ _____    ______ ____
ROOT
ATOM      1  N   UNL     1       0.002  -0.004   0.002  0.00  0.00    -0.192 N 
ATOM      2  C   UNL     1       1.261  -0.484  -0.096  0.00  0.00    +0.257 C 
ATOM      3  O   UNL     1       1.611  -1.644  -0.045  0.00  0.00    -0.272 OA
ATOM      4  C   UNL     1       2.142   0.728  -0.282  0.00  0.00    +0.153 C 
ATOM      5  C   UNL     1       3.198   0.819   0.794  0.00  0.00    +0.053 A 
ATOM      6  C   UNL     1       3.349   1.903   1.587  0.00  0.00    -0.015 A 
ATOM      7  C   UNL     1       4.468   1.619   2.468  0.00  0.00    +0.007 A 
ATOM      8  C   UNL     1       5.083   2.363   3.480  0.00  0.00    +0.056 A 
ATOM      9  C   UNL     1       6.151   1.765   4.132  0.00  0.00    +0.121 A 
ATOM     10  C   UNL     1       6.590   0.489   3.801  0.00  0.00    +0.047 A 
ATOM     11  C   UNL     1       5.993  -0.261   2.803  0.00  0.00    +0.030 A 
ATOM     12  C   UNL     1       4.918   0.318   2.131  0.00  0.00    +0.047 A 
ATOM     13  N   UNL     1       4.122  -0.136   1.117  0.00  0.00    -0.356 N 
ATOM     14  H   UNL     1       4.201  -1.004   0.692  0.00  0.00    +0.166 HD
ATOM     15  C   UNL     1       2.511   3.156   1.557  0.00  0.00    +0.056 C 
ATOM     16  C   UNL     1       1.678   3.210   0.268  0.00  0.00    +0.115 C 
ATOM     17  N   UNL     1       1.212   1.852  -0.018  0.00  0.00    -0.265 N 
ATOM     18  C   UNL     1      -0.018   1.339  -0.015  0.00  0.00    +0.317 C 
ATOM     19  O   UNL     1      -1.035   2.005  -0.031  0.00  0.00    -0.252 OA
ATOM     20  C   UNL     1       2.739   0.792  -1.689  0.00  0.00    +0.048 C 
ENDROOT
BRANCH   1  24
ATOM     21  C   UNL     1      -3.398  -2.395   0.318  0.00  0.00    +0.037 A 
ATOM     22  C   UNL     1      -3.504  -1.007   0.440  0.00  0.00    +0.015 A 
ATOM     23  C   UNL     1      -2.379  -0.221   0.335  0.00  0.00    +0.025 A 
ATOM     24  C   UNL     1      -1.138  -0.806   0.108  0.00  0.00    +0.046 A 
ATOM     25  C   UNL     1      -1.030  -2.186  -0.019  0.00  0.00    +0.025 A 
ATOM     26  C   UNL     1      -2.150  -2.980   0.090  0.00  0.00    +0.015 A 
BRANCH  21  28
ATOM     27  N   UNL     1      -4.499  -4.580   0.311  0.00  0.00    -0.309 N 
ATOM     28  C   UNL     1      -4.603  -3.242   0.429  0.00  0.00    +0.244 C 
ATOM     29  O   UNL     1      -5.688  -2.731   0.627  0.00  0.00    -0.270 OA
ATOM     30  H   UNL     1      -3.632  -4.987   0.154  0.00  0.00    +0.149 HD
BRANCH  27  31
ATOM     31  C   UNL     1      -5.694  -5.420   0.421  0.00  0.00    +0.070 C 
ATOM     32  C   UNL     1      -6.387  -5.502  -0.940  0.00  0.00    +0.028 C 
BRANCH  31  33
ATOM     33  C   UNL     1      -5.290  -6.825   0.873  0.00  0.00    +0.022 C 
BRANCH  33  34
ATOM     34  C   UNL     1      -4.709  -6.760   2.287  0.00  0.00    +0.002 C 
BRANCH  34  35
ATOM     35  C   UNL     1      -4.305  -8.165   2.738  0.00  0.00    -0.000 C 
BRANCH  35  37
ATOM     36  C   UNL     1      -3.321  -9.504   4.603  0.00  0.00    +0.004 C 
ATOM     37  C   UNL     1      -3.725  -8.099   4.152  0.00  0.00    -0.003 C 
ENDBRANCH  35  37
ENDBRANCH  34  35
ENDBRANCH  33  34
ENDBRANCH  31  33
ENDBRANCH  27  31
ENDBRANCH  21  28
ENDBRANCH   1  24
BRANCH   9  38
ATOM     38  O   UNL     1       6.785   2.446   5.124  0.00  0.00    -0.495 OA
ATOM     39  C   UNL     1       7.879   1.788   5.766  0.00  0.00    +0.277 C 
ENDBRANCH   9  38
TORSDOF 8
