REMARK  Name = ZINC01623168
REMARK  12 active torsions:
REMARK  status: ('A' for Active; 'I' for Inactive)
REMARK    1  A    between atoms: C_1  and  C_2
REMARK    2  A    between atoms: C_2  and  O_3
REMARK    3  A    between atoms: O_3  and  C_4
REMARK    4  A    between atoms: C_6  and  C_20
REMARK    5  A    between atoms: C_13  and  O_15
REMARK    6  A    between atoms: O_15  and  C_16
REMARK    7  A    between atoms: C_16  and  C_17
REMARK    8  A    between atoms: C_16  and  C_18
REMARK    9  A    between atoms: C_16  and  C_19
REMARK   10  A    between atoms: C_20  and  C_21
REMARK   11  A    between atoms: C_21  and  C_22
REMARK   12  A    between atoms: C_23  and  C_24
REMARK                            x       y       z     vdW  Elec       q    Type
REMARK                         _______ _______ _______ _____ _____    ______ ____
ROOT
ATOM      1  C   UNL     1      -1.760   3.650  -0.507  0.00  0.00    +0.214 C 
ATOM      2  C   UNL     1      -0.557   3.128  -1.244  0.00  0.00    +0.037 C 
ATOM      3  C   UNL     1      -0.503   1.596  -1.131  0.00  0.00    +0.008 C 
ATOM      4  C   UNL     1       0.036   1.149   0.157  0.00  0.00    +0.002 C 
ATOM      5  C   UNL     1      -0.841   1.585   1.341  0.00  0.00    +0.019 C 
ATOM      6  C   UNL     1      -0.563   3.026   1.676  0.00  0.00    +0.113 C 
ATOM      7  N   UNL     1      -1.446   3.940   0.912  0.00  0.00    -0.241 N 
ATOM      8  C   UNL     1      -1.961   5.033   1.508  0.00  0.00    +0.405 C 
ATOM      9  O   UNL     1      -2.760   5.729   0.913  0.00  0.00    -0.226 OA
ENDROOT
BRANCH   1  10
ATOM     10  O   UNL     1      -2.210   4.850  -1.140  0.00  0.00    -0.359 OA
BRANCH  10  12
ATOM     11  C   UNL     1      -3.608   5.976  -2.758  0.00  0.00    +0.034 C 
ATOM     12  C   UNL     1      -3.296   4.657  -2.049  0.00  0.00    +0.159 C 
ENDBRANCH  10  12
ENDBRANCH   1  10
BRANCH   8  13
ATOM     13  O   UNL     1      -1.591   5.355   2.762  0.00  0.00    -0.444 OA
BRANCH  13  14
ATOM     14  C   UNL     1      -2.187   6.546   3.340  0.00  0.00    +0.107 C 
ATOM     15  C   UNL     1      -3.707   6.383   3.390  0.00  0.00    +0.055 C 
ATOM     16  C   UNL     1      -1.649   6.747   4.758  0.00  0.00    +0.055 C 
ATOM     17  C   UNL     1      -1.832   7.762   2.482  0.00  0.00    +0.055 C 
ENDBRANCH  13  14
ENDBRANCH   8  13
BRANCH   2  18
ATOM     18  C   UNL     1      -0.650   3.526  -2.718  0.00  0.00    +0.020 C 
BRANCH  18  19
ATOM     19  C   UNL     1       0.633   3.111  -3.441  0.00  0.00    +0.089 C 
BRANCH  19  20
ATOM     20  C   UNL     1       0.543   3.494  -4.859  0.00  0.00    -0.102 C 
ATOM     21  C   UNL     1       0.472   3.800  -5.991  0.00  0.00    -0.106 C 
ATOM     22  C   UNL     1       0.382   4.183  -7.409  0.00  0.00    +0.106 C 
ENDBRANCH  19  20
ENDBRANCH  18  19
ENDBRANCH   2  18
TORSDOF 7
