REMARK  Name = ZINC39726892
REMARK  10 active torsions:
REMARK  status: ('A' for Active; 'I' for Inactive)
REMARK    1  A    between atoms: C_1  and  C_2
REMARK    2  A    between atoms: C_2  and  N_3
REMARK    3  A    between atoms: C_4  and  C_29
REMARK    4  A    between atoms: C_8  and  S_9
REMARK    5  A    between atoms: S_9  and  C_10
REMARK    6  A    between atoms: C_10  and  C_12
REMARK    7  A    between atoms: C_10  and  C_18
REMARK    8  A    between atoms: C_18  and  C_20
REMARK    9  A    between atoms: C_29  and  C_30
REMARK   10  A    between atoms: C_30  and  C_31
REMARK                            x       y       z     vdW  Elec       q    Type
REMARK                         _______ _______ _______ _____ _____    ______ ____
ROOT
ATOM      1  C   UNL     1      -3.066  -1.100  -3.744  0.00  0.00    +0.155 C 
ENDROOT
BRANCH   1   2
ATOM      2  C   UNL     1      -3.321  -2.569  -3.524  0.00  0.00    -0.027 A 
ATOM      3  C   UNL     1      -2.342  -3.495  -3.836  0.00  0.00    +0.005 A 
ATOM      4  C   UNL     1      -2.575  -4.842  -3.634  0.00  0.00    +0.000 A 
ATOM      5  C   UNL     1      -3.787  -5.264  -3.119  0.00  0.00    +0.000 A 
ATOM      6  C   UNL     1      -4.765  -4.339  -2.806  0.00  0.00    +0.000 A 
ATOM      7  C   UNL     1      -4.530  -2.991  -3.004  0.00  0.00    +0.005 A 
ENDBRANCH   1   2
BRANCH   1   8
ATOM      8  C   UNL     1      -2.790  -0.852  -5.205  0.00  0.00    +0.179 C 
ATOM      9  O   UNL     1      -1.646  -0.815  -5.609  0.00  0.00    -0.291 OA
BRANCH   8  10
ATOM     10  C   UNL     1      -3.862  -0.663  -6.103  0.00  0.00    +0.025 C 
ATOM     11  C   UNL     1      -3.781  -0.432  -7.465  0.00  0.00    +0.006 A 
ATOM     12  C   UNL     1      -2.691  -0.314  -8.358  0.00  0.00    +0.010 A 
ATOM     13  C   UNL     1      -2.908  -0.081  -9.672  0.00  0.00    +0.001 A 
ATOM     14  C   UNL     1      -4.198   0.052 -10.210  0.00  0.00    +0.002 A 
ATOM     15  C   UNL     1      -5.306  -0.043  -9.444  0.00  0.00    +0.026 A 
ATOM     16  C   UNL     1      -5.158  -0.296  -8.001  0.00  0.00    +0.043 A 
ATOM     17  N   UNL     1      -6.035  -0.432  -7.048  0.00  0.00    -0.380 N 
ATOM     18  C   UNL     1      -5.340  -0.677  -5.780  0.00  0.00    +0.152 C 
ATOM     19  H   UNL     1      -6.997  -0.382  -7.159  0.00  0.00    +0.160 HD
ENDBRANCH   8  10
ENDBRANCH   1   8
BRANCH   1  20
ATOM     20  S   UNL     1      -1.633  -0.580  -2.761  0.00  0.00    -0.073 S 
BRANCH  20  25
ATOM     21  N   UNL     1      -1.372  -0.511   0.012  0.00  0.00    -0.289 N 
ATOM     22  C   UNL     1      -2.189  -0.817   1.199  0.00  0.00    +0.177 C 
ATOM     23  N   UNL     1      -3.467  -1.286   0.638  0.00  0.00    -0.246 N 
ATOM     24  N   UNL     1      -3.326  -1.229  -0.754  0.00  0.00    -0.163 NA
ATOM     25  C   UNL     1      -2.161  -0.792  -1.093  0.00  0.00    +0.176 C 
ATOM     26  H   UNL     1      -4.250  -1.577   1.133  0.00  0.00    +0.170 HD
BRANCH  21  28
ATOM     27  C   UNL     1      -0.019   1.526   0.010  0.00  0.00    +0.024 C 
ATOM     28  C   UNL     1       0.002  -0.004   0.002  0.00  0.00    +0.105 C 
ENDBRANCH  21  28
BRANCH  22  29
ATOM     29  C   UNL     1      -2.400   0.441   2.044  0.00  0.00    +0.053 C 
BRANCH  29  30
ATOM     30  C   UNL     1      -3.143   0.073   3.330  0.00  0.00    +0.099 C 
BRANCH  30  31
ATOM     31  C   UNL     1      -3.351   1.313   4.162  0.00  0.00    +0.211 C 
ATOM     32  O   UNL     1      -2.945   2.385   3.766  0.00  0.00    -0.276 OA
ATOM     33  N   UNL     1      -3.988   1.230   5.347  0.00  0.00    -0.329 N 
ATOM     34  H   UNL     1      -4.312   0.372   5.664  0.00  0.00    +0.145 HD
ATOM     35  H   UNL     1      -4.122   2.027   5.883  0.00  0.00    +0.145 HD
ENDBRANCH  30  31
ENDBRANCH  29  30
ENDBRANCH  22  29
ENDBRANCH  20  25
ENDBRANCH   1  20
TORSDOF 9
