REMARK  Name = ZINC33811142
REMARK  4 active torsions:
REMARK  status: ('A' for Active; 'I' for Inactive)
REMARK    1  A    between atoms: C_1  and  C_2
REMARK    2  A    between atoms: C_5  and  S_7
REMARK    3  A    between atoms: S_7  and  N_10
REMARK    4  A    between atoms: CA_15  and  C_17
REMARK                            x       y       z     vdW  Elec       q    Type
REMARK                         _______ _______ _______ _____ _____    ______ ____
ROOT
ATOM      1  N   UNL     1      -1.222   2.087   0.019  0.00  0.00    -0.129 NA
ATOM      2  C   UNL     1      -0.017   1.390   0.010  0.00  0.00    +0.089 A 
ATOM      3  C   UNL     1       0.002  -0.004   0.002  0.00  0.00    +0.047 A 
ATOM      4  C   UNL     1       1.217  -0.664  -0.013  0.00  0.00    +0.085 A 
ATOM      5  N   UNL     1       2.351   0.005  -0.020  0.00  0.00    -0.355 N 
ATOM      6  CA  UNL     1       2.382   1.333  -0.013  0.00  0.00    +0.131 A 
ATOM      7  C   UNL     1       1.202   2.068   0.002  0.00  0.00    +0.062 A 
ATOM      8  H   UNL     1       3.308  -0.537  -0.032  0.00  0.00    +0.166 HD
ENDROOT
BRANCH   1   9
ATOM      9  S   UNL     1      -2.441   1.618   1.037  0.00  0.00    +0.106 S 
ATOM     10  O   UNL     1      -3.513   2.530   0.833  0.00  0.00    -0.146 OA
ATOM     11  O   UNL     1      -2.593   0.215   0.870  0.00  0.00    -0.146 OA
BRANCH   9  16
ATOM     12  C   UNL     1      -0.192   1.538   6.508  0.00  0.00    +0.051 C 
ATOM     13  C   UNL     1      -0.840   1.816   5.176  0.00  0.00    -0.011 A 
ATOM     14  C   UNL     1      -1.455   2.944   4.744  0.00  0.00    +0.013 A 
ATOM     15  C   UNL     1      -1.984   2.972   3.467  0.00  0.00    +0.037 A 
ATOM     16  C   UNL     1      -1.871   1.871   2.685  0.00  0.00    +0.150 A 
ATOM     17  S   UNL     1      -1.002   0.741   3.759  0.00  0.00    -0.073 S 
ENDBRANCH   9  16
ENDBRANCH   1   9
BRANCH   6  18
ATOM     18  C   UNL     1       3.685   2.037  -0.021  0.00  0.00    +0.402 C 
ATOM     19  O   UNL     1       3.719   3.251  -0.015  0.00  0.00    -0.239 OA
ATOM     20  OXT UNL     1       4.831   1.331  -0.035  0.00  0.00    -0.239 OA
ENDBRANCH   6  18
TORSDOF 3
