REMARK  Name = ZINC39296855
REMARK  6 active torsions:
REMARK  status: ('A' for Active; 'I' for Inactive)
REMARK    1  A    between atoms: C_1  and  C_2
REMARK    2  A    between atoms: C_2  and  N_3
REMARK    3  A    between atoms: C_4  and  C_6
REMARK    4  A    between atoms: C_6  and  C_7
REMARK    5  A    between atoms: N_9  and  C_10
REMARK    6  A    between atoms: C_11  and  C_19
REMARK                            x       y       z     vdW  Elec       q    Type
REMARK                         _______ _______ _______ _____ _____    ______ ____
ROOT
ATOM      1  C   UNL     1      -4.133  -5.944   0.010  0.00  0.00    +0.084 A 
ATOM      2  C   UNL     1      -5.215  -6.811   0.010  0.00  0.00    +0.068 A 
ATOM      3  C   UNL     1      -4.925  -8.234   0.001  0.00  0.00    -0.023 A 
ATOM      4  C   UNL     1      -3.607  -8.530  -0.006  0.00  0.00    -0.004 A 
ATOM      5  S   UNL     1      -2.795  -6.958  -0.009  0.00  0.00    -0.077 S 
ATOM      6  C   UNL     1      -2.991  -9.895  -0.014  0.00  0.00    +0.043 C 
ATOM      7  C   UNL     1      -4.074 -10.915   0.367  0.00  0.00    +0.005 C 
ATOM      8  C   UNL     1      -5.331 -10.636  -0.463  0.00  0.00    +0.005 C 
ATOM      9  C   UNL     1      -5.981  -9.330  -0.002  0.00  0.00    +0.037 C 
ENDROOT
BRANCH   2  10
ATOM     10  C   UNL     1      -6.593  -6.312   0.019  0.00  0.00    +0.244 C 
ATOM     11  O   UNL     1      -7.170  -6.100  -1.032  0.00  0.00    -0.270 OA
ATOM     12  N   UNL     1      -7.221  -6.089   1.190  0.00  0.00    -0.325 N 
ATOM     13  H   UNL     1      -6.761  -6.258   2.027  0.00  0.00    +0.145 HD
ATOM     14  H   UNL     1      -8.134  -5.759   1.196  0.00  0.00    +0.145 HD
ENDBRANCH   2  10
BRANCH   1  17
ATOM     15  C   UNL     1      -2.994  -3.868   0.010  0.00  0.00    +0.226 C 
ATOM     16  O   UNL     1      -1.936  -4.460  -0.003  0.00  0.00    -0.275 OA
ATOM     17  N   UNL     1      -4.152  -4.558   0.017  0.00  0.00    -0.279 N 
ATOM     18  H   UNL     1      -4.998  -4.084   0.028  0.00  0.00    +0.155 HD
BRANCH  15  19
ATOM     19  C   UNL     1      -3.014  -2.361   0.018  0.00  0.00    +0.191 C 
BRANCH  19  21
ATOM     20  N   UNL     1      -1.372  -0.511   0.012  0.00  0.00    -0.315 N 
ATOM     21  C   UNL     1      -1.601  -1.839   0.007  0.00  0.00    +0.222 C 
ATOM     22  O   UNL     1      -0.668  -2.615  -0.006  0.00  0.00    -0.275 OA
ATOM     23  H   UNL     1      -2.118   0.109   0.023  0.00  0.00    +0.149 HD
BRANCH  20  25
ATOM     24  C   UNL     1      -0.019   1.526   0.010  0.00  0.00    +0.024 C 
ATOM     25  C   UNL     1       0.002  -0.004   0.002  0.00  0.00    +0.101 C 
ENDBRANCH  20  25
ENDBRANCH  19  21
ENDBRANCH  15  19
ENDBRANCH   1  17
TORSDOF 5
