REMARK  Name = ZINC28901582
REMARK  12 active torsions:
REMARK  status: ('A' for Active; 'I' for Inactive)
REMARK    1  A    between atoms: C_1  and  N_2
REMARK    2  A    between atoms: C_4  and  C_27
REMARK    3  A    between atoms: C_10  and  C_12
REMARK    4  A    between atoms: C_12  and  N_13
REMARK    5  A    between atoms: N_13  and  C_14
REMARK    6  A    between atoms: N_13  and  C_15
REMARK    7  A    between atoms: C_15  and  C_16
REMARK    8  A    between atoms: C_16  and  C_18
REMARK    9  A    between atoms: C_16  and  O_26
REMARK   10  A    between atoms: C_22  and  C_24
REMARK   11  A    between atoms: N_29  and  C_30
REMARK   12  A    between atoms: C_30  and  C_31
REMARK                            x       y       z     vdW  Elec       q    Type
REMARK                         _______ _______ _______ _____ _____    ______ ____
ROOT
ATOM      1  C   UNL     1      -1.145  14.059  -1.853  0.00  0.00    +0.149 C 
ATOM      2  N   UNL     1       0.155  13.437  -2.115  0.00  0.00    -0.343 N 
ATOM      3  C   UNL     1       1.241  14.223  -2.197  0.00  0.00    +0.103 A 
ATOM      4  C   UNL     1       2.487  13.685  -2.441  0.00  0.00    +0.100 A 
ATOM      5  C   UNL     1       2.626  12.235  -2.614  0.00  0.00    +0.202 A 
ATOM      6  O   UNL     1       3.715  11.729  -2.831  0.00  0.00    -0.286 OA
ATOM      7  C   UNL     1       1.405  11.402  -2.517  0.00  0.00    +0.054 A 
ATOM      8  C   UNL     1       0.214  12.090  -2.266  0.00  0.00    +0.091 A 
ATOM      9  S   UNL     1      -1.007  10.799  -2.224  0.00  0.00    -0.074 S 
ATOM     10  C   UNL     1       0.059   9.402  -2.523  0.00  0.00    +0.006 A 
ATOM     11  C   UNL     1       1.272   9.961  -2.648  0.00  0.00    +0.026 A 
ENDROOT
BRANCH   4  12
ATOM     12  C   UNL     1       3.667  14.558  -2.528  0.00  0.00    +0.249 C 
ATOM     13  O   UNL     1       4.764  14.078  -2.745  0.00  0.00    -0.270 OA
ATOM     14  N   UNL     1       3.534  15.890  -2.369  0.00  0.00    -0.307 N 
ATOM     15  H   UNL     1       2.542  16.323  -2.173  0.00  0.00    +0.149 HD
BRANCH  14  16
ATOM     16  C   UNL     1       4.710  16.759  -2.455  0.00  0.00    +0.139 C 
BRANCH  16  17
ATOM     17  C   UNL     1       4.292  18.191  -2.242  0.00  0.00    -0.030 A 
ATOM     18  C   UNL     1       3.928  18.973  -3.322  0.00  0.00    +0.006 A 
ATOM     19  C   UNL     1       3.540  20.285  -3.127  0.00  0.00    +0.020 A 
ATOM     20  C   UNL     1       3.526  20.819  -1.851  0.00  0.00    +0.041 A 
ATOM     21  C   UNL     1       3.896  20.038  -0.770  0.00  0.00    +0.020 A 
ATOM     22  C   UNL     1       4.279  18.725  -0.967  0.00  0.00    +0.006 A 
ATOM     23 CL   UNL     1       3.045  22.469  -1.605  0.00  0.00    -0.084 Cl
ENDBRANCH  16  17
ENDBRANCH  14  16
ENDBRANCH   4  12
BRANCH  10  24
ATOM     24  C   UNL     1      -0.314   7.945  -2.620  0.00  0.00    +0.126 C 
BRANCH  24  25
ATOM     25  N   UNL     1      -0.229   7.329  -1.289  0.00  0.00    -0.298 NA
ATOM     26  C   UNL     1      -1.241   7.889  -0.384  0.00  0.00    +0.105 C 
BRANCH  25  27
ATOM     27  C   UNL     1      -0.352   5.867  -1.377  0.00  0.00    +0.120 C 
BRANCH  27  28
ATOM     28  C   UNL     1       0.960   5.275  -1.893  0.00  0.00    +0.158 C 
BRANCH  28  29
ATOM     29  C   UNL     1       0.830   3.777  -1.996  0.00  0.00    -0.017 A 
ATOM     30  C   UNL     1       0.962   2.994  -0.863  0.00  0.00    +0.006 A 
ATOM     31  C   UNL     1       0.838   1.618  -0.946  0.00  0.00    +0.002 A 
ATOM     32  C   UNL     1       0.592   1.018  -2.164  0.00  0.00    +0.019 A 
ATOM     33  C   UNL     1       0.458   1.802  -3.311  0.00  0.00    +0.052 A 
ATOM     34  C   UNL     1       0.579   3.190  -3.218  0.00  0.00    +0.025 A 
BRANCH  33  35
ATOM     35  C   UNL     1       0.198   1.185  -4.577  0.00  0.00    +0.099 C 
ATOM     36  N   UNL     1      -0.009   0.696  -5.582  0.00  0.00    -0.191 NA
ENDBRANCH  33  35
ENDBRANCH  28  29
BRANCH  28  37
ATOM     37  O   UNL     1       2.018   5.600  -0.990  0.00  0.00    -0.386 OA
ATOM     38  H   UNL     1       3.043   5.257  -1.196  0.00  0.00    +0.210 HD
ENDBRANCH  28  37
ENDBRANCH  27  28
ENDBRANCH  25  27
ENDBRANCH  24  25
ENDBRANCH  10  24
TORSDOF 10
