REMARK  Name = ZINC24715494
REMARK  11 active torsions:
REMARK  status: ('A' for Active; 'I' for Inactive)
REMARK    1  A    between atoms: C_1  and  C_2
REMARK    2  A    between atoms: C_4  and  C_7
REMARK    3  A    between atoms: C_10  and  C_12
REMARK    4  A    between atoms: C_12  and  C_13
REMARK    5  A    between atoms: C_13  and  N_14
REMARK    6  A    between atoms: C_15  and  C_17
REMARK    7  A    between atoms: C_19  and  C_24
REMARK    8  A    between atoms: C_21  and  C_22
REMARK    9  A    between atoms: C_21  and  C_23
REMARK   10  A    between atoms: C_25  and  C_26
REMARK   11  A    between atoms: C_25  and  C_27
REMARK                            x       y       z     vdW  Elec       q    Type
REMARK                         _______ _______ _______ _____ _____    ______ ____
ROOT
ATOM      1  C   UNL     1       9.092   3.362   4.022  0.00  0.00    +0.109 C 
ENDROOT
BRANCH   1   2
ATOM      2  N   UNL     1      10.263   2.812   3.333  0.00  0.00    -0.315 N 
ATOM      3  C   UNL     1      11.085   1.961   3.978  0.00  0.00    +0.217 C 
ATOM      4  O   UNL     1      10.857   1.650   5.128  0.00  0.00    -0.275 OA
ATOM      5  H   UNL     1      10.470   3.094   2.291  0.00  0.00    +0.149 HD
BRANCH   3   6
ATOM      6  C   UNL     1      12.289   1.395   3.269  0.00  0.00    +0.088 C 
ATOM      7  C   UNL     1      12.037   0.439   2.101  0.00  0.00    +0.030 C 
ATOM      8  C   UNL     1      12.566  -0.101   3.432  0.00  0.00    -0.016 C 
ATOM      9  C   UNL     1      14.028  -0.547   3.481  0.00  0.00    +0.012 C 
ATOM     10  C   UNL     1      11.600  -0.908   4.301  0.00  0.00    +0.012 C 
BRANCH   7  11
ATOM     11  C   UNL     1      10.604   0.136   1.748  0.00  0.00    -0.023 C 
ATOM     12  C   UNL     1      10.326  -0.537   0.658  0.00  0.00    -0.079 C 
ATOM     13  C   UNL     1      11.440  -1.008  -0.241  0.00  0.00    +0.038 C 
ATOM     14  C   UNL     1       8.893  -0.841   0.305  0.00  0.00    +0.038 C 
ENDBRANCH   7  11
ENDBRANCH   3   6
ENDBRANCH   1   2
BRANCH   1  15
ATOM     15  C   UNL     1       8.334   4.293   3.074  0.00  0.00    +0.061 C 
BRANCH  15  19
ATOM     16  C   UNL     1       4.748   5.490   4.880  0.00  0.00    +0.038 A 
ATOM     17  C   UNL     1       5.815   6.323   5.083  0.00  0.00    +0.018 A 
ATOM     18  C   UNL     1       7.029   5.994   4.519  0.00  0.00    +0.012 A 
ATOM     19  C   UNL     1       7.130   4.859   3.783  0.00  0.00    -0.008 A 
ATOM     20  S   UNL     1       5.472   4.204   3.875  0.00  0.00    -0.092 S 
BRANCH  16  24
ATOM     21  C   UNL     1       1.167   7.860   7.411  0.00  0.00    +0.073 C 
ATOM     22  C   UNL     1       1.761   6.767   6.561  0.00  0.00    +0.076 A 
ATOM     23  N   UNL     1       2.990   6.647   6.121  0.00  0.00    -0.244 NA
ATOM     24  C   UNL     1       3.359   5.618   5.371  0.00  0.00    +0.085 A 
ATOM     25  C   UNL     1       2.410   4.677   5.066  0.00  0.00    +0.075 A 
ATOM     26  S   UNL     1       0.989   5.355   5.910  0.00  0.00    -0.080 S 
ENDBRANCH  16  24
ENDBRANCH  15  19
ENDBRANCH   1  15
TORSDOF 6
