REMARK  Name = ZINC35745370
REMARK  15 active torsions:
REMARK  status: ('A' for Active; 'I' for Inactive)
REMARK    1  A    between atoms: C_1  and  C_2
REMARK    2  A    between atoms: C_6  and  C_8
REMARK    3  A    between atoms: C_8  and  N_9
REMARK    4  A    between atoms: N_9  and  C_10
REMARK    5  A    between atoms: N_9  and  C_16
REMARK    6  A    between atoms: C_10  and  C_11
REMARK    7  A    between atoms: C_16  and  C_17
REMARK    8  A    between atoms: C_20  and  C_22
REMARK    9  A    between atoms: C_22  and  C_23
REMARK   10  A    between atoms: C_22  and  C_31
REMARK   11  A    between atoms: C_22  and  O_39
REMARK   12  A    between atoms: C_26  and  O_29
REMARK   13  A    between atoms: O_29  and  C_30
REMARK   14  A    between atoms: C_34  and  O_37
REMARK   15  A    between atoms: O_37  and  C_38
REMARK                            x       y       z     vdW  Elec       q    Type
REMARK                         _______ _______ _______ _____ _____    ______ ____
ROOT
ATOM      1  C   UNL     1       2.922  -3.172   5.350  0.00  0.00    +0.089 A 
ATOM      2  C   UNL     1       3.787  -2.672   6.252  0.00  0.00    +0.043 A 
ATOM      3  C   UNL     1       4.985  -3.411   6.123  0.00  0.00    +0.048 A 
ATOM      4  C   UNL     1       4.781  -4.318   5.151  0.00  0.00    +0.146 A 
ATOM      5  O   UNL     1       3.528  -4.172   4.690  0.00  0.00    -0.463 OA
ENDROOT
BRANCH   1   6
ATOM      6  C   UNL     1       1.510  -2.695   5.124  0.00  0.00    -0.002 C 
BRANCH   6   7
ATOM      7  N   UNL     1       1.508  -1.637   4.104  0.00  0.00    +0.392 N 
ATOM      8  H   UNL     1       2.143  -0.903   4.380  0.00  0.00    -0.080 HD
BRANCH   7   9
ATOM      9  C   UNL     1       0.152  -1.089   3.970  0.00  0.00    -0.042 C 
BRANCH   9  15
ATOM     10  C   UNL     1      -2.161  -1.129   8.407  0.00  0.00    +0.044 C 
ATOM     11  C   UNL     1      -1.342  -0.406   7.369  0.00  0.00    -0.050 A 
ATOM     12  C   UNL     1      -0.946   0.900   7.587  0.00  0.00    +0.003 A 
ATOM     13  C   UNL     1      -0.195   1.563   6.634  0.00  0.00    +0.000 A 
ATOM     14  C   UNL     1       0.160   0.919   5.463  0.00  0.00    +0.002 A 
ATOM     15  C   UNL     1      -0.235  -0.388   5.246  0.00  0.00    -0.064 A 
ATOM     16  C   UNL     1      -0.982  -1.052   6.201  0.00  0.00    +0.005 A 
ENDBRANCH   9  15
ENDBRANCH   7   9
BRANCH   7  17
ATOM     17  C   UNL     1       1.940  -2.199   2.817  0.00  0.00    -0.002 C 
BRANCH  17  18
ATOM     18  C   UNL     1       2.070  -1.090   1.804  0.00  0.00    +0.089 A 
ATOM     19  C   UNL     1       3.149  -0.304   1.633  0.00  0.00    +0.042 A 
ATOM     20  C   UNL     1       2.839   0.592   0.584  0.00  0.00    +0.041 A 
ATOM     21  C   UNL     1       1.591   0.300   0.177  0.00  0.00    +0.195 A 
ATOM     22  O   UNL     1       1.132  -0.723   0.916  0.00  0.00    -0.470 OA
ENDBRANCH  17  18
ENDBRANCH   7  17
ENDBRANCH   6   7
ENDBRANCH   1   6
BRANCH   4  23
ATOM     23  C   UNL     1       5.787  -5.329   4.664  0.00  0.00    +0.174 C 
BRANCH  23  24
ATOM     24  C   UNL     1       5.066  -6.559   4.175  0.00  0.00    -0.004 A 
ATOM     25  C   UNL     1       5.219  -7.760   4.843  0.00  0.00    +0.011 A 
ATOM     26  C   UNL     1       4.559  -8.889   4.396  0.00  0.00    +0.046 A 
ATOM     27  C   UNL     1       3.743  -8.817   3.277  0.00  0.00    +0.120 A 
ATOM     28  C   UNL     1       3.591  -7.610   2.609  0.00  0.00    +0.046 A 
ATOM     29  C   UNL     1       4.248  -6.483   3.063  0.00  0.00    +0.011 A 
BRANCH  27  30
ATOM     30  O   UNL     1       3.094  -9.926   2.836  0.00  0.00    -0.495 OA
ATOM     31  C   UNL     1       2.270  -9.777   1.678  0.00  0.00    +0.277 C 
ENDBRANCH  27  30
ENDBRANCH  23  24
BRANCH  23  32
ATOM     32  C   UNL     1       6.590  -4.736   3.536  0.00  0.00    -0.004 A 
ATOM     33  C   UNL     1       5.965  -3.965   2.574  0.00  0.00    +0.011 A 
ATOM     34  C   UNL     1       6.699  -3.420   1.538  0.00  0.00    +0.046 A 
ATOM     35  C   UNL     1       8.066  -3.648   1.464  0.00  0.00    +0.120 A 
ATOM     36  C   UNL     1       8.691  -4.422   2.430  0.00  0.00    +0.046 A 
ATOM     37  C   UNL     1       7.953  -4.960   3.467  0.00  0.00    +0.011 A 
BRANCH  35  38
ATOM     38  O   UNL     1       8.790  -3.114   0.446  0.00  0.00    -0.495 OA
ATOM     39  C   UNL     1      10.192  -3.390   0.433  0.00  0.00    +0.277 C 
ENDBRANCH  35  38
ENDBRANCH  23  32
BRANCH  23  40
ATOM     40  O   UNL     1       6.662  -5.685   5.737  0.00  0.00    -0.372 OA
ATOM     41  H   UNL     1       6.212  -6.074   6.499  0.00  0.00    +0.212 HD
ENDBRANCH  23  40
ENDBRANCH   4  23
TORSDOF 12
