REMARK  Name = ZINC03190169
REMARK  5 active torsions:
REMARK  status: ('A' for Active; 'I' for Inactive)
REMARK    1  A    between atoms: C_1  and  C_2
REMARK    2  A    between atoms: C_5  and  C_9
REMARK    3  A    between atoms: C_9  and  N_13
REMARK    4  A    between atoms: N_16  and  C_17
REMARK    5  A    between atoms: N_16  and  C_18
REMARK                            x       y       z     vdW  Elec       q    Type
REMARK                         _______ _______ _______ _____ _____    ______ ____
ROOT
ATOM      1  C   UNL     1      -1.230   2.281   0.008  0.00  0.00    +0.072 C 
ATOM      2  C   UNL     1      -0.808   3.353  -0.666  0.00  0.00    +0.128 C 
ATOM      3 CL   UNL     1      -1.722   3.943  -2.019  0.00  0.00    -0.069 Cl
ATOM      4 CL   UNL     1       0.652   4.161  -0.186  0.00  0.00    -0.069 Cl
ENDROOT
BRANCH   1   9
ATOM      5  C   UNL     1       2.011   0.065   4.219  0.00  0.00    +0.047 C 
ATOM      6  C   UNL     1       1.163   0.645   3.117  0.00  0.00    -0.015 A 
ATOM      7  C   UNL     1      -0.185   0.870   3.330  0.00  0.00    +0.007 A 
ATOM      8  C   UNL     1      -0.965   1.406   2.326  0.00  0.00    +0.010 A 
ATOM      9  C   UNL     1      -0.396   1.711   1.090  0.00  0.00    +0.001 A 
ATOM     10  C   UNL     1       0.964   1.483   0.879  0.00  0.00    +0.048 A 
ATOM     11  C   UNL     1       1.737   0.951   1.893  0.00  0.00    +0.127 A 
ATOM     12  F   UNL     1       3.054   0.729   1.692  0.00  0.00    -0.205 F 
ENDBRANCH   1   9
BRANCH   1  13
ATOM     13  N   UNL     1      -2.463   1.695  -0.308  0.00  0.00    -0.267 N 
ATOM     14  C   UNL     1      -2.523   0.392  -0.649  0.00  0.00    +0.307 C 
ATOM     15  O   UNL     1      -1.499  -0.252  -0.772  0.00  0.00    -0.252 OA
ATOM     16  N   UNL     1      -3.718  -0.197  -0.855  0.00  0.00    -0.285 N 
ATOM     17  C   UNL     1      -4.952   0.579  -0.707  0.00  0.00    +0.134 C 
ATOM     18  H   UNL     1      -3.274   2.227  -0.282  0.00  0.00    +0.156 HD
BRANCH  16  19
ATOM     19  C   UNL     1      -3.782  -1.613  -1.225  0.00  0.00    +0.077 C 
ATOM     20  C   UNL     1      -4.472  -1.753  -2.584  0.00  0.00    +0.022 C 
ATOM     21  C   UNL     1      -4.540  -3.232  -2.971  0.00  0.00    +0.002 C 
ATOM     22  C   UNL     1      -5.335  -4.000  -1.913  0.00  0.00    +0.000 C 
ATOM     23  C   UNL     1      -4.645  -3.860  -0.555  0.00  0.00    +0.002 C 
ATOM     24  C   UNL     1      -4.577  -2.381  -0.168  0.00  0.00    +0.022 C 
ENDBRANCH  16  19
ENDBRANCH   1  13
TORSDOF 3
