REMARK  Name = ZINC34942113
REMARK  7 active torsions:
REMARK  status: ('A' for Active; 'I' for Inactive)
REMARK    1  A    between atoms: C_1  and  C_2
REMARK    2  A    between atoms: C_2  and  C_3
REMARK    3  A    between atoms: C_2  and  C_4
REMARK    4  A    between atoms: C_4  and  C_6
REMARK    5  A    between atoms: C_4  and  N_25
REMARK    6  A    between atoms: N_18  and  C_19
REMARK    7  A    between atoms: N_28  and  C_29
REMARK                            x       y       z     vdW  Elec       q    Type
REMARK                         _______ _______ _______ _____ _____    ______ ____
ROOT
ATOM      1  C   UNL     1       0.657  -2.065   1.264  0.00  0.00    +0.236 C 
ATOM      2  O   UNL     1       1.655  -2.752   1.326  0.00  0.00    -0.274 OA
ATOM      3  N   UNL     1      -0.558  -2.645   1.214  0.00  0.00    -0.300 N 
ATOM      4  C   UNL     1      -1.768  -1.833   1.023  0.00  0.00    +0.110 C 
ATOM      5  C   UNL     1      -2.548  -2.384  -0.175  0.00  0.00    +0.054 C 
ATOM      6  C   UNL     1      -2.812  -3.875   0.035  0.00  0.00    +0.115 C 
ATOM      7  C   UNL     1      -1.489  -4.633   0.147  0.00  0.00    +0.054 C 
ATOM      8  C   UNL     1      -0.699  -4.102   1.341  0.00  0.00    +0.110 C 
ATOM      9  C   UNL     1      -3.625  -4.422  -1.109  0.00  0.00    +0.238 C 
ATOM     10  O   UNL     1      -3.286  -4.429  -2.273  0.00  0.00    -0.273 OA
ATOM     11  N   UNL     1      -4.787  -4.901  -0.632  0.00  0.00    -0.298 N 
ATOM     12  C   UNL     1      -4.851  -4.724   0.818  0.00  0.00    +0.214 C 
ATOM     13  N   UNL     1      -3.607  -4.076   1.253  0.00  0.00    -0.300 N 
ATOM     14  H   UNL     1      -5.483  -5.306  -1.173  0.00  0.00    +0.150 HD
ENDROOT
BRANCH  13  15
ATOM     15  C   UNL     1      -3.253  -3.723   2.557  0.00  0.00    +0.032 A 
ATOM     16  C   UNL     1      -1.997  -3.189   2.817  0.00  0.00    +0.023 A 
ATOM     17  C   UNL     1      -1.650  -2.841   4.108  0.00  0.00    +0.002 A 
ATOM     18  C   UNL     1      -2.551  -3.024   5.141  0.00  0.00    +0.000 A 
ATOM     19  C   UNL     1      -3.802  -3.556   4.885  0.00  0.00    +0.002 A 
ATOM     20  C   UNL     1      -4.157  -3.901   3.596  0.00  0.00    +0.023 A 
ENDBRANCH  13  15
BRANCH   1  21
ATOM     21  C   UNL     1       0.777  -0.563   1.245  0.00  0.00    +0.163 C 
BRANCH  21  22
ATOM     22  N   UNL     1       2.126  -0.175   1.664  0.00  0.00    -0.288 N 
ATOM     23  C   UNL     1       2.340   1.041   2.204  0.00  0.00    +0.304 C 
ATOM     24  O   UNL     1       1.413   1.816   2.344  0.00  0.00    -0.252 OA
ATOM     25  N   UNL     1       3.581   1.398   2.590  0.00  0.00    -0.268 N 
ATOM     26  H   UNL     1       2.865  -0.793   1.552  0.00  0.00    +0.151 HD
ATOM     27  H   UNL     1       4.332   0.810   2.413  0.00  0.00    +0.156 HD
BRANCH  25  28
ATOM     28  C   UNL     1       3.787   2.617   3.246  0.00  0.00    +0.049 A 
ATOM     29  C   UNL     1       2.826   3.107   4.121  0.00  0.00    +0.024 A 
ATOM     30  C   UNL     1       3.032   4.310   4.768  0.00  0.00    +0.002 A 
ATOM     31  C   UNL     1       4.193   5.027   4.545  0.00  0.00    +0.001 A 
ATOM     32  C   UNL     1       5.152   4.543   3.675  0.00  0.00    +0.017 A 
ATOM     33  C   UNL     1       4.955   3.337   3.028  0.00  0.00    +0.039 A 
ATOM     34 BR   UNL     1       6.270   2.671   1.844  0.00  0.00    -0.048 Br
ENDBRANCH  25  28
ENDBRANCH  21  22
BRANCH  21  36
ATOM     35  C   UNL     1       0.513   1.481  -0.168  0.00  0.00    +0.009 C 
ATOM     36  C   UNL     1       0.515  -0.049  -0.172  0.00  0.00    +0.012 C 
ATOM     37  C   UNL     1       1.614  -0.554  -1.109  0.00  0.00    +0.009 C 
ENDBRANCH  21  36
ENDBRANCH   1  21
TORSDOF 5
