REMARK  Name = ZINC02204503
REMARK  3 active torsions:
REMARK  status: ('A' for Active; 'I' for Inactive)
REMARK    1  A    between atoms: C_1  and  C_2
REMARK    2  A    between atoms: C_6  and  N_8
REMARK    3  A    between atoms: C_23  and  C_25
REMARK                            x       y       z     vdW  Elec       q    Type
REMARK                         _______ _______ _______ _____ _____    ______ ____
ROOT
ATOM      1  N   UNL     1       0.050  -2.798   2.395  0.00  0.00    -0.202 N 
ATOM      2  C   UNL     1       0.073  -4.133   2.508  0.00  0.00    +0.257 C 
ATOM      3  O   UNL     1       0.076  -4.913   1.575  0.00  0.00    -0.269 OA
ATOM      4  C   UNL     1       0.093  -4.505   3.885  0.00  0.00    +0.061 C 
ATOM      5  C   UNL     1       0.045  -3.367   4.607  0.00  0.00    +0.086 C 
ATOM      6  C   UNL     1       0.049  -2.245   3.620  0.00  0.00    +0.265 C 
ATOM      7  O   UNL     1       0.050  -1.058   3.876  0.00  0.00    -0.269 OA
ATOM      8  S   UNL     1      -0.043  -3.152   6.351  0.00  0.00    -0.082 S 
ATOM      9  C   UNL     1       1.103  -4.320   7.010  0.00  0.00    +0.034 A 
ATOM     10  C   UNL     1       2.156  -3.905   7.806  0.00  0.00    +0.017 A 
ATOM     11  C   UNL     1       3.014  -4.845   8.351  0.00  0.00    +0.001 A 
ATOM     12  C   UNL     1       2.806  -6.190   8.106  0.00  0.00    +0.002 A 
ATOM     13  C   UNL     1       1.766  -6.606   7.298  0.00  0.00    +0.024 A 
ATOM     14  C   UNL     1       0.917  -5.668   6.714  0.00  0.00    +0.042 A 
ATOM     15  N   UNL     1      -0.005  -6.084   5.772  0.00  0.00    -0.330 N 
ATOM     16  C   UNL     1       0.191  -5.932   4.350  0.00  0.00    +0.174 C 
ATOM     17  H   UNL     1      -0.826  -6.499   6.082  0.00  0.00    +0.147 HD
ENDROOT
BRANCH   1  23
ATOM     18  C   UNL     1      -0.018   1.503   0.010  0.00  0.00    +0.044 C 
ATOM     19  C   UNL     1       0.002  -0.004   0.002  0.00  0.00    -0.049 A 
ATOM     20  C   UNL     1       0.006  -0.688  -1.200  0.00  0.00    +0.003 A 
ATOM     21  C   UNL     1       0.024  -2.071  -1.212  0.00  0.00    +0.002 A 
ATOM     22  C   UNL     1       0.039  -2.773  -0.022  0.00  0.00    +0.024 A 
ATOM     23  C   UNL     1       0.035  -2.089   1.186  0.00  0.00    +0.045 A 
ATOM     24  C   UNL     1       0.023  -0.700   1.194  0.00  0.00    +0.027 A 
ENDBRANCH   1  23
BRANCH  16  25
ATOM     25  C   UNL     1       1.555  -6.464   3.991  0.00  0.00    +0.130 A 
ATOM     26  C   UNL     1       1.842  -7.240   2.930  0.00  0.00    +0.047 A 
ATOM     27  C   UNL     1       3.230  -7.503   2.979  0.00  0.00    +0.041 A 
ATOM     28  C   UNL     1       3.708  -6.872   4.066  0.00  0.00    +0.195 A 
ATOM     29  O   UNL     1       2.690  -6.240   4.673  0.00  0.00    -0.466 OA
ENDBRANCH  16  25
TORSDOF 2
