REMARK  Name = ZINC09184294
REMARK  7 active torsions:
REMARK  status: ('A' for Active; 'I' for Inactive)
REMARK    1  A    between atoms: C_1  and  C_2
REMARK    2  A    between atoms: C_2  and  C_4
REMARK    3  A    between atoms: C_2  and  O_23
REMARK    4  A    between atoms: C_10  and  S_12
REMARK    5  A    between atoms: S_12  and  C_15
REMARK    6  A    between atoms: C_15  and  C_16
REMARK    7  A    between atoms: O_23  and  C_24
REMARK                            x       y       z     vdW  Elec       q    Type
REMARK                         _______ _______ _______ _____ _____    ______ ____
ROOT
ATOM      1  C   UNL     1      -1.424  -0.753  -0.044  0.00  0.00    +0.259 C 
ATOM      2  O   UNL     1      -1.833  -1.194  -1.098  0.00  0.00    -0.271 OA
ATOM      3  N   UNL     1      -2.231  -0.732   1.035  0.00  0.00    -0.260 N 
ATOM      4  C   UNL     1      -3.532  -1.215   0.941  0.00  0.00    +0.189 A 
ATOM      5  N   UNL     1      -4.153  -1.733  -0.100  0.00  0.00    -0.124 NA
ATOM      6  N   UNL     1      -5.350  -2.133  -0.033  0.00  0.00    -0.121 NA
ATOM      7  C   UNL     1      -5.997  -2.030   1.111  0.00  0.00    +0.239 A 
ATOM      8  S   UNL     1      -4.724  -1.298   2.130  0.00  0.00    -0.012 S 
ATOM      9  H   UNL     1      -1.904  -0.380   1.878  0.00  0.00    +0.157 HD
ENDROOT
BRANCH   7  10
ATOM     10  S   UNL     1      -7.647  -2.490   1.521  0.00  0.00    +0.026 S 
ATOM     11  O   UNL     1      -8.002  -1.641   2.603  0.00  0.00    -0.167 OA
ATOM     12  O   UNL     1      -8.356  -2.432   0.291  0.00  0.00    -0.167 OA
BRANCH  10  13
ATOM     13  C   UNL     1      -7.524  -4.208   2.091  0.00  0.00    +0.212 C 
BRANCH  13  14
ATOM     14  C   UNL     1      -8.893  -4.710   2.472  0.00  0.00    +0.009 A 
ATOM     15  C   UNL     1      -9.352  -4.552   3.766  0.00  0.00    +0.008 A 
ATOM     16  C   UNL     1     -10.607  -5.012   4.116  0.00  0.00    +0.000 A 
ATOM     17  C   UNL     1     -11.405  -5.632   3.172  0.00  0.00    +0.003 A 
ATOM     18  C   UNL     1     -10.949  -5.791   1.878  0.00  0.00    +0.038 A 
ATOM     19  C   UNL     1      -9.694  -5.325   1.525  0.00  0.00    +0.128 A 
ATOM     20  F   UNL     1      -9.248  -5.476   0.258  0.00  0.00    -0.205 F 
ENDBRANCH  13  14
ENDBRANCH  10  13
ENDBRANCH   7  10
BRANCH   1  22
ATOM     21  C   UNL     1      -0.048   1.273   0.344  0.00  0.00    +0.062 C 
ATOM     22  C   UNL     1      -0.015  -0.230   0.058  0.00  0.00    +0.256 C 
BRANCH  22  23
ATOM     23  O   UNL     1       0.671  -0.465  -1.174  0.00  0.00    -0.477 OA
BRANCH  23  24
ATOM     24  C   UNL     1       2.026  -0.553  -1.118  0.00  0.00    +0.157 A 
ATOM     25  C   UNL     1       2.691  -0.303   0.073  0.00  0.00    +0.048 A 
ATOM     26  C   UNL     1       4.068  -0.394   0.128  0.00  0.00    +0.004 A 
ATOM     27  C   UNL     1       4.786  -0.732  -1.005  0.00  0.00    +0.003 A 
ATOM     28  C   UNL     1       4.128  -0.981  -2.195  0.00  0.00    +0.042 A 
ATOM     29  C   UNL     1       2.748  -0.899  -2.253  0.00  0.00    +0.165 A 
ATOM     30  F   UNL     1       2.104  -1.148  -3.415  0.00  0.00    -0.202 F 
ENDBRANCH  23  24
ENDBRANCH  22  23
ENDBRANCH   1  22
TORSDOF 6
