REMARK  Name = ZINC37355447
REMARK  7 active torsions:
REMARK  status: ('A' for Active; 'I' for Inactive)
REMARK    1  A    between atoms: C_1  and  O_2
REMARK    2  A    between atoms: O_2  and  C_3
REMARK    3  A    between atoms: C_5  and  C_11
REMARK    4  A    between atoms: C_7  and  O_9
REMARK    5  A    between atoms: O_9  and  C_10
REMARK    6  A    between atoms: C_11  and  C_13
REMARK    7  A    between atoms: C_11  and  N_15
REMARK                            x       y       z     vdW  Elec       q    Type
REMARK                         _______ _______ _______ _____ _____    ______ ____
ROOT
ATOM      1  C   UNL     1      -1.200  -0.637   0.010  0.00  0.00    +0.124 A 
ATOM      2  C   UNL     1      -1.255  -2.024   0.009  0.00  0.00    +0.052 A 
ATOM      3  C   UNL     1      -2.477  -2.669   0.017  0.00  0.00    -0.009 A 
ATOM      4  C   UNL     1      -3.647  -1.935   0.025  0.00  0.00    +0.052 A 
ATOM      5  C   UNL     1      -3.598  -0.548   0.027  0.00  0.00    +0.124 A 
ATOM      6  C   UNL     1      -2.373   0.101   0.025  0.00  0.00    +0.091 A 
ENDROOT
BRANCH   1   8
ATOM      7  C   UNL     1      -0.017   1.425   0.010  0.00  0.00    +0.277 C 
ATOM      8  O   UNL     1       0.002  -0.004   0.002  0.00  0.00    -0.495 OA
ENDBRANCH   1   8
BRANCH   5   9
ATOM      9  O   UNL     1      -4.750   0.173   0.036  0.00  0.00    -0.495 OA
ATOM     10  C   UNL     1      -4.624   1.597   0.037  0.00  0.00    +0.277 C 
ENDBRANCH   5   9
BRANCH   3  11
ATOM     11  C   UNL     1      -2.533  -4.175   0.015  0.00  0.00    +0.191 C 
BRANCH  11  12
ATOM     12  N   UNL     1      -3.618  -4.623  -0.869  0.00  0.00    -0.284 NA
ATOM     13  C   UNL     1      -3.368  -4.206  -2.272  0.00  0.00    +0.086 C 
ATOM     14  C   UNL     1      -4.263  -5.169  -3.092  0.00  0.00    +0.017 C 
ATOM     15  C   UNL     1      -4.140  -6.501  -2.317  0.00  0.00    +0.017 C 
ATOM     16  C   UNL     1      -3.703  -6.099  -0.895  0.00  0.00    +0.086 C 
ENDBRANCH  11  12
BRANCH  11  17
ATOM     17  C   UNL     1      -2.783  -4.658   1.383  0.00  0.00    +0.086 C 
ATOM     18  N   UNL     1      -2.975  -5.031   2.438  0.00  0.00    -0.195 NA
ENDBRANCH  11  17
ENDBRANCH   3  11
TORSDOF 5
