REMARK  Name = ZINC63547726
REMARK  9 active torsions:
REMARK  status: ('A' for Active; 'I' for Inactive)
REMARK    1  A    between atoms: C_1  and  C_2
REMARK    2  A    between atoms: C_2  and  C_3
REMARK    3  A    between atoms: C_3  and  C_4
REMARK    4  A    between atoms: C_4  and  N_5
REMARK    5  A    between atoms: C_14  and  O_30
REMARK    6  A    between atoms: C_21  and  C_23
REMARK    7  A    between atoms: N_26  and  C_28
REMARK    8  A    between atoms: C_28  and  C_29
REMARK    9  A    between atoms: O_30  and  C_31
REMARK                            x       y       z     vdW  Elec       q    Type
REMARK                         _______ _______ _______ _____ _____    ______ ____
ROOT
ATOM      1  N   UNL     1       1.419  -2.484  -2.504  0.00  0.00    -0.299 N 
ATOM      2  C   UNL     1       1.566  -3.808  -2.710  0.00  0.00    +0.303 C 
ATOM      3  O   UNL     1       1.214  -4.598  -1.856  0.00  0.00    -0.253 OA
ATOM      4  N   UNL     1       2.103  -4.256  -3.862  0.00  0.00    -0.276 N 
ATOM      5  C   UNL     1       2.638  -3.296  -4.834  0.00  0.00    +0.114 C 
ATOM      6  C   UNL     1       1.921  -3.480  -6.184  0.00  0.00    +0.052 C 
ATOM      7  C   UNL     1       1.875  -4.964  -6.451  0.00  0.00    -0.035 C 
ATOM      8  C   UNL     1       2.244  -5.677  -7.507  0.00  0.00    +0.003 A 
ATOM      9  C   UNL     1       2.728  -5.282  -8.839  0.00  0.00    +0.055 A 
ATOM     10  C   UNL     1       3.044  -6.291  -9.698  0.00  0.00    +0.121 A 
ATOM     11  C   UNL     1       2.932  -7.653  -9.383  0.00  0.00    +0.047 A 
ATOM     12  C   UNL     1       2.489  -8.127  -8.190  0.00  0.00    +0.029 A 
ATOM     13  C   UNL     1       2.109  -7.130  -7.179  0.00  0.00    +0.043 A 
ATOM     14  N   UNL     1       1.638  -7.284  -5.979  0.00  0.00    -0.375 N 
ATOM     15  C   UNL     1       1.358  -5.961  -5.420  0.00  0.00    +0.131 C 
ATOM     16  C   UNL     1       2.151  -5.702  -4.129  0.00  0.00    +0.137 C 
ATOM     17  H   UNL     1       1.766  -1.851  -3.152  0.00  0.00    +0.150 HD
ATOM     18  H   UNL     1       1.497  -8.132  -5.529  0.00  0.00    +0.160 HD
ENDROOT
BRANCH  16  19
ATOM     19  C   UNL     1       3.582  -6.140  -4.308  0.00  0.00    +0.013 A 
ATOM     20  C   UNL     1       4.505  -5.592  -5.204  0.00  0.00    +0.140 A 
ATOM     21  N   UNL     1       5.637  -6.233  -5.069  0.00  0.00    -0.179 NA
ATOM     22  N   UNL     1       5.470  -7.211  -4.080  0.00  0.00    -0.271 N 
ATOM     23  C   UNL     1       4.202  -7.130  -3.625  0.00  0.00    +0.113 A 
BRANCH  22  24
ATOM     24  C   UNL     1       6.494  -8.152  -3.616  0.00  0.00    +0.140 C 
ATOM     25  C   UNL     1       7.052  -8.927  -4.812  0.00  0.00    +0.029 C 
ENDBRANCH  22  24
ENDBRANCH  16  19
BRANCH  10  26
ATOM     26  O   UNL     1       3.494  -5.957 -10.936  0.00  0.00    -0.495 OA
ATOM     27  C   UNL     1       3.818  -7.032 -11.820  0.00  0.00    +0.277 C 
ENDBRANCH  10  26
BRANCH   1  28
ATOM     28  C   UNL     1       0.734  -2.001  -1.303  0.00  0.00    +0.106 C 
BRANCH  28  29
ATOM     29  C   UNL     1       0.703  -0.471  -1.314  0.00  0.00    +0.018 C 
BRANCH  29  31
ATOM     30  C   UNL     1      -0.043   1.563  -0.070  0.00  0.00    +0.004 C 
ATOM     31  C   UNL     1      -0.012   0.034  -0.059  0.00  0.00    -0.002 C 
ENDBRANCH  29  31
ENDBRANCH  28  29
ENDBRANCH   1  28
TORSDOF 6
