REMARK  Name = ZINC00901775
REMARK  10 active torsions:
REMARK  status: ('A' for Active; 'I' for Inactive)
REMARK    1  A    between atoms: N_9  and  C_10
REMARK    2  A    between atoms: C_10  and  C_11
REMARK    3  A    between atoms: N_13  and  C_14
REMARK    4  A    between atoms: N_13  and  C_29
REMARK    5  A    between atoms: C_17  and  S_20
REMARK    6  A    between atoms: S_20  and  N_23
REMARK    7  A    between atoms: N_23  and  C_24
REMARK    8  A    between atoms: C_29  and  C_31
REMARK    9  A    between atoms: C_29  and  C_36
REMARK   10  A    between atoms: N_38  and  C_39
REMARK                            x       y       z     vdW  Elec       q    Type
REMARK                         _______ _______ _______ _____ _____    ______ ____
ROOT
ATOM      1  C   UNL     1      -4.160   3.513  -1.374  0.00  0.00    +0.242 C 
ATOM      2  O   UNL     1      -3.389   3.438  -2.306  0.00  0.00    -0.273 OA
ATOM      3  N   UNL     1      -5.489   3.497  -1.596  0.00  0.00    -0.251 N 
ENDROOT
BRANCH   3   4
ATOM      4  C   UNL     1      -5.980   3.525  -2.906  0.00  0.00    +0.038 A 
ATOM      5  C   UNL     1      -5.107   3.694  -3.973  0.00  0.00    +0.025 A 
ATOM      6  C   UNL     1      -5.594   3.715  -5.265  0.00  0.00    +0.030 A 
ATOM      7  C   UNL     1      -6.951   3.580  -5.496  0.00  0.00    +0.105 A 
ATOM      8  C   UNL     1      -7.823   3.418  -4.436  0.00  0.00    +0.030 A 
ATOM      9  C   UNL     1      -7.342   3.390  -3.142  0.00  0.00    +0.025 A 
BRANCH   7  10
ATOM     10  S   UNL     1      -7.569   3.615  -7.146  0.00  0.00    +0.059 S 
ATOM     11  O   UNL     1      -6.492   3.230  -7.991  0.00  0.00    -0.153 OA
ATOM     12  O   UNL     1      -8.809   2.922  -7.130  0.00  0.00    -0.153 OA
BRANCH  10  13
ATOM     13  N   UNL     1      -7.912   5.194  -7.507  0.00  0.00    -0.187 NA
ATOM     14  H   UNL     1      -8.829   5.465  -7.673  0.00  0.00    +0.148 HD
BRANCH  13  15
ATOM     15  C   UNL     1      -6.833   6.182  -7.575  0.00  0.00    +0.077 C 
ATOM     16  C   UNL     1      -6.745   6.961  -6.246  0.00  0.00    +0.020 C 
ATOM     17  C   UNL     1      -6.391   8.406  -6.676  0.00  0.00    +0.002 C 
ATOM     18  C   UNL     1      -7.219   8.589  -7.973  0.00  0.00    +0.002 C 
ATOM     19  C   UNL     1      -7.134   7.217  -8.673  0.00  0.00    +0.020 C 
ENDBRANCH  13  15
ENDBRANCH  10  13
ENDBRANCH   7  10
ENDBRANCH   3   4
BRANCH   1  20
ATOM     20  C   UNL     1      -3.633   3.622   0.034  0.00  0.00    +0.242 C 
BRANCH  20  29
ATOM     21  C   UNL     1       0.790   0.766   0.178  0.00  0.00    +0.002 A 
ATOM     22  C   UNL     1      -0.513   0.288   0.239  0.00  0.00    +0.002 A 
ATOM     23  C   UNL     1      -1.573   1.149   0.185  0.00  0.00    +0.029 A 
ATOM     24  C   UNL     1      -1.347   2.517   0.079  0.00  0.00    +0.090 A 
ATOM     25  C   UNL     1      -0.032   3.008   0.018  0.00  0.00    +0.113 A 
ATOM     26  C   UNL     1       1.038   2.103   0.069  0.00  0.00    +0.032 A 
ATOM     27  N   UNL     1      -0.100   4.350  -0.086  0.00  0.00    -0.129 NA
ATOM     28  N   UNL     1      -1.327   4.736  -0.094  0.00  0.00    -0.064 NA
ATOM     29  N   UNL     1      -2.168   3.618   0.008  0.00  0.00    -0.235 N 
ENDBRANCH  20  29
ENDBRANCH   1  20
BRANCH   3  30
ATOM     30  C   UNL     1      -6.421   3.451  -0.466  0.00  0.00    +0.233 C 
BRANCH  30  31
ATOM     31  C   UNL     1      -7.308   4.669  -0.496  0.00  0.00    +0.135 A 
ATOM     32  C   UNL     1      -7.697   5.386   0.574  0.00  0.00    +0.047 A 
ATOM     33  C   UNL     1      -8.516   6.432   0.090  0.00  0.00    +0.041 A 
ATOM     34  C   UNL     1      -8.578   6.292  -1.246  0.00  0.00    +0.195 A 
ATOM     35  O   UNL     1      -7.839   5.226  -1.596  0.00  0.00    -0.465 OA
ENDBRANCH  30  31
BRANCH  30  36
ATOM     36  C   UNL     1      -7.269   2.209  -0.563  0.00  0.00    +0.242 C 
ATOM     37  O   UNL     1      -7.384   1.636  -1.626  0.00  0.00    -0.273 OA
ATOM     38  N   UNL     1      -7.899   1.736   0.530  0.00  0.00    -0.311 N 
ATOM     39  H   UNL     1      -7.807   2.195   1.379  0.00  0.00    +0.149 HD
BRANCH  38  40
ATOM     40  C   UNL     1      -8.723   0.529   0.435  0.00  0.00    +0.073 C 
ATOM     41  C   UNL     1     -10.165   0.903   0.033  0.00  0.00    +0.022 C 
ATOM     42  C   UNL     1     -11.051  -0.078   0.839  0.00  0.00    +0.002 C 
ATOM     43  C   UNL     1     -10.307  -0.175   2.195  0.00  0.00    +0.002 C 
ATOM     44  C   UNL     1      -8.814  -0.157   1.809  0.00  0.00    +0.022 C 
ENDBRANCH  38  40
ENDBRANCH  30  36
ENDBRANCH   3  30
TORSDOF 10
