REMARK  Name = ZINC63778272
REMARK  12 active torsions:
REMARK  status: ('A' for Active; 'I' for Inactive)
REMARK    1  A    between atoms: C_1  and  N_2
REMARK    2  A    between atoms: N_2  and  C_3
REMARK    3  A    between atoms: N_2  and  S_4
REMARK    4  A    between atoms: S_4  and  C_7
REMARK    5  A    between atoms: C_11  and  N_13
REMARK    6  A    between atoms: C_14  and  C_16
REMARK    7  A    between atoms: C_16  and  O_17
REMARK    8  A    between atoms: O_17  and  C_18
REMARK    9  A    between atoms: C_18  and  C_20
REMARK   10  A    between atoms: C_20  and  C_21
REMARK   11  A    between atoms: C_21  and  C_22
REMARK   12  A    between atoms: C_22  and  C_23
REMARK                            x       y       z     vdW  Elec       q    Type
REMARK                         _______ _______ _______ _____ _____    ______ ____
ROOT
ATOM      1  N   UNL     1       4.372  -3.527  -1.462  0.00  0.00    -0.281 N 
ATOM      2  C   UNL     1       3.782  -4.405  -0.626  0.00  0.00    +0.255 C 
ATOM      3  O   UNL     1       2.625  -4.248  -0.300  0.00  0.00    -0.272 OA
ATOM      4  H   UNL     1       5.271  -3.695  -1.786  0.00  0.00    +0.155 HD
ENDROOT
BRANCH   1   9
ATOM      5  C   UNL     1       2.002  -0.716  -1.462  0.00  0.00    +0.107 A 
ATOM      6  C   UNL     1       2.335  -0.092  -2.651  0.00  0.00    +0.030 A 
ATOM      7  C   UNL     1       3.343  -0.605  -3.446  0.00  0.00    +0.024 A 
ATOM      8  C   UNL     1       4.021  -1.744  -3.054  0.00  0.00    +0.062 A 
ATOM      9  C   UNL     1       3.688  -2.373  -1.861  0.00  0.00    +0.054 A 
ATOM     10  C   UNL     1       2.679  -1.851  -1.063  0.00  0.00    +0.053 A 
ATOM     11 CL   UNL     1       5.286  -2.389  -4.053  0.00  0.00    -0.082 Cl
BRANCH   5  12
ATOM     12  S   UNL     1       0.716  -0.057  -0.453  0.00  0.00    +0.060 S 
ATOM     13  O   UNL     1       0.233  -1.132   0.341  0.00  0.00    -0.153 OA
ATOM     14  O   UNL     1      -0.130   0.695  -1.312  0.00  0.00    -0.153 OA
BRANCH  12  16
ATOM     15  C   UNL     1       1.541   2.433   0.206  0.00  0.00    +0.131 C 
ATOM     16  N   UNL     1       1.416   1.024   0.588  0.00  0.00    -0.183 NA
ATOM     17  C   UNL     1       1.910   0.572   1.891  0.00  0.00    +0.131 C 
ENDBRANCH  12  16
ENDBRANCH   5  12
ENDBRANCH   1   9
BRANCH   2  18
ATOM     18  C   UNL     1       4.561  -5.582  -0.098  0.00  0.00    +0.328 C 
BRANCH  18  19
ATOM     19  O   UNL     1       3.724  -6.360   0.760  0.00  0.00    -0.455 OA
BRANCH  19  20
ATOM     20  C   UNL     1       4.270  -7.452   1.317  0.00  0.00    +0.308 C 
ATOM     21  O   UNL     1       5.420  -7.739   1.084  0.00  0.00    -0.251 OA
BRANCH  20  22
ATOM     22  C   UNL     1       3.448  -8.322   2.234  0.00  0.00    +0.121 C 
BRANCH  22  23
ATOM     23  C   UNL     1       4.302  -9.491   2.729  0.00  0.00    +0.015 C 
BRANCH  23  24
ATOM     24  C   UNL     1       3.468 -10.374   3.659  0.00  0.00    +0.034 C 
BRANCH  24  25
ATOM     25  C   UNL     1       4.309 -11.525   4.146  0.00  0.00    -0.042 C 
ATOM     26  C   UNL     1       5.003 -11.592   5.306  0.00  0.00    -0.001 A 
ATOM     27  C   UNL     1       5.177 -10.649   6.416  0.00  0.00    +0.010 A 
ATOM     28  C   UNL     1       5.951 -11.006   7.466  0.00  0.00    +0.001 A 
ATOM     29  C   UNL     1       6.590 -12.252   7.519  0.00  0.00    +0.002 A 
ATOM     30  C   UNL     1       6.478 -13.172   6.537  0.00  0.00    +0.026 A 
ATOM     31  C   UNL     1       5.688 -12.902   5.386  0.00  0.00    +0.043 A 
ATOM     32  N   UNL     1       5.428 -13.617   4.319  0.00  0.00    -0.380 N 
ATOM     33  C   UNL     1       4.542 -12.843   3.442  0.00  0.00    +0.144 C 
ATOM     34  H   UNL     1       5.762 -14.510   4.140  0.00  0.00    +0.160 HD
ENDBRANCH  24  25
ENDBRANCH  23  24
ENDBRANCH  22  23
ENDBRANCH  20  22
ENDBRANCH  19  20
ENDBRANCH  18  19
ENDBRANCH   2  18
TORSDOF 10
