REMARK  Name = ZINC38806056
REMARK  9 active torsions:
REMARK  status: ('A' for Active; 'I' for Inactive)
REMARK    1  A    between atoms: C_1  and  C_2
REMARK    2  A    between atoms: C_2  and  C_30
REMARK    3  A    between atoms: C_5  and  C_26
REMARK    4  A    between atoms: C_6  and  N_13
REMARK    5  A    between atoms: C_9  and  C_11
REMARK    6  A    between atoms: C_9  and  C_12
REMARK    7  A    between atoms: C_14  and  C_16
REMARK    8  A    between atoms: C_26  and  O_28
REMARK    9  A    between atoms: O_28  and  C_29
REMARK                            x       y       z     vdW  Elec       q    Type
REMARK                         _______ _______ _______ _____ _____    ______ ____
ROOT
ATOM      1  C   UNL     1      -0.019   1.526   0.010  0.00  0.00    -0.010 C 
ATOM      2  C   UNL     1       0.002  -0.004   0.002  0.00  0.00    -0.069 C 
ATOM      3  C   UNL     1      -1.435  -0.531  -0.093  0.00  0.00    +0.024 C 
ATOM      4  C   UNL     1      -2.140  -0.132   1.193  0.00  0.00    -0.024 A 
ATOM      5  C   UNL     1      -3.542   0.185   1.356  0.00  0.00    +0.091 A 
ATOM      6  C   UNL     1      -3.965   0.529   2.634  0.00  0.00    +0.086 A 
ATOM      7  S   UNL     1      -2.572   0.435   3.568  0.00  0.00    -0.079 S 
ATOM      8  C   UNL     1      -1.409  -0.050   2.329  0.00  0.00    -0.016 A 
ATOM      9  C   UNL     1       0.052  -0.324   2.463  0.00  0.00    -0.041 C 
ATOM     10  N   UNL     1       0.699  -0.531   1.167  0.00  0.00    +0.389 N 
ATOM     11  C   UNL     1       0.724   0.836   3.211  0.00  0.00    -0.005 C 
ATOM     12  C   UNL     1       0.229  -1.599   3.311  0.00  0.00    -0.005 C 
ATOM     13  C   UNL     1       0.757  -0.460  -1.261  0.00  0.00    -0.010 C 
ATOM     14  H   UNL     1       0.842  -1.532   1.033  0.00  0.00    -0.084 HD
ATOM     15  H   UNL     1       1.633  -0.121   1.202  0.00  0.00    -0.084 HD
ENDROOT
BRANCH   6  16
ATOM     16  N   UNL     1      -5.245   0.871   3.041  0.00  0.00    -0.275 N 
ATOM     17  C   UNL     1      -5.481   1.180   4.331  0.00  0.00    +0.249 C 
ATOM     18  O   UNL     1      -4.572   1.159   5.138  0.00  0.00    -0.270 OA
ATOM     19  H   UNL     1      -5.970   0.888   2.397  0.00  0.00    +0.156 HD
BRANCH  17  20
ATOM     20  C   UNL     1      -6.844   1.544   4.764  0.00  0.00    +0.041 A 
ATOM     21  C   UNL     1      -7.892   1.563   3.840  0.00  0.00    +0.017 A 
ATOM     22  C   UNL     1      -9.162   1.904   4.247  0.00  0.00    +0.050 A 
ATOM     23  C   UNL     1      -9.409   2.229   5.576  0.00  0.00    +0.162 A 
ATOM     24  C   UNL     1      -8.370   2.210   6.503  0.00  0.00    +0.163 A 
ATOM     25  C   UNL     1      -7.092   1.865   6.101  0.00  0.00    +0.062 A 
ATOM     26  O   UNL     1      -8.596   2.518   7.810  0.00  0.00    -0.485 OA
ATOM     27  C   UNL     1      -9.812   3.214   8.105  0.00  0.00    +0.270 C 
ATOM     28  C   UNL     1     -10.957   2.519   7.356  0.00  0.00    +0.270 C 
ATOM     29  O   UNL     1     -10.671   2.567   5.954  0.00  0.00    -0.485 OA
ENDBRANCH  17  20
ENDBRANCH   6  16
BRANCH   5  30
ATOM     30  C   UNL     1      -4.482   0.148   0.233  0.00  0.00    +0.342 C 
ATOM     31  O   UNL     1      -5.078  -0.879  -0.029  0.00  0.00    -0.245 OA
BRANCH  30  32
ATOM     32  O   UNL     1      -4.688   1.255  -0.510  0.00  0.00    -0.464 OA
ATOM     33  C   UNL     1      -5.619   1.148  -1.589  0.00  0.00    +0.280 C 
ENDBRANCH  30  32
ENDBRANCH   5  30
TORSDOF 4
