REMARK  Name = ZINC63514874
REMARK  10 active torsions:
REMARK  status: ('A' for Active; 'I' for Inactive)
REMARK    1  A    between atoms: C_1  and  C_2
REMARK    2  A    between atoms: C_2  and  C_3
REMARK    3  A    between atoms: C_3  and  C_28
REMARK    4  A    between atoms: C_4  and  C_26
REMARK    5  A    between atoms: C_4  and  O_27
REMARK    6  A    between atoms: N_5  and  C_9
REMARK    7  A    between atoms: C_9  and  C_10
REMARK    8  A    between atoms: C_10  and  C_11
REMARK    9  A    between atoms: C_16  and  C_22
REMARK   10  A    between atoms: C_19  and  C_21
REMARK                            x       y       z     vdW  Elec       q    Type
REMARK                         _______ _______ _______ _____ _____    ______ ____
ROOT
ATOM      1  C   UNL     1      -3.164  -4.867  -1.596  0.00  0.00    -0.037 C 
ATOM      2  C   UNL     1      -2.930  -5.804  -2.543  0.00  0.00    -0.000 A 
ATOM      3  C   UNL     1      -1.938  -5.903  -3.621  0.00  0.00    +0.010 A 
ATOM      4  C   UNL     1      -1.953  -6.987  -4.428  0.00  0.00    +0.001 A 
ATOM      5  C   UNL     1      -2.890  -8.017  -4.263  0.00  0.00    +0.014 A 
ATOM      6  C   UNL     1      -3.832  -7.997  -3.296  0.00  0.00    +0.078 A 
ATOM      7  C   UNL     1      -3.908  -6.904  -2.389  0.00  0.00    +0.055 A 
ATOM      8  N   UNL     1      -4.715  -6.657  -1.386  0.00  0.00    -0.377 N 
ATOM      9  C   UNL     1      -4.336  -5.373  -0.786  0.00  0.00    +0.103 C 
ATOM     10  C   UNL     1      -5.503  -4.388  -0.875  0.00  0.00    +0.035 C 
ATOM     11  H   UNL     1      -5.439  -7.230  -1.088  0.00  0.00    +0.160 HD
ENDROOT
BRANCH   6  12
ATOM     12  C   UNL     1      -4.808  -9.139  -3.177  0.00  0.00    +0.419 C 
ATOM     13  F   UNL     1      -4.539 -10.088  -4.170  0.00  0.00    -0.166 F 
ATOM     14  F   UNL     1      -4.679  -9.734  -1.917  0.00  0.00    -0.166 F 
ATOM     15  F   UNL     1      -6.111  -8.657  -3.334  0.00  0.00    -0.166 F 
ENDBRANCH   6  12
BRANCH   1  16
ATOM     16  C   UNL     1      -2.406  -3.581  -1.387  0.00  0.00    +0.052 C 
BRANCH  16  17
ATOM     17  C   UNL     1      -1.296  -3.467  -2.434  0.00  0.00    +0.118 C 
BRANCH  17  20
ATOM     18  C   UNL     1       0.718  -0.497  -1.257  0.00  0.00    +0.157 C 
ATOM     19  C   UNL     1       0.630  -2.038  -1.375  0.00  0.00    +0.175 C 
ATOM     20  N   UNL     1      -0.559  -2.218  -2.231  0.00  0.00    -0.235 N 
ATOM     21  C   UNL     1      -0.845  -1.027  -2.791  0.00  0.00    +0.406 C 
ATOM     22  O   UNL     1      -1.791  -0.842  -3.531  0.00  0.00    -0.226 OA
ATOM     23  O   UNL     1       0.027  -0.065  -2.445  0.00  0.00    -0.439 OA
ATOM     24  C   UNL     1       1.879  -2.604  -2.052  0.00  0.00    +0.068 C 
ATOM     25  C   UNL     1       2.175  -0.030  -1.272  0.00  0.00    +0.060 C 
BRANCH  18  27
ATOM     26  C   UNL     1      -0.019   1.526   0.010  0.00  0.00    +0.008 C 
ATOM     27  C   UNL     1       0.002  -0.004   0.002  0.00  0.00    +0.049 C 
ENDBRANCH  18  27
BRANCH  19  28
ATOM     28  O   UNL     1       0.429  -2.635  -0.092  0.00  0.00    -0.368 OA
ATOM     29  H   UNL     1       0.367  -3.600  -0.114  0.00  0.00    +0.212 HD
ENDBRANCH  19  28
ENDBRANCH  17  20
ENDBRANCH  16  17
ENDBRANCH   1  16
TORSDOF 6
