REMARK  Name = ZINC59849619
REMARK  9 active torsions:
REMARK  status: ('A' for Active; 'I' for Inactive)
REMARK    1  A    between atoms: C_1  and  C_2
REMARK    2  A    between atoms: C_3  and  C_16
REMARK    3  A    between atoms: C_8  and  C_10
REMARK    4  A    between atoms: C_16  and  C_17
REMARK    5  A    between atoms: N_19  and  C_20
REMARK    6  A    between atoms: C_20  and  C_22
REMARK    7  A    between atoms: C_20  and  C_32
REMARK    8  A    between atoms: C_32  and  C_33
REMARK    9  A    between atoms: C_32  and  C_34
REMARK                            x       y       z     vdW  Elec       q    Type
REMARK                         _______ _______ _______ _____ _____    ______ ____
ROOT
ATOM      1  C   UNL     1      -2.999   0.165  -1.397  0.00  0.00    +0.218 C 
ATOM      2  O   UNL     1      -2.351  -0.279  -2.321  0.00  0.00    -0.275 OA
ATOM      3  N   UNL     1      -4.173   0.784  -1.633  0.00  0.00    -0.305 N 
ATOM      4  H   UNL     1      -4.691   1.139  -0.893  0.00  0.00    +0.149 HD
ENDROOT
BRANCH   1   5
ATOM      5  C   UNL     1      -2.492   0.024   0.015  0.00  0.00    +0.138 C 
BRANCH   5   8
ATOM      6  C   UNL     1      -0.018   1.503   0.010  0.00  0.00    +0.066 C 
ATOM      7  C   UNL     1       0.002  -0.004   0.002  0.00  0.00    +0.049 A 
ATOM      8  C   UNL     1      -1.170  -0.700   0.004  0.00  0.00    +0.047 A 
ATOM      9  C   UNL     1      -1.124  -2.110  -0.005  0.00  0.00    +0.256 A 
ATOM     10  O   UNL     1      -2.153  -2.765  -0.004  0.00  0.00    -0.267 OA
ATOM     11  N   UNL     1       0.081  -2.719  -0.014  0.00  0.00    -0.307 N 
ATOM     12  H   UNL     1       0.137  -3.687  -0.020  0.00  0.00    +0.170 HD
ATOM     13  C   UNL     1       1.217  -1.968  -0.015  0.00  0.00    +0.141 A 
ATOM     14  N   UNL     1       1.165  -0.653  -0.013  0.00  0.00    -0.234 NA
BRANCH  13  15
ATOM     15  C   UNL     1       2.534  -2.642  -0.026  0.00  0.00    +0.020 A 
ATOM     16  C   UNL     1       2.626  -4.038  -0.040  0.00  0.00    +0.031 A 
ATOM     17  C   UNL     1       3.876  -4.626  -0.050  0.00  0.00    +0.111 A 
ATOM     18  N   UNL     1       4.970  -3.891  -0.046  0.00  0.00    -0.263 NA
ATOM     19  C   UNL     1       4.928  -2.573  -0.032  0.00  0.00    +0.111 A 
ATOM     20  C   UNL     1       3.721  -1.902  -0.027  0.00  0.00    +0.031 A 
ENDBRANCH  13  15
ENDBRANCH   5   8
ENDBRANCH   1   5
BRANCH   3  21
ATOM     21  C   UNL     1      -4.666   0.922  -3.005  0.00  0.00    +0.141 C 
BRANCH  21  22
ATOM     22  C   UNL     1      -5.592   2.107  -3.090  0.00  0.00    +0.129 A 
ATOM     23  N   UNL     1      -5.837   2.979  -2.075  0.00  0.00    -0.340 N 
ATOM     24  H   UNL     1      -5.452   2.948  -1.185  0.00  0.00    +0.167 HD
ATOM     25  C   UNL     1      -6.734   3.917  -2.546  0.00  0.00    +0.066 A 
ATOM     26  C   UNL     1      -7.348   5.032  -1.991  0.00  0.00    +0.028 A 
ATOM     27  C   UNL     1      -8.220   5.780  -2.752  0.00  0.00    +0.002 A 
ATOM     28  C   UNL     1      -8.488   5.426  -4.067  0.00  0.00    +0.002 A 
ATOM     29  C   UNL     1      -7.893   4.333  -4.630  0.00  0.00    +0.030 A 
ATOM     30  C   UNL     1      -7.005   3.559  -3.877  0.00  0.00    +0.089 A 
ATOM     31  N   UNL     1      -6.271   2.449  -4.146  0.00  0.00    -0.231 NA
ENDBRANCH  21  22
BRANCH  21  32
ATOM     32  C   UNL     1      -5.423  -0.347  -3.405  0.00  0.00    +0.011 C 
ATOM     33  C   UNL     1      -4.482  -1.550  -3.319  0.00  0.00    +0.009 C 
ATOM     34  C   UNL     1      -6.605  -0.555  -2.456  0.00  0.00    +0.009 C 
ENDBRANCH  21  32
ENDBRANCH   3  21
TORSDOF 6
