REMARK  Name = ZINC63437319
REMARK  7 active torsions:
REMARK  status: ('A' for Active; 'I' for Inactive)
REMARK    1  A    between atoms: C_1  and  C_2
REMARK    2  A    between atoms: C_5  and  C_8
REMARK    3  A    between atoms: N_10  and  C_11
REMARK    4  A    between atoms: C_11  and  C_13
REMARK    5  A    between atoms: C_11  and  C_23
REMARK    6  A    between atoms: C_13  and  C_14
REMARK    7  A    between atoms: N_25  and  C_26
REMARK                            x       y       z     vdW  Elec       q    Type
REMARK                         _______ _______ _______ _____ _____    ______ ____
ROOT
ATOM      1  C   UNL     1      -1.582  -1.943   4.912  0.00  0.00    +0.163 C 
ENDROOT
BRANCH   1   4
ATOM      2  C   UNL     1      -1.369  -2.084   2.489  0.00  0.00    +0.217 C 
ATOM      3  O   UNL     1      -2.362  -1.395   2.391  0.00  0.00    -0.275 OA
ATOM      4  N   UNL     1      -0.896  -2.415   3.707  0.00  0.00    -0.303 N 
ATOM      5  H   UNL     1      -0.102  -2.966   3.785  0.00  0.00    +0.149 HD
BRANCH   2  10
ATOM      6  C   UNL     1       0.010   1.526   0.027  0.00  0.00    +0.007 C 
ATOM      7  C   UNL     1       0.024  -0.004   0.014  0.00  0.00    -0.014 C 
ATOM      8  C   UNL     1      -1.413  -0.527   0.022  0.00  0.00    +0.004 C 
ATOM      9  C   UNL     1      -1.399  -2.057   0.009  0.00  0.00    +0.013 C 
ATOM     10  C   UNL     1      -0.664  -2.570   1.249  0.00  0.00    +0.075 C 
ATOM     11  C   UNL     1       0.774  -2.047   1.242  0.00  0.00    +0.013 C 
ATOM     12  C   UNL     1       0.760  -0.517   1.254  0.00  0.00    +0.004 C 
ENDBRANCH   2  10
ENDBRANCH   1   4
BRANCH   1  13
ATOM     13  C   UNL     1      -2.707  -2.885   5.252  0.00  0.00    +0.238 C 
ATOM     14  O   UNL     1      -2.916  -3.857   4.556  0.00  0.00    -0.273 OA
ATOM     15  N   UNL     1      -3.481  -2.650   6.330  0.00  0.00    -0.283 N 
ATOM     16  H   UNL     1      -3.273  -1.912   6.924  0.00  0.00    +0.155 HD
BRANCH  15  17
ATOM     17  C   UNL     1      -4.586  -3.469   6.590  0.00  0.00    +0.052 A 
ATOM     18  C   UNL     1      -4.540  -4.830   6.301  0.00  0.00    +0.026 A 
ATOM     19  C   UNL     1      -5.657  -5.600   6.578  0.00  0.00    +0.021 A 
ATOM     20  C   UNL     1      -6.774  -4.997   7.127  0.00  0.00    +0.111 A 
ATOM     21  N   UNL     1      -6.786  -3.704   7.389  0.00  0.00    -0.261 NA
ATOM     22  C   UNL     1      -5.742  -2.937   7.146  0.00  0.00    +0.134 A 
ENDBRANCH  15  17
ENDBRANCH   1  13
BRANCH   1  23
ATOM     23  C   UNL     1      -0.590  -1.891   6.076  0.00  0.00    +0.065 C 
BRANCH  23  24
ATOM     24  C   UNL     1       0.469  -0.858   5.788  0.00  0.00    -0.039 C 
ATOM     25  C   UNL     1       0.481   0.430   6.201  0.00  0.00    -0.001 A 
ATOM     26  C   UNL     1      -0.452   1.224   7.009  0.00  0.00    +0.010 A 
ATOM     27  C   UNL     1      -0.162   2.521   7.260  0.00  0.00    +0.001 A 
ATOM     28  C   UNL     1       1.004   3.124   6.769  0.00  0.00    +0.002 A 
ATOM     29  C   UNL     1       1.909   2.459   6.020  0.00  0.00    +0.026 A 
ATOM     30  C   UNL     1       1.706   1.090   5.695  0.00  0.00    +0.043 A 
ATOM     31  N   UNL     1       2.423   0.243   4.997  0.00  0.00    -0.380 N 
ATOM     32  C   UNL     1       1.736  -1.054   4.986  0.00  0.00    +0.144 C 
ATOM     33  H   UNL     1       3.268   0.439   4.563  0.00  0.00    +0.160 HD
ENDBRANCH  23  24
ENDBRANCH   1  23
TORSDOF 6
