REMARK  Name = ZINC36207966
REMARK  12 active torsions:
REMARK  status: ('A' for Active; 'I' for Inactive)
REMARK    1  A    between atoms: C_1  and  C_2
REMARK    2  A    between atoms: C_5  and  C_9
REMARK    3  A    between atoms: C_6  and  C_8
REMARK    4  A    between atoms: C_18  and  C_20
REMARK    5  A    between atoms: C_20  and  N_21
REMARK    6  A    between atoms: N_21  and  C_22
REMARK    7  A    between atoms: N_21  and  C_34
REMARK    8  A    between atoms: C_22  and  C_23
REMARK    9  A    between atoms: C_23  and  C_25
REMARK   10  A    between atoms: C_23  and  O_33
REMARK   11  A    between atoms: C_25  and  O_26
REMARK   12  A    between atoms: O_26  and  C_27
REMARK                            x       y       z     vdW  Elec       q    Type
REMARK                         _______ _______ _______ _____ _____    ______ ____
ROOT
ATOM      1  C   UNL     1      -3.971  -6.955   7.584  0.00  0.00    +0.004 A 
ATOM      2  C   UNL     1      -3.585  -8.064   8.259  0.00  0.00    +0.056 A 
ATOM      3  S   UNL     1      -3.196  -9.222   6.961  0.00  0.00    -0.076 S 
ATOM      4  C   UNL     1      -3.557  -8.200   5.556  0.00  0.00    +0.116 A 
ATOM      5  C   UNL     1      -3.976  -6.987   6.126  0.00  0.00    +0.080 A 
ATOM      6  C   UNL     1      -4.342  -5.960   5.198  0.00  0.00    +0.260 A 
ATOM      7  O   UNL     1      -4.714  -4.870   5.597  0.00  0.00    -0.267 OA
ATOM      8  N   UNL     1      -4.268  -6.216   3.879  0.00  0.00    -0.312 N 
ATOM      9  H   UNL     1      -4.514  -5.524   3.246  0.00  0.00    +0.170 HD
ATOM     10  C   UNL     1      -3.854  -7.424   3.417  0.00  0.00    +0.094 A 
ATOM     11  N   UNL     1      -3.504  -8.378   4.239  0.00  0.00    -0.229 NA
ENDROOT
BRANCH   1  16
ATOM     12  C   UNL     1      -5.582  -2.207  10.416  0.00  0.00    +0.044 C 
ATOM     13  C   UNL     1      -5.160  -3.450   9.675  0.00  0.00    -0.050 A 
ATOM     14  C   UNL     1      -3.854  -3.897   9.766  0.00  0.00    +0.004 A 
ATOM     15  C   UNL     1      -3.462  -5.034   9.089  0.00  0.00    +0.009 A 
ATOM     16  C   UNL     1      -4.386  -5.733   8.313  0.00  0.00    -0.014 A 
ATOM     17  C   UNL     1      -5.700  -5.277   8.225  0.00  0.00    -0.042 A 
ATOM     18  C   UNL     1      -6.082  -4.142   8.911  0.00  0.00    +0.007 A 
ATOM     19  C   UNL     1      -6.705  -6.027   7.388  0.00  0.00    +0.044 C 
ENDBRANCH   1  16
BRANCH  10  20
ATOM     20  C   UNL     1      -3.787  -7.666   1.931  0.00  0.00    -0.003 C 
BRANCH  20  21
ATOM     21  N   UNL     1      -3.445  -9.072   1.678  0.00  0.00    +0.388 N 
ATOM     22  H   UNL     1      -2.605  -9.310   2.184  0.00  0.00    -0.081 HD
BRANCH  21  23
ATOM     23  C   UNL     1      -3.223  -9.271   0.240  0.00  0.00    -0.068 C 
ATOM     24  C   UNL     1      -1.873  -9.847  -0.193  0.00  0.00    -0.017 C 
ATOM     25  C   UNL     1      -2.191  -8.372  -0.446  0.00  0.00    -0.017 C 
ENDBRANCH  21  23
BRANCH  21  26
ATOM     26  C   UNL     1      -4.547  -9.932   2.127  0.00  0.00    -0.043 C 
BRANCH  26  27
ATOM     27  C   UNL     1      -4.141 -11.400   1.979  0.00  0.00    +0.135 C 
BRANCH  27  28
ATOM     28  O   UNL     1      -3.848 -11.677   0.609  0.00  0.00    -0.390 OA
ATOM     29  H   UNL     1      -4.591 -11.525   0.009  0.00  0.00    +0.210 HD
ENDBRANCH  27  28
BRANCH  27  30
ATOM     30  C   UNL     1      -5.290 -12.296   2.447  0.00  0.00    +0.258 C 
BRANCH  30  31
ATOM     31  O   UNL     1      -4.870 -13.662   2.419  0.00  0.00    -0.489 OA
BRANCH  31  32
ATOM     32  C   UNL     1      -5.779 -14.595   2.808  0.00  0.00    +0.121 A 
ATOM     33  C   UNL     1      -7.050 -14.204   3.202  0.00  0.00    +0.045 A 
ATOM     34  C   UNL     1      -7.972 -15.155   3.596  0.00  0.00    +0.004 A 
ATOM     35  C   UNL     1      -7.628 -16.494   3.598  0.00  0.00    +0.000 A 
ATOM     36  C   UNL     1      -6.362 -16.886   3.206  0.00  0.00    +0.004 A 
ATOM     37  C   UNL     1      -5.438 -15.940   2.805  0.00  0.00    +0.045 A 
ENDBRANCH  31  32
ENDBRANCH  30  31
ENDBRANCH  27  30
ENDBRANCH  26  27
ENDBRANCH  21  26
ENDBRANCH  20  21
ENDBRANCH  10  20
TORSDOF 10
