REMARK  Name = ZINC36303045
REMARK  17 active torsions:
REMARK  status: ('A' for Active; 'I' for Inactive)
REMARK    1  A    between atoms: C_1  and  C_2
REMARK    2  A    between atoms: C_2  and  C_3
REMARK    3  A    between atoms: C_4  and  C_22
REMARK    4  A    between atoms: C_5  and  O_14
REMARK    5  A    between atoms: N_6  and  C_8
REMARK    6  A    between atoms: O_14  and  C_15
REMARK    7  A    between atoms: C_18  and  C_21
REMARK    8  A    between atoms: C_22  and  N_23
REMARK    9  A    between atoms: N_23  and  C_24
REMARK   10  A    between atoms: N_23  and  C_28
REMARK   11  A    between atoms: C_24  and  C_25
REMARK   12  A    between atoms: C_25  and  O_26
REMARK   13  A    between atoms: O_26  and  C_27
REMARK   14  A    between atoms: C_28  and  C_29
REMARK   15  A    between atoms: C_29  and  C_31
REMARK   16  A    between atoms: C_29  and  O_38
REMARK   17  A    between atoms: C_31  and  C_32
REMARK                            x       y       z     vdW  Elec       q    Type
REMARK                         _______ _______ _______ _____ _____    ______ ____
ROOT
ATOM      1  C   UNL     1       1.125   0.114  -0.740  0.00  0.00    +0.068 A 
ATOM      2  C   UNL     1       0.062  -0.111  -1.621  0.00  0.00    +0.021 A 
ATOM      3  C   UNL     1       0.585  -0.470  -2.824  0.00  0.00    +0.225 A 
ATOM      4  N   UNL     1       1.939  -0.470  -2.696  0.00  0.00    -0.200 N 
ATOM      5  N   UNL     1       2.246  -0.095  -1.382  0.00  0.00    -0.168 NA
ENDROOT
BRANCH   4   6
ATOM      6  C   UNL     1       2.864  -0.784  -3.703  0.00  0.00    +0.069 A 
ATOM      7  C   UNL     1       2.622  -1.848  -4.561  0.00  0.00    +0.028 A 
ATOM      8  C   UNL     1       3.534  -2.155  -5.552  0.00  0.00    +0.002 A 
ATOM      9  C   UNL     1       4.688  -1.404  -5.688  0.00  0.00    +0.000 A 
ATOM     10  C   UNL     1       4.931  -0.345  -4.834  0.00  0.00    +0.002 A 
ATOM     11  C   UNL     1       4.019  -0.029  -3.846  0.00  0.00    +0.028 A 
ENDBRANCH   4   6
BRANCH   1  13
ATOM     12  C   UNL     1       0.999   2.059   0.793  0.00  0.00    +0.010 C 
ATOM     13  C   UNL     1       1.000   0.531   0.702  0.00  0.00    +0.054 C 
ENDBRANCH   1  13
BRANCH   3  14
ATOM     14  O   UNL     1      -0.116  -0.774  -3.945  0.00  0.00    -0.438 OA
BRANCH  14  15
ATOM     15  C   UNL     1      -0.578  -2.044  -4.084  0.00  0.00    +0.130 A 
ATOM     16  C   UNL     1      -0.432  -2.954  -3.046  0.00  0.00    +0.046 A 
ATOM     17  C   UNL     1      -0.903  -4.245  -3.190  0.00  0.00    +0.007 A 
ATOM     18  C   UNL     1      -1.520  -4.630  -4.366  0.00  0.00    -0.050 A 
ATOM     19  C   UNL     1      -1.667  -3.725  -5.401  0.00  0.00    +0.007 A 
ATOM     20  C   UNL     1      -1.203  -2.432  -5.261  0.00  0.00    +0.046 A 
ATOM     21  C   UNL     1      -2.033  -6.039  -4.520  0.00  0.00    +0.044 C 
ENDBRANCH  14  15
ENDBRANCH   3  14
BRANCH   2  22
ATOM     22  C   UNL     1      -1.403   0.022  -1.295  0.00  0.00    -0.036 C 
BRANCH  22  23
ATOM     23  N   UNL     1      -1.823   1.417  -1.488  0.00  0.00    +0.386 N 
ATOM     24  H   UNL     1      -1.223   2.026  -0.952  0.00  0.00    -0.081 HD
BRANCH  23  25
ATOM     25  C   UNL     1      -3.212   1.576  -1.036  0.00  0.00    -0.050 C 
BRANCH  25  26
ATOM     26  C   UNL     1      -3.289   1.332   0.472  0.00  0.00    +0.141 C 
BRANCH  26  27
ATOM     27  O   UNL     1      -2.513   2.319   1.154  0.00  0.00    -0.385 OA
ATOM     28  C   UNL     1      -2.518   2.181   2.577  0.00  0.00    +0.193 C 
ENDBRANCH  26  27
ENDBRANCH  25  26
ENDBRANCH  23  25
BRANCH  23  29
ATOM     29  C   UNL     1      -1.728   1.764  -2.912  0.00  0.00    -0.046 C 
BRANCH  29  30
ATOM     30  C   UNL     1      -2.046   3.249  -3.097  0.00  0.00    +0.102 C 
BRANCH  30  31
ATOM     31  O   UNL     1      -1.043   4.035  -2.448  0.00  0.00    -0.393 OA
ATOM     32  H   UNL     1      -0.149   3.890  -2.787  0.00  0.00    +0.210 HD
ENDBRANCH  30  31
BRANCH  30  33
ATOM     33  C   UNL     1      -2.069   3.584  -4.590  0.00  0.00    +0.064 C 
BRANCH  33  34
ATOM     34  C   UNL     1      -2.501   5.016  -4.777  0.00  0.00    -0.045 A 
ATOM     35  C   UNL     1      -3.842   5.320  -4.918  0.00  0.00    +0.004 A 
ATOM     36  C   UNL     1      -4.239   6.633  -5.089  0.00  0.00    +0.000 A 
ATOM     37  C   UNL     1      -3.294   7.642  -5.119  0.00  0.00    +0.000 A 
ATOM     38  C   UNL     1      -1.953   7.338  -4.977  0.00  0.00    +0.000 A 
ATOM     39  C   UNL     1      -1.557   6.025  -4.801  0.00  0.00    +0.004 A 
ENDBRANCH  33  34
ENDBRANCH  30  33
ENDBRANCH  29  30
ENDBRANCH  23  29
ENDBRANCH  22  23
ENDBRANCH   2  22
TORSDOF 14
