REMARK  Name = ZINC08877538
REMARK  9 active torsions:
REMARK  status: ('A' for Active; 'I' for Inactive)
REMARK    1  A    between atoms: C_1  and  C_2
REMARK    2  A    between atoms: C_2  and  C_3
REMARK    3  A    between atoms: C_3  and  C_4
REMARK    4  A    between atoms: C_11  and  O_21
REMARK    5  A    between atoms: C_17  and  C_19
REMARK    6  A    between atoms: C_17  and  C_20
REMARK    7  A    between atoms: O_21  and  C_22
REMARK    8  A    between atoms: C_22  and  C_23
REMARK    9  A    between atoms: C_28  and  C_31
REMARK                            x       y       z     vdW  Elec       q    Type
REMARK                         _______ _______ _______ _____ _____    ______ ____
ROOT
ATOM      1  C   UNL     1       0.053   1.042   2.431  0.00  0.00    -0.026 A 
ATOM      2  C   UNL     1      -0.227  -0.184   2.945  0.00  0.00    +0.096 A 
ATOM      3  C   UNL     1       0.545  -0.691   4.010  0.00  0.00    +0.337 A 
ATOM      4  O   UNL     1       0.288  -1.791   4.465  0.00  0.00    -0.245 OA
ATOM      5  O   UNL     1       1.559   0.021   4.532  0.00  0.00    -0.422 OA
ATOM      6  C   UNL     1       1.867   1.245   4.049  0.00  0.00    +0.149 A 
ATOM      7  C   UNL     1       1.127   1.785   2.982  0.00  0.00    +0.063 A 
ATOM      8  C   UNL     1       1.457   3.056   2.479  0.00  0.00    +0.136 A 
ATOM      9  C   UNL     1       2.507   3.755   3.034  0.00  0.00    +0.092 A 
ATOM     10  C   UNL     1       3.242   3.214   4.090  0.00  0.00    +0.131 A 
ATOM     11  C   UNL     1       2.916   1.970   4.601  0.00  0.00    +0.038 A 
ATOM     12  C   UNL     1       3.692   1.360   5.742  0.00  0.00    +0.046 C 
ATOM     13  C   UNL     1       5.033   2.079   5.901  0.00  0.00    +0.052 C 
ATOM     14  C   UNL     1       4.773   3.591   5.883  0.00  0.00    +0.105 C 
ATOM     15  O   UNL     1       4.269   3.945   4.595  0.00  0.00    -0.486 OA
ATOM     16  C   UNL     1       3.743   3.949   6.956  0.00  0.00    +0.055 C 
ATOM     17  C   UNL     1       6.079   4.342   6.151  0.00  0.00    +0.055 C 
ENDROOT
BRANCH   1  18
ATOM     18  C   UNL     1      -0.761   1.600   1.291  0.00  0.00    +0.036 C 
BRANCH  18  20
ATOM     19  C   UNL     1      -2.663   1.151  -0.266  0.00  0.00    +0.004 C 
ATOM     20  C   UNL     1      -1.887   0.624   0.943  0.00  0.00    +0.001 C 
ENDBRANCH  18  20
ENDBRANCH   1  18
BRANCH   8  21
ATOM     21  O   UNL     1       0.746   3.590   1.454  0.00  0.00    -0.482 OA
BRANCH  21  22
ATOM     22  C   UNL     1       1.055   4.934   1.081  0.00  0.00    +0.324 C 
BRANCH  22  23
ATOM     23  C   UNL     1       0.095   5.394   0.014  0.00  0.00    +0.253 C 
ATOM     24  O   UNL     1      -0.824   4.678  -0.324  0.00  0.00    -0.272 OA
ATOM     25  N   UNL     1       0.257   6.600  -0.565  0.00  0.00    -0.299 N 
ATOM     26  C   UNL     1       1.362   7.481  -0.162  0.00  0.00    +0.108 C 
ATOM     27  C   UNL     1       0.795   8.848   0.219  0.00  0.00    +0.032 C 
ATOM     28  C   UNL     1      -0.050   9.387  -0.937  0.00  0.00    +0.078 C 
ATOM     29  C   UNL     1      -1.218   8.435  -1.205  0.00  0.00    +0.032 C 
ATOM     30  C   UNL     1      -0.670   7.062  -1.606  0.00  0.00    +0.108 C 
BRANCH  28  31
ATOM     31  C   UNL     1      -0.585  10.749  -0.576  0.00  0.00    +0.214 C 
ATOM     32  O   UNL     1      -1.782  10.939  -0.536  0.00  0.00    -0.276 OA
ATOM     33  N   UNL     1       0.267  11.755  -0.296  0.00  0.00    -0.329 N 
ATOM     34  H   UNL     1       1.225  11.602  -0.328  0.00  0.00    +0.145 HD
ATOM     35  H   UNL     1      -0.077  12.631  -0.064  0.00  0.00    +0.145 HD
ENDBRANCH  28  31
ENDBRANCH  22  23
ENDBRANCH  21  22
ENDBRANCH   8  21
TORSDOF 6
