REMARK  Name = ZINC39658674
REMARK  8 active torsions:
REMARK  status: ('A' for Active; 'I' for Inactive)
REMARK    1  A    between atoms: C_4  and  C_7
REMARK    2  A    between atoms: C_7  and  S_8
REMARK    3  A    between atoms: S_8  and  C_9
REMARK    4  A    between atoms: C_9  and  C_10
REMARK    5  A    between atoms: C_10  and  N_11
REMARK    6  A    between atoms: C_12  and  C_14
REMARK    7  A    between atoms: C_25  and  C_27
REMARK    8  A    between atoms: C_30  and  C_32
REMARK                            x       y       z     vdW  Elec       q    Type
REMARK                         _______ _______ _______ _____ _____    ______ ____
ROOT
ATOM      1  C   UNL     1       9.681  -4.043   3.622  0.00  0.00    +0.100 C 
ATOM      2  C   UNL     1       9.442  -5.448   3.025  0.00  0.00    +0.121 C 
ATOM      3  N   UNL     1      10.420  -6.321   3.717  0.00  0.00    -0.294 N 
ATOM      4  C   UNL     1      10.420  -5.836   5.118  0.00  0.00    +0.115 C 
ATOM      5  C   UNL     1      10.323  -4.302   4.996  0.00  0.00    -0.004 C 
ATOM      6  C   UNL     1      11.714  -3.679   5.055  0.00  0.00    -0.010 C 
ATOM      7  C   UNL     1      12.309  -3.900   6.449  0.00  0.00    -0.082 C 
ATOM      8  N   UNL     1      11.434  -3.290   7.458  0.00  0.00    +0.379 N 
ATOM      9  C   UNL     1      10.127  -3.958   7.457  0.00  0.00    -0.082 C 
ATOM     10  C   UNL     1       9.440  -3.740   6.106  0.00  0.00    -0.010 C 
ATOM     11  C   UNL     1      11.145  -7.328   3.192  0.00  0.00    +0.282 C 
ATOM     12  O   UNL     1      11.912  -7.957   3.896  0.00  0.00    -0.267 OA
ATOM     13  H   UNL     1      11.858  -3.384   8.369  0.00  0.00    -0.086 HD
ATOM     14  H   UNL     1      11.310  -2.312   7.247  0.00  0.00    -0.086 HD
ENDROOT
BRANCH  11  15
ATOM     15  C   UNL     1      11.009  -7.665   1.772  0.00  0.00    +0.190 A 
ATOM     16  C   UNL     1      11.683  -8.668   1.111  0.00  0.00    +0.055 A 
ATOM     17  C   UNL     1      11.252  -8.636  -0.218  0.00  0.00    +0.051 A 
ATOM     18  C   UNL     1      10.341  -7.624  -0.321  0.00  0.00    +0.139 A 
ATOM     19  O   UNL     1      10.198  -7.050   0.886  0.00  0.00    -0.450 OA
BRANCH  18  20
ATOM     20  C   UNL     1       9.626  -7.230  -1.551  0.00  0.00    +0.052 A 
ATOM     21  C   UNL     1      10.334  -7.016  -2.736  0.00  0.00    +0.014 A 
ATOM     22  C   UNL     1       9.660  -6.649  -3.881  0.00  0.00    +0.001 A 
ATOM     23  C   UNL     1       8.285  -6.491  -3.861  0.00  0.00    +0.003 A 
ATOM     24  C   UNL     1       7.576  -6.701  -2.692  0.00  0.00    +0.039 A 
ATOM     25  C   UNL     1       8.236  -7.076  -1.537  0.00  0.00    +0.134 A 
ATOM     26  F   UNL     1       7.542  -7.286  -0.398  0.00  0.00    -0.205 F 
ENDBRANCH  18  20
ENDBRANCH  11  15
BRANCH   1  28
ATOM     27  N   UNL     1       8.343  -1.966   3.724  0.00  0.00    -0.314 N 
ATOM     28  C   UNL     1       8.374  -3.312   3.783  0.00  0.00    +0.218 C 
ATOM     29  O   UNL     1       7.349  -3.934   3.967  0.00  0.00    -0.275 OA
ATOM     30  H   UNL     1       9.162  -1.468   3.577  0.00  0.00    +0.149 HD
BRANCH  27  31
ATOM     31  C   UNL     1       7.072  -1.254   3.880  0.00  0.00    +0.115 C 
BRANCH  31  32
ATOM     32  C   UNL     1       7.314   0.252   3.772  0.00  0.00    +0.088 C 
BRANCH  32  33
ATOM     33  S   UNL     1       5.739   1.133   3.966  0.00  0.00    -0.155 S 
BRANCH  33  34
ATOM     34  C   UNL     1       6.194   2.883   3.814  0.00  0.00    +0.104 C 
BRANCH  34  38
ATOM     35  C   UNL     1       2.699   5.304   4.223  0.00  0.00    +0.000 A 
ATOM     36  C   UNL     1       3.441   4.968   5.339  0.00  0.00    +0.000 A 
ATOM     37  C   UNL     1       4.572   4.184   5.207  0.00  0.00    +0.004 A 
ATOM     38  C   UNL     1       4.960   3.736   3.958  0.00  0.00    -0.038 A 
ATOM     39  C   UNL     1       4.218   4.072   2.842  0.00  0.00    +0.004 A 
ATOM     40  C   UNL     1       3.087   4.857   2.974  0.00  0.00    +0.000 A 
ENDBRANCH  34  38
ENDBRANCH  33  34
ENDBRANCH  32  33
ENDBRANCH  31  32
ENDBRANCH  27  31
ENDBRANCH   1  28
TORSDOF 8
