REMARK  Name = ZINC09274026
REMARK  9 active torsions:
REMARK  status: ('A' for Active; 'I' for Inactive)
REMARK    1  A    between atoms: C_1  and  C_2
REMARK    2  A    between atoms: C_2  and  N_3
REMARK    3  A    between atoms: N_3  and  C_4
REMARK    4  A    between atoms: N_3  and  C_6
REMARK    5  A    between atoms: C_4  and  C_5
REMARK    6  A    between atoms: C_9  and  N_13
REMARK    7  A    between atoms: C_10  and  C_12
REMARK    8  A    between atoms: N_13  and  C_14
REMARK    9  A    between atoms: C_15  and  C_20
REMARK                            x       y       z     vdW  Elec       q    Type
REMARK                         _______ _______ _______ _____ _____    ______ ____
ROOT
ATOM      1  C   UNL     1      -5.950   3.669  -0.632  0.00  0.00    +0.094 C 
ATOM      2  C   UNL     1      -7.246   4.129  -0.894  0.00  0.00    +0.058 C 
ATOM      3  C   UNL     1      -7.569   2.913  -1.649  0.00  0.00    +0.237 C 
ATOM      4  O   UNL     1      -8.541   2.489  -2.243  0.00  0.00    -0.283 OA
ATOM      5  C   UNL     1      -6.196   2.426  -1.379  0.00  0.00    +0.248 C 
ATOM      6  O   UNL     1      -5.551   1.433  -1.655  0.00  0.00    -0.282 OA
ENDROOT
BRANCH   2   7
ATOM      7  C   UNL     1      -7.992   5.351  -0.549  0.00  0.00    -0.009 A 
ATOM      8  C   UNL     1      -7.379   6.356   0.208  0.00  0.00    +0.011 A 
ATOM      9  C   UNL     1      -8.076   7.499   0.529  0.00  0.00    +0.027 A 
ATOM     10  C   UNL     1      -9.388   7.656   0.103  0.00  0.00    +0.076 A 
ATOM     11  C   UNL     1     -10.008   6.657  -0.651  0.00  0.00    +0.143 A 
ATOM     12  C   UNL     1      -9.313   5.511  -0.982  0.00  0.00    +0.056 A 
ATOM     13  O   UNL     1     -11.294   6.826  -1.058  0.00  0.00    -0.481 OA
ATOM     14  C   UNL     1     -12.152   7.564  -0.184  0.00  0.00    +0.325 C 
ATOM     15  C   UNL     1     -11.448   8.815   0.279  0.00  0.00    +0.255 C 
ATOM     16  O   UNL     1     -12.085   9.818   0.521  0.00  0.00    -0.272 OA
ATOM     17  N   UNL     1     -10.105   8.814   0.422  0.00  0.00    -0.280 N 
ATOM     18  H   UNL     1      -9.644   9.605   0.742  0.00  0.00    +0.155 HD
ENDBRANCH   2   7
BRANCH   1  19
ATOM     19  N   UNL     1      -4.877   4.179   0.046  0.00  0.00    -0.311 N 
ATOM     20  H   UNL     1      -4.701   5.133   0.030  0.00  0.00    +0.152 HD
BRANCH  19  24
ATOM     21  C   UNL     1      -2.360   1.631   2.180  0.00  0.00    +0.030 A 
ATOM     22  C   UNL     1      -3.527   1.138   1.612  0.00  0.00    +0.025 A 
ATOM     23  C   UNL     1      -4.364   1.983   0.910  0.00  0.00    +0.025 A 
ATOM     24  C   UNL     1      -4.032   3.324   0.762  0.00  0.00    +0.034 A 
ATOM     25  C   UNL     1      -2.862   3.816   1.326  0.00  0.00    -0.028 A 
ATOM     26  C   UNL     1      -2.028   2.972   2.033  0.00  0.00    +0.028 A 
ATOM     27  C   UNL     1      -2.502   5.271   1.167  0.00  0.00    +0.046 C 
BRANCH  21  28
ATOM     28  N   UNL     1      -1.514   0.776   2.895  0.00  0.00    -0.330 N 
BRANCH  28  30
ATOM     29  C   UNL     1      -2.695  -0.821   4.322  0.00  0.00    +0.024 C 
ATOM     30  C   UNL     1      -1.864  -0.638   3.050  0.00  0.00    +0.102 C 
ENDBRANCH  28  30
BRANCH  28  31
ATOM     31  C   UNL     1      -0.277   1.294   3.484  0.00  0.00    +0.102 C 
ATOM     32  C   UNL     1       0.863   1.165   2.471  0.00  0.00    +0.024 C 
ENDBRANCH  28  31
ENDBRANCH  21  28
ENDBRANCH  19  24
ENDBRANCH   1  19
TORSDOF 6
