REMARK  Name = ZINC05212680
REMARK  10 active torsions:
REMARK  status: ('A' for Active; 'I' for Inactive)
REMARK    1  A    between atoms: C_1  and  C_2
REMARK    2  A    between atoms: C_3  and  C_31
REMARK    3  A    between atoms: N_9  and  C_28
REMARK    4  A    between atoms: C_10  and  S_12
REMARK    5  A    between atoms: S_12  and  C_13
REMARK    6  A    between atoms: C_13  and  C_14
REMARK    7  A    between atoms: N_16  and  C_17
REMARK    8  A    between atoms: C_22  and  C_27
REMARK    9  A    between atoms: C_24  and  C_26
REMARK   10  A    between atoms: C_28  and  C_29
REMARK                            x       y       z     vdW  Elec       q    Type
REMARK                         _______ _______ _______ _____ _____    ______ ____
ROOT
ATOM      1  C   UNL     1      -5.096   2.749   1.448  0.00  0.00    +0.045 C 
ATOM      2  C   UNL     1      -4.107   2.929   2.570  0.00  0.00    -0.026 A 
ATOM      3  C   UNL     1      -4.516   3.357   3.773  0.00  0.00    -0.008 A 
ATOM      4  S   UNL     1      -3.013   3.405   4.730  0.00  0.00    -0.073 S 
ATOM      5  C   UNL     1      -1.877   2.847   3.486  0.00  0.00    +0.117 A 
ATOM      6  C   UNL     1      -2.698   2.640   2.362  0.00  0.00    +0.075 A 
ATOM      7  C   UNL     1      -2.033   2.183   1.181  0.00  0.00    +0.263 A 
ATOM      8  O   UNL     1      -2.663   1.980   0.157  0.00  0.00    -0.267 OA
ATOM      9  N   UNL     1      -0.704   1.975   1.216  0.00  0.00    -0.283 N 
ATOM     10  C   UNL     1       0.018   2.202   2.351  0.00  0.00    +0.173 A 
ATOM     11  N   UNL     1      -0.568   2.627   3.452  0.00  0.00    -0.216 NA
ATOM     12  C   UNL     1      -5.913   3.713   4.212  0.00  0.00    +0.052 C 
ENDROOT
BRANCH  10  13
ATOM     13  S   UNL     1       1.758   1.923   2.345  0.00  0.00    -0.078 S 
BRANCH  13  14
ATOM     14  C   UNL     1       2.154   2.373   4.053  0.00  0.00    +0.173 C 
BRANCH  14  15
ATOM     15  C   UNL     1       3.634   2.207   4.286  0.00  0.00    +0.224 C 
ATOM     16  O   UNL     1       4.350   1.822   3.386  0.00  0.00    -0.275 OA
ATOM     17  N   UNL     1       4.162   2.487   5.494  0.00  0.00    -0.312 N 
ATOM     18  H   UNL     1       3.589   2.795   6.214  0.00  0.00    +0.149 HD
BRANCH  17  19
ATOM     19  C   UNL     1       5.600   2.325   5.720  0.00  0.00    +0.076 C 
ATOM     20  C   UNL     1       5.898   0.871   6.090  0.00  0.00    +0.022 C 
ATOM     21  C   UNL     1       5.137   0.502   7.365  0.00  0.00    +0.002 C 
ATOM     22  C   UNL     1       5.579   1.419   8.506  0.00  0.00    +0.003 C 
ATOM     23  C   UNL     1       5.281   2.874   8.137  0.00  0.00    -0.009 C 
ATOM     24  C   UNL     1       6.043   3.243   6.862  0.00  0.00    +0.009 C 
ATOM     25  C   UNL     1       5.745   4.697   6.493  0.00  0.00    +0.009 C 
ATOM     26  C   UNL     1       5.724   3.791   9.279  0.00  0.00    +0.008 C 
ENDBRANCH  17  19
ENDBRANCH  14  15
ENDBRANCH  13  14
ENDBRANCH  10  13
BRANCH   9  27
ATOM     27  C   UNL     1      -0.018   1.503   0.010  0.00  0.00    +0.154 C 
BRANCH  27  28
ATOM     28  C   UNL     1       0.002  -0.004   0.002  0.00  0.00    -0.013 C 
ATOM     29  C   UNL     1       1.140  -0.643  -0.111  0.00  0.00    +0.005 C 
ENDBRANCH  27  28
ENDBRANCH   9  27
TORSDOF 6
