REMARK  Name = ZINC32691968
REMARK  7 active torsions:
REMARK  status: ('A' for Active; 'I' for Inactive)
REMARK    1  A    between atoms: C_1  and  C_2
REMARK    2  A    between atoms: C_6  and  N_9
REMARK    3  A    between atoms: C_7  and  C_8
REMARK    4  A    between atoms: C_10  and  C_12
REMARK    5  A    between atoms: C_12  and  S_13
REMARK    6  A    between atoms: S_13  and  C_14
REMARK    7  A    between atoms: C_17  and  C_19
REMARK                            x       y       z     vdW  Elec       q    Type
REMARK                         _______ _______ _______ _____ _____    ______ ____
ROOT
ATOM      1  C   UNL     1       1.683   9.496   0.064  0.00  0.00    +0.278 A 
ATOM      2  N   UNL     1       0.372   9.427   0.084  0.00  0.00    -0.101 NA
ATOM      3  N   UNL     1       0.008   8.193   0.091  0.00  0.00    -0.106 NA
ATOM      4  C   UNL     1       1.071   7.425   0.076  0.00  0.00    +0.249 A 
ATOM      5  O   UNL     1       2.154   8.234   0.065  0.00  0.00    -0.411 OA
ENDROOT
BRANCH   4   6
ATOM      6  C   UNL     1       1.083   5.949   0.078  0.00  0.00    +0.039 A 
ATOM      7  C   UNL     1       2.310   5.260   0.062  0.00  0.00    +0.014 A 
ATOM      8  C   UNL     1       2.347   3.904   0.064  0.00  0.00    +0.009 A 
ATOM      9  C   UNL     1       1.148   3.167   0.082  0.00  0.00    -0.018 A 
ATOM     10  C   UNL     1       1.161   1.762   0.084  0.00  0.00    +0.008 A 
ATOM     11  C   UNL     1      -0.014   1.076   0.102  0.00  0.00    +0.001 A 
ATOM     12  C   UNL     1      -1.236   1.746   0.113  0.00  0.00    +0.001 A 
ATOM     13  C   UNL     1      -1.289   3.106   0.117  0.00  0.00    +0.008 A 
ATOM     14  C   UNL     1      -0.095   3.849   0.099  0.00  0.00    -0.017 A 
ATOM     15  C   UNL     1      -0.114   5.251   0.097  0.00  0.00    +0.021 A 
ENDBRANCH   4   6
BRANCH   1  16
ATOM     16  S   UNL     1       2.650  10.969   0.047  0.00  0.00    -0.056 S 
BRANCH  16  17
ATOM     17  C   UNL     1       1.332  12.210   0.066  0.00  0.00    +0.175 C 
BRANCH  17  19
ATOM     18  N   UNL     1       1.144  14.676   0.066  0.00  0.00    -0.285 N 
ATOM     19  C   UNL     1       1.940  13.589   0.055  0.00  0.00    +0.228 C 
ATOM     20  O   UNL     1       3.145  13.720   0.036  0.00  0.00    -0.275 OA
ATOM     21  H   UNL     1       0.052  14.560  -0.009  0.00  0.00    +0.155 HD
BRANCH  18  27
ATOM     22  C   UNL     1       0.832  19.517  -0.737  0.00  0.00    +0.044 C 
ATOM     23  C   UNL     1       1.576  18.317  -0.209  0.00  0.00    -0.046 A 
ATOM     24  C   UNL     1       2.816  18.479   0.383  0.00  0.00    +0.004 A 
ATOM     25  C   UNL     1       3.501  17.381   0.869  0.00  0.00    +0.002 A 
ATOM     26  C   UNL     1       2.950  16.119   0.766  0.00  0.00    +0.023 A 
ATOM     27  C   UNL     1       1.705  15.953   0.172  0.00  0.00    +0.037 A 
ATOM     28  C   UNL     1       1.022  17.058  -0.321  0.00  0.00    -0.026 A 
ATOM     29  C   UNL     1      -0.326  16.882  -0.972  0.00  0.00    +0.046 C 
ENDBRANCH  18  27
ENDBRANCH  17  19
ENDBRANCH  16  17
ENDBRANCH   1  16
TORSDOF 5
