REMARK  Name = ZINC43042501
REMARK  4 active torsions:
REMARK  status: ('A' for Active; 'I' for Inactive)
REMARK    1  A    between atoms: C_1  and  C_2
REMARK    2  A    between atoms: C_7  and  N_12
REMARK    3  A    between atoms: C_9  and  C_11
REMARK    4  A    between atoms: C_18  and  C_21
REMARK                            x       y       z     vdW  Elec       q    Type
REMARK                         _______ _______ _______ _____ _____    ______ ____
ROOT
ATOM      1  N   UNL     1      -0.613  -2.547   1.243  0.00  0.00    -0.296 N 
ATOM      2  C   UNL     1      -0.873  -3.776   1.732  0.00  0.00    +0.302 C 
ATOM      3  O   UNL     1       0.041  -4.498   2.080  0.00  0.00    -0.253 OA
ATOM      4  N   UNL     1      -2.147  -4.204   1.835  0.00  0.00    -0.286 N 
ATOM      5  C   UNL     1      -3.254  -3.391   1.313  0.00  0.00    +0.110 C 
ATOM      6  C   UNL     1      -4.283  -3.183   2.428  0.00  0.00    +0.032 C 
ATOM      7  C   UNL     1      -4.710  -4.544   2.984  0.00  0.00    +0.078 C 
ATOM      8  C   UNL     1      -3.493  -5.260   3.575  0.00  0.00    +0.032 C 
ATOM      9  C   UNL     1      -2.455  -5.494   2.468  0.00  0.00    +0.110 C 
ATOM     10  H   UNL     1      -1.335  -2.000   0.897  0.00  0.00    +0.151 HD
ENDROOT
BRANCH   1  16
ATOM     11  C   UNL     1      -0.022   1.527   0.010  0.00  0.00    +0.008 C 
ATOM     12  C   UNL     1       0.000  -0.003   0.002  0.00  0.00    -0.009 C 
ATOM     13  C   UNL     1       0.718  -0.496  -1.256  0.00  0.00    +0.003 C 
ATOM     14  C   UNL     1       0.740  -2.026  -1.265  0.00  0.00    +0.002 C 
ATOM     15  C   UNL     1       1.479  -2.532  -0.025  0.00  0.00    +0.022 C 
ATOM     16  C   UNL     1       0.761  -2.039   1.234  0.00  0.00    +0.078 C 
ATOM     17  C   UNL     1       0.740  -0.509   1.242  0.00  0.00    +0.009 C 
ATOM     18  C   UNL     1       0.022  -0.016   2.500  0.00  0.00    +0.009 C 
ENDBRANCH   1  16
BRANCH   7  19
ATOM     19  C   UNL     1      -5.747  -4.345   4.058  0.00  0.00    +0.219 C 
ATOM     20  O   UNL     1      -5.403  -4.119   5.199  0.00  0.00    -0.275 OA
ATOM     21  N   UNL     1      -7.058  -4.419   3.752  0.00  0.00    -0.301 N 
ATOM     22  C   UNL     1      -7.614  -4.589   2.402  0.00  0.00    +0.108 C 
ATOM     23  C   UNL     1      -9.151  -4.593   2.537  0.00  0.00    +0.020 C 
ATOM     24  C   UNL     1      -9.384  -3.858   3.883  0.00  0.00    +0.020 C 
ATOM     25  C   UNL     1      -8.171  -4.349   4.716  0.00  0.00    +0.108 C 
ENDBRANCH   7  19
TORSDOF 2
