REMARK  Name = ZINC31159863
REMARK  11 active torsions:
REMARK  status: ('A' for Active; 'I' for Inactive)
REMARK    1  A    between atoms: C_1  and  C_2
REMARK    2  A    between atoms: C_3  and  C_4
REMARK    3  A    between atoms: C_5  and  C_6
REMARK    4  A    between atoms: C_7  and  C_8
REMARK    5  A    between atoms: C_8  and  O_10
REMARK    6  A    between atoms: O_10  and  C_11
REMARK    7  A    between atoms: C_15  and  O_32
REMARK    8  A    between atoms: C_20  and  O_31
REMARK    9  A    between atoms: C_21  and  C_30
REMARK   10  A    between atoms: C_24  and  C_28
REMARK   11  A    between atoms: C_24  and  C_29
REMARK                            x       y       z     vdW  Elec       q    Type
REMARK                         _______ _______ _______ _____ _____    ______ ____
ROOT
ATOM      1  C   UNL     1       3.582   2.673  -1.153  0.00  0.00    +0.204 C 
ATOM      2  C   UNL     1       3.358   4.037  -0.555  0.00  0.00    +0.026 C 
ATOM      3  C   UNL     1       2.200   4.401  -0.122  0.00  0.00    +0.040 C 
ATOM      4  C   UNL     1       1.724   5.665   0.548  0.00  0.00    +0.339 C 
ATOM      5  O   UNL     1       0.595   5.253   1.378  0.00  0.00    -0.429 OA
ATOM      6  C   UNL     1       0.117   4.061   0.980  0.00  0.00    +0.347 C 
ATOM      7  O   UNL     1      -0.832   3.499   1.473  0.00  0.00    -0.247 OA
ATOM      8  C   UNL     1       0.936   3.557  -0.175  0.00  0.00    +0.195 C 
ATOM      9  C   UNL     1       1.380   2.092   0.001  0.00  0.00    +0.018 C 
ATOM     10  C   UNL     1       2.356   1.789  -1.125  0.00  0.00    +0.049 C 
ATOM     11  C   UNL     1       2.633   0.320  -1.367  0.00  0.00    -0.028 C 
ATOM     12  C   UNL     1       1.311  -0.450  -1.506  0.00  0.00    +0.007 C 
ATOM     13  C   UNL     1       0.466  -0.250  -0.251  0.00  0.00    +0.001 C 
ATOM     14  C   UNL     1       0.122   1.227  -0.096  0.00  0.00    +0.011 C 
ATOM     15  C   UNL     1       3.466  -0.350  -0.279  0.00  0.00    +0.011 C 
ATOM     16  C   UNL     1       3.386   0.165  -2.704  0.00  0.00    +0.011 C 
ATOM     17  C   UNL     1       2.017   1.940   1.383  0.00  0.00    +0.015 C 
ENDROOT
BRANCH   8  18
ATOM     18  O   UNL     1       0.246   3.737  -1.413  0.00  0.00    -0.373 OA
ATOM     19  H   UNL     1      -0.690   3.193  -1.605  0.00  0.00    +0.211 HD
ENDBRANCH   8  18
BRANCH   4  20
ATOM     20  O   UNL     1       1.304   6.619  -0.429  0.00  0.00    -0.354 OA
ATOM     21  H   UNL     1       0.925   7.601  -0.111  0.00  0.00    +0.214 HD
ENDBRANCH   4  20
BRANCH   1  22
ATOM     22  O   UNL     1       4.688   2.089  -0.476  0.00  0.00    -0.454 OA
BRANCH  22  23
ATOM     23  C   UNL     1       5.920   2.412  -0.923  0.00  0.00    +0.332 C 
ATOM     24  O   UNL     1       6.046   3.173  -1.865  0.00  0.00    -0.246 OA
BRANCH  23  26
ATOM     25  C   UNL     1       8.305   2.194  -0.747  0.00  0.00    +0.007 C 
ATOM     26  C   UNL     1       7.065   1.868  -0.297  0.00  0.00    +0.091 C 
BRANCH  25  28
ATOM     27  C   UNL     1      10.684   1.976  -0.572  0.00  0.00    -0.000 C 
ATOM     28  C   UNL     1       9.446   1.651  -0.123  0.00  0.00    +0.000 C 
BRANCH  27  31
ATOM     29  C   UNL     1      14.306   1.153   0.301  0.00  0.00    +0.035 C 
ATOM     30  C   UNL     1      13.086   1.733  -0.366  0.00  0.00    -0.030 C 
ATOM     31  C   UNL     1      11.867   1.413   0.076  0.00  0.00    -0.005 C 
ENDBRANCH  27  31
ENDBRANCH  25  28
ENDBRANCH  23  26
ENDBRANCH  22  23
ENDBRANCH   1  22
TORSDOF 7
