REMARK  Name = ZINC36203184
REMARK  11 active torsions:
REMARK  status: ('A' for Active; 'I' for Inactive)
REMARK    1  A    between atoms: C_1  and  C_2
REMARK    2  A    between atoms: C_7  and  C_8
REMARK    3  A    between atoms: C_8  and  N_9
REMARK    4  A    between atoms: N_9  and  C_10
REMARK    5  A    between atoms: N_9  and  C_30
REMARK    6  A    between atoms: C_10  and  C_11
REMARK    7  A    between atoms: C_14  and  C_16
REMARK    8  A    between atoms: C_16  and  C_17
REMARK    9  A    between atoms: C_16  and  C_23
REMARK   10  A    between atoms: C_16  and  O_29
REMARK   11  A    between atoms: C_30  and  C_31
REMARK                            x       y       z     vdW  Elec       q    Type
REMARK                         _______ _______ _______ _____ _____    ______ ____
ROOT
ATOM      1  C   UNL     1      -2.885   1.300   4.452  0.00  0.00    +0.089 A 
ATOM      2  C   UNL     1      -4.058   1.058   5.064  0.00  0.00    +0.043 A 
ATOM      3  C   UNL     1      -4.891   2.172   4.809  0.00  0.00    +0.048 A 
ATOM      4  C   UNL     1      -4.177   3.028   4.055  0.00  0.00    +0.146 A 
ATOM      5  O   UNL     1      -2.961   2.497   3.847  0.00  0.00    -0.463 OA
ENDROOT
BRANCH   1   6
ATOM      6  C   UNL     1      -1.687   0.386   4.450  0.00  0.00    -0.003 C 
BRANCH   6   7
ATOM      7  N   UNL     1      -1.766  -0.523   3.299  0.00  0.00    +0.389 N 
ATOM      8  H   UNL     1      -2.647  -1.014   3.318  0.00  0.00    -0.081 HD
BRANCH   7   9
ATOM      9  C   UNL     1      -0.664  -1.492   3.363  0.00  0.00    -0.042 C 
BRANCH   9  16
ATOM     10  C   UNL     1      -2.550  -3.678   3.267  0.00  0.00    +0.044 C 
ATOM     11  C   UNL     1      -1.749  -3.428   4.519  0.00  0.00    -0.049 A 
ATOM     12  C   UNL     1      -1.913  -4.248   5.620  0.00  0.00    +0.003 A 
ATOM     13  C   UNL     1      -1.178  -4.019   6.768  0.00  0.00    +0.000 A 
ATOM     14  C   UNL     1      -0.279  -2.970   6.816  0.00  0.00    +0.000 A 
ATOM     15  C   UNL     1      -0.115  -2.150   5.715  0.00  0.00    +0.002 A 
ATOM     16  C   UNL     1      -0.847  -2.382   4.565  0.00  0.00    -0.061 A 
ENDBRANCH   9  16
ENDBRANCH   7   9
BRANCH   7  17
ATOM     17  C   UNL     1      -1.665   0.252   2.055  0.00  0.00    -0.046 C 
BRANCH  17  18
ATOM     18  C   UNL     1      -1.890  -0.673   0.858  0.00  0.00    +0.102 C 
ATOM     19  C   UNL     1      -1.783   0.133  -0.455  0.00  0.00    +0.032 C 
ATOM     20  C   UNL     1      -2.913  -0.491  -1.318  0.00  0.00    +0.030 C 
ATOM     21  C   UNL     1      -3.967  -0.818  -0.231  0.00  0.00    +0.160 C 
ATOM     22  O   UNL     1      -3.207  -1.233   0.917  0.00  0.00    -0.378 OA
ENDBRANCH  17  18
ENDBRANCH   7  17
ENDBRANCH   6   7
ENDBRANCH   1   6
BRANCH   4  23
ATOM     23  C   UNL     1      -4.658   4.358   3.537  0.00  0.00    +0.174 C 
BRANCH  23  24
ATOM     24  C   UNL     1      -3.488   5.300   3.408  0.00  0.00    -0.004 A 
ATOM     25  C   UNL     1      -3.424   6.434   4.196  0.00  0.00    +0.007 A 
ATOM     26  C   UNL     1      -2.351   7.297   4.078  0.00  0.00    +0.000 A 
ATOM     27  C   UNL     1      -1.342   7.027   3.172  0.00  0.00    +0.000 A 
ATOM     28  C   UNL     1      -1.407   5.892   2.384  0.00  0.00    +0.000 A 
ATOM     29  C   UNL     1      -2.478   5.027   2.506  0.00  0.00    +0.007 A 
ENDBRANCH  23  24
BRANCH  23  30
ATOM     30  C   UNL     1      -5.302   4.169   2.188  0.00  0.00    -0.004 A 
ATOM     31  C   UNL     1      -4.726   3.322   1.260  0.00  0.00    +0.007 A 
ATOM     32  C   UNL     1      -5.316   3.148   0.022  0.00  0.00    +0.000 A 
ATOM     33  C   UNL     1      -6.483   3.822  -0.288  0.00  0.00    +0.000 A 
ATOM     34  C   UNL     1      -7.060   4.668   0.641  0.00  0.00    +0.000 A 
ATOM     35  C   UNL     1      -6.472   4.839   1.880  0.00  0.00    +0.007 A 
ENDBRANCH  23  30
BRANCH  23  36
ATOM     36  O   UNL     1      -5.613   4.907   4.448  0.00  0.00    -0.372 OA
ATOM     37  H   UNL     1      -5.267   5.056   5.338  0.00  0.00    +0.212 HD
ENDBRANCH  23  36
ENDBRANCH   4  23
TORSDOF 10
