REMARK  Name = ZINC12870454
REMARK  11 active torsions:
REMARK  status: ('A' for Active; 'I' for Inactive)
REMARK    1  A    between atoms: C_1  and  C_2
REMARK    2  A    between atoms: C_2  and  C_3
REMARK    3  A    between atoms: C_3  and  C_4
REMARK    4  A    between atoms: C_3  and  C_5
REMARK    5  A    between atoms: C_3  and  N_6
REMARK    6  A    between atoms: C_7  and  C_9
REMARK    7  A    between atoms: C_9  and  C_11
REMARK    8  A    between atoms: C_9  and  N_17
REMARK    9  A    between atoms: C_14  and  C_16
REMARK   10  A    between atoms: N_17  and  C_18
REMARK   11  A    between atoms: C_25  and  C_27
REMARK                            x       y       z     vdW  Elec       q    Type
REMARK                         _______ _______ _______ _____ _____    ______ ____
ROOT
ATOM      1  C   UNL     1      -2.438   1.897  -0.538  0.00  0.00    +0.233 C 
ENDROOT
BRANCH   1   2
ATOM      2  C   UNL     1      -2.552   1.556  -2.002  0.00  0.00    +0.135 A 
ATOM      3  C   UNL     1      -1.727   0.744  -2.686  0.00  0.00    +0.047 A 
ATOM      4  C   UNL     1      -2.201   0.706  -4.018  0.00  0.00    +0.045 A 
ATOM      5  C   UNL     1      -3.282   1.505  -4.069  0.00  0.00    +0.102 A 
ATOM      6  O   UNL     1      -3.490   2.017  -2.845  0.00  0.00    -0.462 OA
ATOM      7  C   UNL     1      -4.118   1.778  -5.293  0.00  0.00    +0.086 C 
ENDBRANCH   1   2
BRANCH   1   9
ATOM      8  N   UNL     1      -0.848   3.755  -0.912  0.00  0.00    -0.308 N 
ATOM      9  C   UNL     1      -2.018   3.337  -0.389  0.00  0.00    +0.242 C 
ATOM     10  O   UNL     1      -2.732   4.119   0.202  0.00  0.00    -0.273 OA
ATOM     11  H   UNL     1      -0.277   3.129  -1.385  0.00  0.00    +0.149 HD
BRANCH   8  12
ATOM     12  C   UNL     1      -0.442   5.155  -0.772  0.00  0.00    +0.029 C 
ATOM     13  C   UNL     1      -1.489   6.058  -1.427  0.00  0.00    +0.031 C 
ATOM     14  C   UNL     1      -0.323   5.506   0.713  0.00  0.00    +0.031 C 
BRANCH  12  16
ATOM     15  C   UNL     1       1.335   6.827  -1.309  0.00  0.00    +0.006 C 
ATOM     16  C   UNL     1       0.911   5.365  -1.455  0.00  0.00    +0.022 C 
ENDBRANCH  12  16
ENDBRANCH   8  12
ENDBRANCH   1   9
BRANCH   1  17
ATOM     17  N   UNL     1      -3.736   1.698   0.112  0.00  0.00    -0.247 N 
ATOM     18  C   UNL     1      -3.835   1.766   1.454  0.00  0.00    +0.273 C 
ATOM     19  O   UNL     1      -4.901   1.545   1.997  0.00  0.00    -0.268 OA
BRANCH  17  20
ATOM     20  C   UNL     1      -4.873   1.436  -0.661  0.00  0.00    +0.038 A 
ATOM     21  C   UNL     1      -5.710   2.477  -1.041  0.00  0.00    +0.025 A 
ATOM     22  C   UNL     1      -6.829   2.216  -1.808  0.00  0.00    +0.022 A 
ATOM     23  C   UNL     1      -7.121   0.919  -2.190  0.00  0.00    +0.041 A 
ATOM     24  C   UNL     1      -6.291  -0.121  -1.808  0.00  0.00    +0.022 A 
ATOM     25  C   UNL     1      -5.168   0.135  -1.046  0.00  0.00    +0.025 A 
ATOM     26 CL   UNL     1      -8.531   0.594  -3.149  0.00  0.00    -0.084 Cl
ENDBRANCH  17  20
BRANCH  18  27
ATOM     27  C   UNL     1      -2.653   2.111   2.264  0.00  0.00    +0.157 A 
ATOM     28  C   UNL     1      -2.698   2.304   3.637  0.00  0.00    +0.101 A 
ATOM     29  S   UNL     1      -1.038   2.669   3.974  0.00  0.00    +0.029 S 
ATOM     30  N   UNL     1      -0.449   2.565   2.514  0.00  0.00    -0.110 NA
ATOM     31  N   UNL     1      -1.436   2.261   1.754  0.00  0.00    -0.136 NA
ENDBRANCH  18  27
ENDBRANCH   1  17
TORSDOF 7
