REMARK  Name = ZINC12763069
REMARK  7 active torsions:
REMARK  status: ('A' for Active; 'I' for Inactive)
REMARK    1  A    between atoms: C_1  and  C_2
REMARK    2  A    between atoms: C_2  and  C_3
REMARK    3  A    between atoms: C_3  and  C_4
REMARK    4  A    between atoms: C_7  and  C_10
REMARK    5  A    between atoms: C_16  and  C_18
REMARK    6  A    between atoms: C_19  and  C_31
REMARK    7  A    between atoms: C_21  and  C_26
REMARK                            x       y       z     vdW  Elec       q    Type
REMARK                         _______ _______ _______ _____ _____    ______ ____
ROOT
ATOM      1  C   UNL     1      -0.786  -2.080  -1.326  0.00  0.00    +0.080 A 
ATOM      2  C   UNL     1       0.493  -2.563  -1.327  0.00  0.00    +0.076 A 
ATOM      3  S   UNL     1       1.413  -1.062  -1.012  0.00  0.00    -0.060 S 
ATOM      4  C   UNL     1       0.011   0.040  -0.901  0.00  0.00    +0.165 A 
ATOM      5  N   UNL     1      -0.994  -0.789  -1.112  0.00  0.00    -0.225 NA
ATOM      6  N   UNL     1      -0.014   1.408  -0.662  0.00  0.00    -0.260 N 
ATOM      7  C   UNL     1       1.138   2.080  -0.469  0.00  0.00    +0.257 C 
ATOM      8  O   UNL     1       2.192   1.475  -0.411  0.00  0.00    -0.270 OA
ATOM      9  H   UNL     1      -0.861   1.880  -0.638  0.00  0.00    +0.157 HD
ENDROOT
BRANCH   7  10
ATOM     10  C   UNL     1       1.121   3.541  -0.329  0.00  0.00    +0.122 A 
ATOM     11  C   UNL     1       2.312   4.261  -0.214  0.00  0.00    +0.058 A 
ATOM     12  N   UNL     1       2.276   5.577  -0.089  0.00  0.00    -0.231 NA
ATOM     13  C   UNL     1       1.129   6.241  -0.069  0.00  0.00    +0.177 A 
ATOM     14  N   UNL     1      -0.071   5.598  -0.178  0.00  0.00    -0.304 N 
ATOM     15  H   UNL     1      -0.897   6.107  -0.161  0.00  0.00    +0.170 HD
ATOM     16  C   UNL     1      -0.108   4.255  -0.314  0.00  0.00    +0.264 A 
ATOM     17  O   UNL     1      -1.171   3.669  -0.417  0.00  0.00    -0.267 OA
ATOM     18  C   UNL     1       3.635   3.540  -0.232  0.00  0.00    +0.066 C 
BRANCH  13  19
ATOM     19  C   UNL     1       1.150   7.697   0.072  0.00  0.00    +0.170 A 
ATOM     20  C   UNL     1       2.273   8.485   0.197  0.00  0.00    +0.053 A 
ATOM     21  C   UNL     1       1.823   9.809   0.301  0.00  0.00    +0.042 A 
ATOM     22  C   UNL     1       0.472   9.777   0.246  0.00  0.00    +0.196 A 
ATOM     23  O   UNL     1       0.071   8.507   0.109  0.00  0.00    -0.460 OA
ENDBRANCH  13  19
ENDBRANCH   7  10
BRANCH   1  27
ATOM     24  C   UNL     1      -4.068  -4.698  -1.999  0.00  0.00    -0.047 A 
ATOM     25  C   UNL     1      -4.295  -3.352  -1.778  0.00  0.00    +0.004 A 
ATOM     26  C   UNL     1      -3.233  -2.498  -1.558  0.00  0.00    +0.010 A 
ATOM     27  C   UNL     1      -1.931  -2.994  -1.560  0.00  0.00    +0.001 A 
ATOM     28  C   UNL     1      -1.708  -4.350  -1.790  0.00  0.00    +0.010 A 
ATOM     29  C   UNL     1      -2.777  -5.196  -2.003  0.00  0.00    +0.004 A 
BRANCH  24  30
ATOM     30  C   UNL     1      -5.231  -5.626  -2.238  0.00  0.00    +0.035 C 
BRANCH  30  32
ATOM     31  C   UNL     1      -6.713  -6.633  -3.980  0.00  0.00    +0.004 C 
ATOM     32  C   UNL     1      -5.532  -5.691  -3.737  0.00  0.00    +0.001 C 
ENDBRANCH  30  32
ENDBRANCH  24  30
ENDBRANCH   1  27
TORSDOF 5
