REMARK  Name = ZINC59170907
REMARK  6 active torsions:
REMARK  status: ('A' for Active; 'I' for Inactive)
REMARK    1  A    between atoms: C_1  and  C_2
REMARK    2  A    between atoms: C_2  and  O_3
REMARK    3  A    between atoms: O_3  and  C_4
REMARK    4  A    between atoms: N_12  and  C_13
REMARK    5  A    between atoms: C_20  and  C_22
REMARK    6  A    between atoms: C_22  and  N_24
REMARK                            x       y       z     vdW  Elec       q    Type
REMARK                         _______ _______ _______ _____ _____    ______ ____
ROOT
ATOM      1  C   UNL     1       0.549  -1.595   1.600  0.00  0.00    +0.164 A 
ATOM      2  C   UNL     1       0.117  -2.312   0.498  0.00  0.00    +0.064 A 
ATOM      3  C   UNL     1       0.435  -3.656   0.361  0.00  0.00    +0.022 A 
ATOM      4  C   UNL     1       1.185  -4.297   1.322  0.00  0.00    +0.027 A 
ATOM      5  C   UNL     1       1.629  -3.586   2.445  0.00  0.00    +0.023 A 
ATOM      6  C   UNL     1       1.313  -2.222   2.579  0.00  0.00    +0.179 A 
ATOM      7  O   UNL     1       1.754  -1.531   3.659  0.00  0.00    -0.435 OA
ATOM      8  C   UNL     1       1.969  -2.237   4.798  0.00  0.00    +0.209 A 
ATOM      9  N   UNL     1       1.623  -1.755   5.971  0.00  0.00    -0.325 N 
ATOM     10  C   UNL     1       2.604  -3.566   4.679  0.00  0.00    +0.064 A 
ATOM     11  C   UNL     1       2.422  -4.247   3.484  0.00  0.00    +0.027 A 
ATOM     12 BR   UNL     1      -0.166  -4.614  -1.155  0.00  0.00    -0.050 Br
ATOM     13  H   UNL     1       1.690  -2.310   6.764  0.00  0.00    +0.169 HD
ENDROOT
BRANCH   9  14
ATOM     14  C   UNL     1       1.166  -0.470   6.075  0.00  0.00    +0.042 A 
ATOM     15  C   UNL     1       1.823   0.564   5.404  0.00  0.00    +0.027 A 
ATOM     16  C   UNL     1       1.357   1.858   5.511  0.00  0.00    +0.022 A 
ATOM     17  C   UNL     1       0.241   2.133   6.283  0.00  0.00    +0.041 A 
ATOM     18  C   UNL     1      -0.415   1.113   6.951  0.00  0.00    +0.022 A 
ATOM     19  C   UNL     1       0.037  -0.186   6.847  0.00  0.00    +0.027 A 
ATOM     20 CL   UNL     1      -0.338   3.764   6.414  0.00  0.00    -0.084 Cl
ENDBRANCH   9  14
BRANCH  10  21
ATOM     21  C   UNL     1       3.387  -4.144   5.781  0.00  0.00    +0.082 C 
ATOM     22  S   UNL     1       3.719  -3.211   7.177  0.00  0.00    -0.035 S 
BRANCH  21  23
ATOM     23  N   UNL     1       3.843  -5.409   5.693  0.00  0.00    -0.352 N 
ATOM     24  H   UNL     1       3.655  -5.939   4.902  0.00  0.00    +0.143 HD
ATOM     25  H   UNL     1       4.360  -5.791   6.420  0.00  0.00    +0.143 HD
ENDBRANCH  21  23
ENDBRANCH  10  21
BRANCH   1  26
ATOM     26  O   UNL     1       0.233  -0.278   1.723  0.00  0.00    -0.489 OA
BRANCH  26  28
ATOM     27  C   UNL     1      -0.808   1.777   0.991  0.00  0.00    +0.048 C 
ATOM     28  C   UNL     1      -0.555   0.300   0.680  0.00  0.00    +0.226 C 
ENDBRANCH  26  28
ENDBRANCH   1  26
TORSDOF 5
