REMARK  Name = ZINC09337499
REMARK  8 active torsions:
REMARK  status: ('A' for Active; 'I' for Inactive)
REMARK    1  A    between atoms: C_1  and  C_2
REMARK    2  A    between atoms: C_2  and  C_27
REMARK    3  A    between atoms: N_5  and  C_9
REMARK    4  A    between atoms: C_9  and  C_10
REMARK    5  A    between atoms: N_12  and  C_13
REMARK    6  A    between atoms: N_12  and  C_14
REMARK    7  A    between atoms: C_14  and  C_15
REMARK    8  A    between atoms: C_20  and  N_21
REMARK                            x       y       z     vdW  Elec       q    Type
REMARK                         _______ _______ _______ _____ _____    ______ ____
ROOT
ATOM      1  C   UNL     1       1.093   7.983  -1.440  0.00  0.00    +0.047 C 
ATOM      2  C   UNL     1       1.212   7.415  -0.025  0.00  0.00    +0.135 C 
ATOM      3  C   UNL     1       2.416   8.001   0.686  0.00  0.00    +0.251 C 
ATOM      4  O   UNL     1       3.579   7.905   0.358  0.00  0.00    -0.272 OA
ATOM      5  N   UNL     1       1.924   8.653   1.758  0.00  0.00    -0.215 N 
ATOM      6  C   UNL     1       0.591   8.560   1.822  0.00  0.00    +0.310 C 
ATOM      7  O   UNL     1      -0.080   9.068   2.700  0.00  0.00    -0.252 OA
ATOM      8  N   UNL     1       0.075   7.844   0.807  0.00  0.00    -0.281 N 
ATOM      9  H   UNL     1      -0.862   7.649   0.653  0.00  0.00    +0.152 HD
ENDROOT
BRANCH   2  10
ATOM     10  C   UNL     1       1.302   5.911  -0.066  0.00  0.00    -0.015 A 
ATOM     11  C   UNL     1       2.553   5.298  -0.096  0.00  0.00    +0.007 A 
ATOM     12  C   UNL     1       2.669   3.942  -0.133  0.00  0.00    +0.009 A 
ATOM     13  C   UNL     1       1.511   3.146  -0.140  0.00  0.00    -0.018 A 
ATOM     14  C   UNL     1       1.590   1.743  -0.178  0.00  0.00    +0.008 A 
ATOM     15  C   UNL     1       0.448   1.004  -0.185  0.00  0.00    +0.001 A 
ATOM     16  C   UNL     1      -0.804   1.617  -0.160  0.00  0.00    +0.001 A 
ATOM     17  C   UNL     1      -0.919   2.972  -0.117  0.00  0.00    +0.008 A 
ATOM     18  C   UNL     1       0.238   3.769  -0.109  0.00  0.00    -0.018 A 
ATOM     19  C   UNL     1       0.159   5.171  -0.071  0.00  0.00    +0.014 A 
ENDBRANCH   2  10
BRANCH   5  20
ATOM     20  C   UNL     1       2.747   9.373   2.733  0.00  0.00    +0.213 C 
BRANCH  20  21
ATOM     21  C   UNL     1       2.910  10.805   2.292  0.00  0.00    +0.234 C 
ATOM     22  O   UNL     1       2.390  11.186   1.265  0.00  0.00    -0.274 OA
ATOM     23  N   UNL     1       3.634  11.661   3.040  0.00  0.00    -0.299 N 
ATOM     24  C   UNL     1       4.262  11.200   4.280  0.00  0.00    +0.132 C 
BRANCH  23  25
ATOM     25  C   UNL     1       3.793  13.053   2.611  0.00  0.00    +0.144 C 
BRANCH  25  26
ATOM     26  C   UNL     1       2.629  13.869   3.112  0.00  0.00    -0.009 A 
ATOM     27  C   UNL     1       1.701  13.300   3.962  0.00  0.00    +0.007 A 
ATOM     28  C   UNL     1       0.633  14.048   4.422  0.00  0.00    +0.000 A 
ATOM     29  C   UNL     1       0.491  15.368   4.034  0.00  0.00    +0.002 A 
ATOM     30  C   UNL     1       1.415  15.943   3.185  0.00  0.00    +0.023 A 
ATOM     31  C   UNL     1       2.492  15.196   2.724  0.00  0.00    +0.034 A 
BRANCH  31  32
ATOM     32  N   UNL     1       3.432  15.776   1.869  0.00  0.00    -0.330 N 
ATOM     33  C   UNL     1       4.083  16.927   2.507  0.00  0.00    +0.105 C 
ATOM     34  C   UNL     1       5.204  17.446   1.602  0.00  0.00    +0.019 C 
ATOM     35  C   UNL     1       4.614  17.854   0.250  0.00  0.00    +0.003 C 
ATOM     36  C   UNL     1       3.899  16.650  -0.371  0.00  0.00    +0.019 C 
ATOM     37  C   UNL     1       2.817  16.154   0.591  0.00  0.00    +0.105 C 
ENDBRANCH  31  32
ENDBRANCH  25  26
ENDBRANCH  23  25
ENDBRANCH  20  21
ENDBRANCH   5  20
TORSDOF 6
