REMARK  Name = ZINC64989836
REMARK  6 active torsions:
REMARK  status: ('A' for Active; 'I' for Inactive)
REMARK    1  A    between atoms: C_5  and  C_6
REMARK    2  A    between atoms: N_8  and  C_9
REMARK    3  A    between atoms: N_12  and  C_15
REMARK    4  A    between atoms: C_15  and  C_16
REMARK    5  A    between atoms: N_18  and  C_19
REMARK    6  A    between atoms: C_19  and  C_26
REMARK                            x       y       z     vdW  Elec       q    Type
REMARK                         _______ _______ _______ _____ _____    ______ ____
ROOT
ATOM      1  C   UNL     1      -2.424  -2.922   0.010  0.00  0.00    +0.070 C 
ATOM      2  C   UNL     1      -2.933  -3.090  -1.424  0.00  0.00    +0.004 C 
ATOM      3  C   UNL     1      -4.181  -3.976  -1.416  0.00  0.00    -0.076 C 
ATOM      4  N   UNL     1      -3.848  -5.291  -0.856  0.00  0.00    +0.385 N 
ATOM      5  C   UNL     1      -3.428  -5.145   0.543  0.00  0.00    -0.076 C 
ATOM      6  C   UNL     1      -2.151  -4.304   0.610  0.00  0.00    +0.004 C 
ATOM      7  H   UNL     1      -3.098  -5.703  -1.390  0.00  0.00    -0.081 HD
ENDROOT
BRANCH   1  10
ATOM      8  C   UNL     1      -1.242  -0.791   0.010  0.00  0.00    +0.245 C 
ATOM      9  O   UNL     1      -2.319  -0.227   0.024  0.00  0.00    -0.270 OA
ATOM     10  N   UNL     1      -1.187  -2.138   0.002  0.00  0.00    -0.309 N 
ATOM     11  H   UNL     1      -0.327  -2.588  -0.009  0.00  0.00    +0.149 HD
BRANCH   8  16
ATOM     12  C   UNL     1      -0.018   1.439   0.010  0.00  0.00    +0.020 A 
ATOM     13  C   UNL     1       1.189   2.041   0.002  0.00  0.00    +0.046 A 
ATOM     14  S   UNL     1       2.324   0.670  -0.017  0.00  0.00    -0.104 S 
ATOM     15  C   UNL     1       1.238  -0.610  -0.013  0.00  0.00    +0.058 A 
ATOM     16  C   UNL     1       0.002  -0.004   0.002  0.00  0.00    +0.044 A 
ENDBRANCH   8  16
ENDBRANCH   1  10
BRANCH   4  17
ATOM     17  C   UNL     1      -5.029  -6.163  -0.922  0.00  0.00    +0.019 C 
BRANCH  17  18
ATOM     18  C   UNL     1      -4.657  -7.548  -0.462  0.00  0.00    +0.198 C 
ATOM     19  O   UNL     1      -3.520  -7.787  -0.113  0.00  0.00    -0.278 OA
ATOM     20  N   UNL     1      -5.588  -8.523  -0.438  0.00  0.00    -0.299 N 
ATOM     21  H   UNL     1      -6.497  -8.333  -0.717  0.00  0.00    +0.150 HD
BRANCH  20  22
ATOM     22  C   UNL     1      -5.226  -9.870   0.010  0.00  0.00    +0.121 C 
ATOM     23  C   UNL     1      -4.068 -10.393  -0.865  0.00  0.00    +0.041 C 
ATOM     24  C   UNL     1      -3.370 -11.500  -0.122  0.00  0.00    +0.003 C 
ATOM     25  C   UNL     1      -3.906 -12.894  -0.500  0.00  0.00    +0.000 C 
ATOM     26  C   UNL     1      -5.441 -12.929  -0.630  0.00  0.00    +0.000 C 
ATOM     27  C   UNL     1      -6.129 -12.149   0.458  0.00  0.00    +0.003 C 
ATOM     28  C   UNL     1      -6.404 -10.723  -0.060  0.00  0.00    +0.041 C 
BRANCH  22  29
ATOM     29  C   UNL     1      -4.771  -9.801   1.408  0.00  0.00    +0.088 C 
ATOM     30  N   UNL     1      -4.419  -9.748   2.487  0.00  0.00    -0.194 NA
ENDBRANCH  22  29
ENDBRANCH  20  22
ENDBRANCH  17  18
ENDBRANCH   4  17
TORSDOF 6
