REMARK  Name = ZINC12926832
REMARK  10 active torsions:
REMARK  status: ('A' for Active; 'I' for Inactive)
REMARK    1  A    between atoms: C_1  and  C_2
REMARK    2  A    between atoms: C_3  and  C_33
REMARK    3  A    between atoms: C_11  and  C_13
REMARK    4  A    between atoms: C_13  and  C_14
REMARK    5  A    between atoms: N_16  and  C_17
REMARK    6  A    between atoms: C_17  and  C_18
REMARK    7  A    between atoms: C_18  and  C_20
REMARK    8  A    between atoms: C_18  and  N_28
REMARK    9  A    between atoms: C_23  and  O_26
REMARK   10  A    between atoms: O_26  and  C_27
REMARK                            x       y       z     vdW  Elec       q    Type
REMARK                         _______ _______ _______ _____ _____    ______ ____
ROOT
ATOM      1  C   UNL     1      -1.394  -6.725   2.570  0.00  0.00    +0.220 C 
ATOM      2  O   UNL     1      -0.710  -5.756   2.316  0.00  0.00    -0.275 OA
ATOM      3  N   UNL     1      -1.098  -7.500   3.632  0.00  0.00    -0.316 N 
ATOM      4  H   UNL     1      -1.645  -8.274   3.836  0.00  0.00    +0.149 HD
ENDROOT
BRANCH   1   5
ATOM      5  C   UNL     1      -2.576  -7.062   1.698  0.00  0.00    +0.170 C 
BRANCH   5  16
ATOM      6  C   UNL     1      -3.838  -3.051  -3.524  0.00  0.00    +0.045 C 
ATOM      7  C   UNL     1      -2.823  -3.131  -2.413  0.00  0.00    -0.026 A 
ATOM      8  C   UNL     1      -1.849  -2.212  -2.316  0.00  0.00    -0.008 A 
ATOM      9  S   UNL     1      -0.933  -2.731  -0.877  0.00  0.00    -0.073 S 
ATOM     10  C   UNL     1      -1.885  -4.166  -0.449  0.00  0.00    +0.116 A 
ATOM     11  C   UNL     1      -2.890  -4.198  -1.432  0.00  0.00    +0.075 A 
ATOM     12  C   UNL     1      -3.826  -5.277  -1.325  0.00  0.00    +0.260 A 
ATOM     13  O   UNL     1      -4.732  -5.394  -2.134  0.00  0.00    -0.267 OA
ATOM     14  N   UNL     1      -3.691  -6.161  -0.319  0.00  0.00    -0.310 N 
ATOM     15  H   UNL     1      -4.321  -6.894  -0.242  0.00  0.00    +0.170 HD
ATOM     16  C   UNL     1      -2.688  -6.048   0.590  0.00  0.00    +0.120 A 
ATOM     17  N   UNL     1      -1.813  -5.080   0.514  0.00  0.00    -0.226 NA
ATOM     18  C   UNL     1      -1.592  -1.026  -3.209  0.00  0.00    +0.052 C 
ENDBRANCH   5  16
ENDBRANCH   1   5
BRANCH   3  19
ATOM     19  C   UNL     1       0.051  -7.172   4.480  0.00  0.00    +0.093 C 
BRANCH  19  20
ATOM     20  C   UNL     1       0.102  -8.137   5.666  0.00  0.00    -0.020 C 
BRANCH  20  21
ATOM     21  C   UNL     1       0.376  -9.532   5.167  0.00  0.00    -0.059 A 
ATOM     22  C   UNL     1       1.668  -9.912   4.853  0.00  0.00    +0.005 A 
ATOM     23  C   UNL     1       1.922 -11.190   4.394  0.00  0.00    +0.046 A 
ATOM     24  C   UNL     1       0.879 -12.093   4.250  0.00  0.00    +0.120 A 
ATOM     25  C   UNL     1      -0.416 -11.710   4.565  0.00  0.00    +0.046 A 
ATOM     26  C   UNL     1      -0.664 -10.432   5.028  0.00  0.00    +0.005 A 
BRANCH  24  27
ATOM     27  O   UNL     1       1.126 -13.351   3.798  0.00  0.00    -0.495 OA
ATOM     28  C   UNL     1       0.004 -14.228   3.674  0.00  0.00    +0.277 C 
ENDBRANCH  24  27
ENDBRANCH  20  21
BRANCH  20  29
ATOM     29  N   UNL     1       1.172  -7.727   6.585  0.00  0.00    +0.385 N 
ATOM     30  C   UNL     1       0.880  -6.382   7.144  0.00  0.00    -0.078 C 
ATOM     31  C   UNL     1       1.724  -6.347   8.443  0.00  0.00    -0.020 C 
ATOM     32  C   UNL     1       1.602  -7.794   8.974  0.00  0.00    -0.020 C 
ATOM     33  C   UNL     1       1.226  -8.643   7.746  0.00  0.00    -0.078 C 
ATOM     34  H   UNL     1       2.060  -7.720   6.106  0.00  0.00    -0.081 HD
ENDBRANCH  20  29
ENDBRANCH  19  20
ENDBRANCH   3  19
TORSDOF 7
