REMARK  Name = ZINC08891699
REMARK  8 active torsions:
REMARK  status: ('A' for Active; 'I' for Inactive)
REMARK    1  A    between atoms: C_1  and  C_2
REMARK    2  A    between atoms: C_2  and  C_3
REMARK    3  A    between atoms: C_3  and  C_26
REMARK    4  A    between atoms: N_6  and  C_10
REMARK    5  A    between atoms: C_10  and  C_11
REMARK    6  A    between atoms: N_13  and  C_14
REMARK    7  A    between atoms: N_13  and  C_16
REMARK    8  A    between atoms: C_14  and  C_15
REMARK                            x       y       z     vdW  Elec       q    Type
REMARK                         _______ _______ _______ _____ _____    ______ ____
ROOT
ATOM      1  C   UNL     1      -5.193   2.064  -4.554  0.00  0.00    +0.138 C 
ATOM      2  C   UNL     1      -4.536   2.261  -3.202  0.00  0.00    +0.251 C 
ATOM      3  O   UNL     1      -3.889   3.218  -2.835  0.00  0.00    -0.272 OA
ATOM      4  N   UNL     1      -4.819   1.150  -2.494  0.00  0.00    -0.215 N 
ATOM      5  C   UNL     1      -5.561   0.290  -3.201  0.00  0.00    +0.310 C 
ATOM      6  O   UNL     1      -5.945  -0.781  -2.773  0.00  0.00    -0.252 OA
ATOM      7  N   UNL     1      -5.836   0.744  -4.437  0.00  0.00    -0.281 N 
ATOM      8  H   UNL     1      -6.356   0.290  -5.119  0.00  0.00    +0.152 HD
ENDROOT
BRANCH   1   9
ATOM      9  C   UNL     1      -4.162   2.056  -5.653  0.00  0.00    -0.015 A 
ATOM     10  C   UNL     1      -3.884   3.218  -6.348  0.00  0.00    +0.009 A 
ATOM     11  C   UNL     1      -2.935   3.213  -7.352  0.00  0.00    +0.039 A 
ATOM     12  C   UNL     1      -2.270   2.041  -7.670  0.00  0.00    +0.123 A 
ATOM     13  C   UNL     1      -2.553   0.876  -6.977  0.00  0.00    +0.039 A 
ATOM     14  C   UNL     1      -3.498   0.885  -5.969  0.00  0.00    +0.009 A 
ATOM     15  F   UNL     1      -1.346   2.034  -8.656  0.00  0.00    -0.205 F 
ENDBRANCH   1   9
BRANCH   1  17
ATOM     16  C   UNL     1      -7.239   3.173  -3.646  0.00  0.00    +0.007 C 
ATOM     17  C   UNL     1      -6.239   3.152  -4.803  0.00  0.00    +0.037 C 
ENDBRANCH   1  17
BRANCH   4  18
ATOM     18  C   UNL     1      -4.373   0.915  -1.118  0.00  0.00    +0.214 C 
BRANCH  18  19
ATOM     19  C   UNL     1      -3.038   0.215  -1.135  0.00  0.00    +0.238 C 
ATOM     20  O   UNL     1      -2.511  -0.060  -2.192  0.00  0.00    -0.274 OA
ATOM     21  N   UNL     1      -2.430  -0.105   0.024  0.00  0.00    -0.270 N 
BRANCH  21  22
ATOM     22  C   UNL     1      -1.194  -0.753   0.009  0.00  0.00    +0.044 A 
ATOM     23  C   UNL     1      -1.131  -2.129   0.001  0.00  0.00    +0.024 A 
ATOM     24  C   UNL     1       0.097  -2.785  -0.015  0.00  0.00    +0.002 A 
ATOM     25  C   UNL     1       1.266  -2.088  -0.021  0.00  0.00    +0.008 A 
ATOM     26  C   UNL     1       1.246  -0.683  -0.013  0.00  0.00    -0.016 A 
ATOM     27  C   UNL     1       0.002  -0.004   0.002  0.00  0.00    +0.004 A 
ATOM     28  C   UNL     1      -0.017   1.399   0.010  0.00  0.00    +0.010 A 
ATOM     29  C   UNL     1       1.157   2.090   0.002  0.00  0.00    +0.001 A 
ATOM     30  C   UNL     1       2.380   1.423  -0.012  0.00  0.00    +0.001 A 
ATOM     31  C   UNL     1       2.437   0.063  -0.020  0.00  0.00    +0.008 A 
ENDBRANCH  21  22
BRANCH  21  32
ATOM     32  C   UNL     1      -3.067   0.228   1.301  0.00  0.00    +0.110 C 
ATOM     33  C   UNL     1      -2.619   1.621   1.747  0.00  0.00    +0.025 C 
ENDBRANCH  21  32
ENDBRANCH  18  19
ENDBRANCH   4  18
TORSDOF 6
