REMARK  Name = ZINC64428454
REMARK  5 active torsions:
REMARK  status: ('A' for Active; 'I' for Inactive)
REMARK    1  A    between atoms: C_1  and  O_2
REMARK    2  A    between atoms: O_2  and  C_3
REMARK    3  A    between atoms: N_11  and  C_12
REMARK    4  A    between atoms: C_12  and  C_13
REMARK    5  A    between atoms: N_15  and  C_16
REMARK                            x       y       z     vdW  Elec       q    Type
REMARK                         _______ _______ _______ _____ _____    ______ ____
ROOT
ATOM      1  C   UNL     1      -3.702  -5.391  -1.401  0.00  0.00    +0.237 C 
ATOM      2  O   UNL     1      -3.181  -4.810  -2.330  0.00  0.00    -0.274 OA
ATOM      3  N   UNL     1      -4.688  -6.280  -1.631  0.00  0.00    -0.284 N 
ATOM      4  H   UNL     1      -5.055  -6.797  -0.897  0.00  0.00    +0.155 HD
ENDROOT
BRANCH   3   5
ATOM      5  C   UNL     1      -5.178  -6.455  -2.917  0.00  0.00    +0.034 C 
ATOM      6  C   UNL     1      -6.519  -6.271  -3.176  0.00  0.00    +0.029 C 
ATOM      7  C   UNL     1      -6.891  -6.418  -4.517  0.00  0.00    -0.016 C 
ATOM      8  C   UNL     1      -8.026  -6.837  -5.112  0.00  0.00    +0.025 C 
ATOM      9  C   UNL     1      -7.779  -7.067  -6.479  0.00  0.00    +0.106 C 
ATOM     10  N   UNL     1      -6.567  -6.728  -6.825  0.00  0.00    -0.279 NA
ATOM     11  C   UNL     1      -5.928  -6.135  -5.659  0.00  0.00    +0.158 C 
ATOM     12  C   UNL     1      -4.600  -6.725  -5.292  0.00  0.00    +0.006 C 
ATOM     13  C   UNL     1      -4.271  -6.831  -4.004  0.00  0.00    +0.021 C 
ENDBRANCH   3   5
BRANCH   1  14
ATOM     14  C   UNL     1      -3.246  -5.118   0.009  0.00  0.00    +0.217 C 
BRANCH  14  23
ATOM     15  C   UNL     1      -0.963  -0.770  -0.061  0.00  0.00    +0.129 A 
ATOM     16  C   UNL     1      -2.101   0.013  -0.071  0.00  0.00    +0.046 A 
ATOM     17  C   UNL     1      -3.357  -0.577  -0.060  0.00  0.00    +0.006 A 
ATOM     18  C   UNL     1      -3.490  -1.948  -0.039  0.00  0.00    +0.026 A 
ATOM     19  C   UNL     1      -2.359  -2.758  -0.029  0.00  0.00    +0.053 A 
ATOM     20  C   UNL     1      -1.084  -2.165  -0.046  0.00  0.00    +0.041 A 
ATOM     21  C   UNL     1      -0.122  -3.270  -0.037  0.00  0.00    +0.031 A 
ATOM     22  C   UNL     1      -0.833  -4.409  -0.022  0.00  0.00    +0.087 A 
ATOM     23  N   UNL     1      -2.172  -4.122  -0.009  0.00  0.00    -0.338 N 
BRANCH  15  25
ATOM     24  C   UNL     1       0.310   1.237  -0.088  0.00  0.00    +0.277 C 
ATOM     25  O   UNL     1       0.266  -0.191  -0.072  0.00  0.00    -0.494 OA
ENDBRANCH  15  25
ENDBRANCH  14  23
ENDBRANCH   1  14
TORSDOF 4
