REMARK  Name = ZINC29412042
REMARK  17 active torsions:
REMARK  status: ('A' for Active; 'I' for Inactive)
REMARK    1  A    between atoms: C_1  and  C_2
REMARK    2  A    between atoms: C_2  and  N_3
REMARK    3  A    between atoms: N_3  and  C_4
REMARK    4  A    between atoms: C_4  and  C_5
REMARK    5  A    between atoms: C_5  and  O_6
REMARK    6  A    between atoms: C_7  and  C_9
REMARK    7  A    between atoms: C_15  and  C_27
REMARK    8  A    between atoms: C_16  and  C_19
REMARK    9  A    between atoms: C_21  and  C_26
REMARK   10  A    between atoms: C_23  and  C_25
REMARK   11  A    between atoms: C_27  and  C_28
REMARK   12  A    between atoms: C_28  and  N_29
REMARK   13  A    between atoms: N_29  and  C_30
REMARK   14  A    between atoms: C_30  and  C_31
REMARK   15  A    between atoms: C_31  and  C_32
REMARK   16  A    between atoms: C_32  and  C_33
REMARK   17  A    between atoms: C_33  and  C_34
REMARK                            x       y       z     vdW  Elec       q    Type
REMARK                         _______ _______ _______ _____ _____    ______ ____
ROOT
ATOM      1  C   UNL     1       2.689   3.047  -8.837  0.00  0.00    +0.038 A 
ATOM      2  C   UNL     1       2.640   2.279 -10.009  0.00  0.00    +0.015 A 
ATOM      3  C   UNL     1       2.014   1.068 -10.022  0.00  0.00    +0.027 A 
ATOM      4  C   UNL     1       1.399   0.583  -8.870  0.00  0.00    +0.047 A 
ATOM      5  C   UNL     1       1.437   1.347  -7.685  0.00  0.00    +0.004 A 
ATOM      6  C   UNL     1       2.087   2.581  -7.673  0.00  0.00    +0.023 A 
ATOM      7  C   UNL     1       0.718   0.573  -6.674  0.00  0.00    -0.016 A 
ATOM      8  C   UNL     1       0.293  -0.564  -7.279  0.00  0.00    +0.051 A 
ATOM      9  N   UNL     1       0.696  -0.566  -8.594  0.00  0.00    -0.354 N 
ATOM     10  H   UNL     1       0.536  -1.315  -9.383  0.00  0.00    +0.166 HD
ENDROOT
BRANCH   8  11
ATOM     11  C   UNL     1      -0.486  -1.637  -6.624  0.00  0.00    -0.001 A 
ATOM     12  C   UNL     1      -0.070  -2.157  -5.398  0.00  0.00    +0.013 A 
ATOM     13  C   UNL     1      -0.804  -3.155  -4.790  0.00  0.00    -0.050 A 
ATOM     14  C   UNL     1      -1.944  -3.647  -5.399  0.00  0.00    +0.006 A 
ATOM     15  C   UNL     1      -2.360  -3.140  -6.618  0.00  0.00    -0.050 A 
ATOM     16  C   UNL     1      -1.637  -2.139  -7.233  0.00  0.00    +0.013 A 
ATOM     17  C   UNL     1      -3.603  -3.683  -7.274  0.00  0.00    +0.044 C 
ATOM     18  C   UNL     1      -0.359  -3.714  -3.463  0.00  0.00    +0.044 C 
ENDBRANCH   8  11
BRANCH   1  20
ATOM     19  N   UNL     1       4.430   4.557  -9.659  0.00  0.00    -0.296 N 
ATOM     20  C   UNL     1       3.381   4.351  -8.838  0.00  0.00    +0.247 C 
ATOM     21  O   UNL     1       3.005   5.240  -8.099  0.00  0.00    -0.270 OA
BRANCH  19  23
ATOM     22  C   UNL     1       6.417   5.569  -8.655  0.00  0.00    +0.024 C 
ATOM     23  C   UNL     1       5.205   5.796  -9.561  0.00  0.00    +0.105 C 
ENDBRANCH  19  23
BRANCH  19  24
ATOM     24  C   UNL     1       4.796   3.541 -10.650  0.00  0.00    +0.136 C 
BRANCH  24  25
ATOM     25  C   UNL     1       4.229   3.933 -12.015  0.00  0.00    +0.174 C 
BRANCH  25  26
ATOM     26  O   UNL     1       4.854   5.139 -12.462  0.00  0.00    -0.393 OA
ATOM     27  H   UNL     1       4.572   5.578 -13.431  0.00  0.00    +0.209 HD
ENDBRANCH  25  26
ENDBRANCH  24  25
ENDBRANCH  19  24
ENDBRANCH   1  20
BRANCH   7  28
ATOM     28  C   UNL     1       0.487   0.966  -5.238  0.00  0.00    +0.019 C 
BRANCH  28  29
ATOM     29  C   UNL     1      -0.877   1.645  -5.108  0.00  0.00    -0.078 C 
BRANCH  29  30
ATOM     30  N   UNL     1      -1.153   1.922  -3.692  0.00  0.00    +0.379 N 
ATOM     31  H   UNL     1      -1.159   0.977  -3.128  0.00  0.00    -0.086 HD
ATOM     32  H   UNL     1      -0.373   2.585  -3.288  0.00  0.00    -0.086 HD
BRANCH  30  33
ATOM     33  C   UNL     1      -2.458   2.576  -3.528  0.00  0.00    -0.083 C 
BRANCH  33  34
ATOM     34  C   UNL     1      -2.710   2.847  -2.043  0.00  0.00    -0.019 C 
BRANCH  34  35
ATOM     35  C   UNL     1      -4.070   3.528  -1.872  0.00  0.00    +0.003 C 
BRANCH  35  36
ATOM     36  C   UNL     1      -4.321   3.799  -0.388  0.00  0.00    +0.036 C 
BRANCH  36  37
ATOM     37  C   UNL     1      -5.660   4.470  -0.220  0.00  0.00    -0.029 A 
ATOM     38  C   UNL     1      -5.761   5.853  -0.242  0.00  0.00    +0.006 A 
ATOM     39  C   UNL     1      -7.013   6.426  -0.088  0.00  0.00    +0.020 A 
ATOM     40  C   UNL     1      -8.112   5.606   0.092  0.00  0.00    +0.111 A 
ATOM     41  N   UNL     1      -7.978   4.295   0.113  0.00  0.00    -0.263 NA
ATOM     42  C   UNL     1      -6.803   3.715  -0.035  0.00  0.00    +0.114 A 
ENDBRANCH  36  37
ENDBRANCH  35  36
ENDBRANCH  34  35
ENDBRANCH  33  34
ENDBRANCH  30  33
ENDBRANCH  29  30
ENDBRANCH  28  29
ENDBRANCH   7  28
TORSDOF 14
