REMARK  Name = ZINC39747720
REMARK  9 active torsions:
REMARK  status: ('A' for Active; 'I' for Inactive)
REMARK    1  A    between atoms: C_1  and  C_2
REMARK    2  A    between atoms: C_2  and  C_3
REMARK    3  A    between atoms: C_10  and  C_12
REMARK    4  A    between atoms: C_12  and  C_14
REMARK    5  A    between atoms: C_12  and  N_15
REMARK    6  A    between atoms: N_15  and  C_16
REMARK    7  A    between atoms: C_16  and  C_17
REMARK    8  A    between atoms: C_17  and  C_19
REMARK    9  A    between atoms: C_17  and  C_25
REMARK                            x       y       z     vdW  Elec       q    Type
REMARK                         _______ _______ _______ _____ _____    ______ ____
ROOT
ATOM      1  C   UNL     1       5.702   2.325   0.948  0.00  0.00    -0.072 C 
ENDROOT
BRANCH   1   2
ATOM      2  N   UNL     1       4.309   1.858   0.977  0.00  0.00    +0.387 N 
ATOM      3  H   UNL     1       3.689   2.643   0.851  0.00  0.00    -0.085 HD
ATOM      4  H   UNL     1       4.120   1.420   1.866  0.00  0.00    -0.085 HD
BRANCH   2   5
ATOM      5  C   UNL     1       4.096   0.886  -0.103  0.00  0.00    +0.013 C 
ATOM      6  C   UNL     1       4.946  -0.360   0.156  0.00  0.00    -0.004 C 
BRANCH   5  13
ATOM      7  C   UNL     1       0.706  -0.401  -1.351  0.00  0.00    +0.076 C 
ATOM      8  C   UNL     1       0.500  -1.895  -1.622  0.00  0.00    +0.022 C 
ATOM      9  C   UNL     1       1.318  -2.304  -2.849  0.00  0.00    +0.003 C 
ATOM     10  C   UNL     1       2.804  -2.062  -2.578  0.00  0.00    +0.019 C 
ATOM     11  C   UNL     1       3.036  -0.571  -2.317  0.00  0.00    +0.108 C 
ATOM     12  N   UNL     1       2.145  -0.133  -1.233  0.00  0.00    -0.300 N 
ATOM     13  C   UNL     1       2.640   0.499  -0.150  0.00  0.00    +0.202 C 
ATOM     14  O   UNL     1       1.913   0.757   0.786  0.00  0.00    -0.277 OA
BRANCH   7  16
ATOM     15  C   UNL     1      -1.496  -0.290  -0.174  0.00  0.00    +0.006 C 
ATOM     16  C   UNL     1       0.004  -0.015  -0.047  0.00  0.00    +0.019 C 
ENDBRANCH   7  16
ENDBRANCH   5  13
ENDBRANCH   2   5
ENDBRANCH   1   2
BRANCH   1  17
ATOM     17  C   UNL     1       5.925   3.337   2.073  0.00  0.00    +0.018 C 
BRANCH  17  18
ATOM     18  C   UNL     1       7.315   3.908   1.968  0.00  0.00    -0.020 A 
ATOM     19  C   UNL     1       7.667   5.317   1.779  0.00  0.00    +0.003 A 
ATOM     20  C   UNL     1       6.926   6.493   1.647  0.00  0.00    +0.010 A 
ATOM     21  C   UNL     1       7.572   7.686   1.480  0.00  0.00    +0.001 A 
ATOM     22  C   UNL     1       8.958   7.739   1.440  0.00  0.00    +0.002 A 
ATOM     23  C   UNL     1       9.709   6.590   1.569  0.00  0.00    +0.026 A 
ATOM     24  C   UNL     1       9.073   5.365   1.740  0.00  0.00    +0.047 A 
ATOM     25  N   UNL     1       9.528   4.075   1.895  0.00  0.00    -0.360 N 
ATOM     26  C   UNL     1       8.467   3.221   2.034  0.00  0.00    +0.087 A 
ATOM     27  H   UNL     1      10.461   3.810   1.907  0.00  0.00    +0.165 HD
ENDBRANCH  17  18
BRANCH  17  28
ATOM     28  C   UNL     1       5.760   2.642   3.425  0.00  0.00    +0.060 C 
ATOM     29  C   UNL     1       5.964   3.631   4.603  0.00  0.00    +0.042 C 
ATOM     30  C   UNL     1       6.705   2.974   5.723  0.00  0.00    -0.019 C 
ATOM     31  C   UNL     1       7.390   1.870   5.499  0.00  0.00    +0.036 C 
ATOM     32  S   UNL     1       7.159   1.494   3.770  0.00  0.00    -0.129 S 
ENDBRANCH  17  28
ENDBRANCH   1  17
TORSDOF 7
