REMARK  Name = ZINC52901262
REMARK  11 active torsions:
REMARK  status: ('A' for Active; 'I' for Inactive)
REMARK    1  A    between atoms: C_1  and  C_2
REMARK    2  A    between atoms: C_2  and  C_4
REMARK    3  A    between atoms: C_2  and  N_20
REMARK    4  A    between atoms: N_6  and  C_7
REMARK    5  A    between atoms: C_7  and  C_8
REMARK    6  A    between atoms: C_8  and  C_9
REMARK    7  A    between atoms: C_21  and  O_23
REMARK    8  A    between atoms: O_23  and  C_24
REMARK    9  A    between atoms: C_24  and  C_25
REMARK   10  A    between atoms: C_24  and  C_26
REMARK   11  A    between atoms: C_24  and  C_27
REMARK                            x       y       z     vdW  Elec       q    Type
REMARK                         _______ _______ _______ _____ _____    ______ ____
ROOT
ATOM      1  C   UNL     1       0.707  -0.490  -1.238  0.00  0.00    +0.233 C 
ATOM      2  O   UNL     1       1.704  -1.174  -1.140  0.00  0.00    -0.274 OA
ATOM      3  N   UNL     1       0.231  -0.164  -2.456  0.00  0.00    -0.313 N 
ATOM      4  H   UNL     1      -0.566   0.383  -2.534  0.00  0.00    +0.149 HD
ENDROOT
BRANCH   1   6
ATOM      5  C   UNL     1      -0.019   1.526   0.010  0.00  0.00    +0.038 C 
ATOM      6  C   UNL     1       0.002  -0.004   0.002  0.00  0.00    +0.159 C 
BRANCH   6   7
ATOM      7  N   UNL     1       0.711  -0.489   1.189  0.00  0.00    -0.270 N 
ATOM      8  C   UNL     1       0.051  -0.633   2.355  0.00  0.00    +0.401 C 
ATOM      9  O   UNL     1      -1.131  -0.361   2.423  0.00  0.00    -0.226 OA
ATOM     10  H   UNL     1       1.654  -0.707   1.135  0.00  0.00    +0.153 HD
BRANCH   8  11
ATOM     11  O   UNL     1       0.702  -1.079   3.446  0.00  0.00    -0.445 OA
BRANCH  11  12
ATOM     12  C   UNL     1      -0.059  -1.208   4.649  0.00  0.00    +0.107 C 
ATOM     13  C   UNL     1      -1.206  -2.195   4.423  0.00  0.00    +0.055 C 
ATOM     14  C   UNL     1       0.844  -1.724   5.771  0.00  0.00    +0.055 C 
ATOM     15  C   UNL     1      -0.629   0.157   5.040  0.00  0.00    +0.055 C 
ENDBRANCH  11  12
ENDBRANCH   8  11
ENDBRANCH   6   7
ENDBRANCH   1   6
BRANCH   3  16
ATOM     16  C   UNL     1       0.917  -0.637  -3.661  0.00  0.00    +0.109 C 
BRANCH  16  17
ATOM     17  C   UNL     1       0.177  -0.130  -4.901  0.00  0.00    +0.057 C 
BRANCH  17  18
ATOM     18  C   UNL     1       0.882  -0.616  -6.141  0.00  0.00    -0.001 A 
ATOM     19  C   UNL     1       1.813   0.190  -6.766  0.00  0.00    +0.045 A 
ATOM     20  C   UNL     1       2.461  -0.256  -7.905  0.00  0.00    +0.124 A 
ATOM     21  C   UNL     1       2.175  -1.509  -8.419  0.00  0.00    +0.047 A 
ATOM     22  C   UNL     1       1.243  -2.317  -7.796  0.00  0.00    +0.023 A 
ATOM     23  C   UNL     1       0.600  -1.875  -6.651  0.00  0.00    +0.132 A 
ATOM     24  O   UNL     1      -0.309  -2.667  -6.019  0.00  0.00    -0.466 OA
ATOM     25  C   UNL     1      -0.826  -3.775  -6.761  0.00  0.00    +0.394 C 
ATOM     26  O   UNL     1       0.269  -4.467  -7.373  0.00  0.00    -0.339 OA
ATOM     27  C   UNL     1       0.936  -3.679  -8.367  0.00  0.00    +0.202 C 
ATOM     28  F   UNL     1       3.372   0.533  -8.516  0.00  0.00    -0.205 F 
ENDBRANCH  17  18
ENDBRANCH  16  17
ENDBRANCH   3  16
TORSDOF 7
