REMARK  Name = ZINC41852316
REMARK  8 active torsions:
REMARK  status: ('A' for Active; 'I' for Inactive)
REMARK    1  A    between atoms: C_1  and  C_2
REMARK    2  A    between atoms: C_5  and  C_23
REMARK    3  A    between atoms: C_6  and  C_8
REMARK    4  A    between atoms: C_8  and  C_9
REMARK    5  A    between atoms: C_8  and  C_10
REMARK    6  A    between atoms: C_8  and  N_13
REMARK    7  A    between atoms: C_15  and  C_22
REMARK    8  A    between atoms: C_18  and  C_21
REMARK                            x       y       z     vdW  Elec       q    Type
REMARK                         _______ _______ _______ _____ _____    ______ ____
ROOT
ATOM      1  C   UNL     1       0.032  -2.797   2.518  0.00  0.00    +0.061 C 
ATOM      2  C   UNL     1       1.215  -3.688   2.901  0.00  0.00    +0.007 C 
ENDROOT
BRANCH   1   3
ATOM      3  N   UNL     1      -0.266  -1.876   3.623  0.00  0.00    +0.394 N 
ATOM      4  C   UNL     1       0.848  -0.935   3.788  0.00  0.00    -0.074 C 
ATOM      5  C   UNL     1       0.508   0.076   4.885  0.00  0.00    -0.031 C 
ATOM      6  C   UNL     1       0.266  -0.668   6.201  0.00  0.00    +0.003 C 
ATOM      7  C   UNL     1      -0.848  -1.698   5.997  0.00  0.00    -0.031 C 
ATOM      8  C   UNL     1      -0.458  -2.644   4.859  0.00  0.00    -0.074 C 
ATOM      9  C   UNL     1      -1.045  -2.500   7.285  0.00  0.00    +0.005 C 
ATOM     10  C   UNL     1       1.672   1.055   5.056  0.00  0.00    +0.005 C 
ATOM     11  H   UNL     1      -1.109  -1.363   3.414  0.00  0.00    -0.080 HD
ENDBRANCH   1   3
BRANCH   1  17
ATOM     12  C   UNL     1       3.406  -1.282  -0.853  0.00  0.00    +0.044 C 
ATOM     13  C   UNL     1       1.993  -1.279  -0.329  0.00  0.00    -0.050 A 
ATOM     14  C   UNL     1       1.016  -0.549  -0.979  0.00  0.00    +0.003 A 
ATOM     15  C   UNL     1      -0.280  -0.546  -0.498  0.00  0.00    +0.004 A 
ATOM     16  C   UNL     1      -0.598  -1.274   0.634  0.00  0.00    -0.048 A 
ATOM     17  C   UNL     1       0.379  -2.004   1.284  0.00  0.00    -0.044 A 
ATOM     18  C   UNL     1       1.674  -2.010   0.800  0.00  0.00    +0.006 A 
ATOM     19  C   UNL     1      -2.011  -1.270   1.159  0.00  0.00    +0.044 C 
ENDBRANCH   1  17
BRANCH   1  20
ATOM     20  C   UNL     1      -1.175  -3.656   2.240  0.00  0.00    +0.350 C 
ATOM     21  O   UNL     1      -1.118  -4.531   1.394  0.00  0.00    -0.248 OA
ATOM     22  O   UNL     1      -2.208  -3.475   2.862  0.00  0.00    -0.248 OA
ENDBRANCH   1  20
TORSDOF 3
