REMARK  Name = ZINC04236616
REMARK  12 active torsions:
REMARK  status: ('A' for Active; 'I' for Inactive)
REMARK    1  A    between atoms: C_1  and  C_2
REMARK    2  A    between atoms: C_2  and  C_3
REMARK    3  A    between atoms: C_2  and  N_4
REMARK    4  A    between atoms: C_5  and  O_7
REMARK    5  A    between atoms: O_7  and  C_8
REMARK    6  A    between atoms: C_12  and  C_35
REMARK    7  A    between atoms: C_15  and  C_16
REMARK    8  A    between atoms: C_15  and  C_17
REMARK    9  A    between atoms: C_17  and  O_18
REMARK   10  A    between atoms: C_21  and  O_34
REMARK   11  A    between atoms: C_23  and  C_25
REMARK   12  A    between atoms: C_25  and  C_26
REMARK                            x       y       z     vdW  Elec       q    Type
REMARK                         _______ _______ _______ _____ _____    ______ ____
ROOT
ATOM      1  C   UNL     1      -2.688   2.676   2.369  0.00  0.00    +0.186 C 
ATOM      2  C   UNL     1      -3.309   3.181   1.066  0.00  0.00    +0.046 C 
ATOM      3  C   UNL     1      -2.543   2.598  -0.124  0.00  0.00    +0.011 C 
ATOM      4  C   UNL     1      -2.619   1.071  -0.080  0.00  0.00    -0.023 C 
ATOM      5  C   UNL     1      -1.998   0.566   1.224  0.00  0.00    +0.007 C 
ATOM      6  C   UNL     1      -2.764   1.149   2.413  0.00  0.00    +0.031 C 
ATOM      7  C   UNL     1      -2.142   0.644   3.717  0.00  0.00    +0.017 C 
ATOM      8  C   UNL     1      -0.534   1.006   1.295  0.00  0.00    +0.007 C 
ATOM      9  C   UNL     1       0.232   0.423   0.105  0.00  0.00    +0.032 C 
ATOM     10  C   UNL     1      -0.390   0.927  -1.198  0.00  0.00    +0.119 C 
ATOM     11  C   UNL     1      -1.853   0.488  -1.270  0.00  0.00    +0.032 C 
ATOM     12  C   UNL     1      -4.083   0.631  -0.151  0.00  0.00    +0.012 C 
ENDROOT
BRANCH  10  13
ATOM     13  O   UNL     1       0.326   0.383  -2.309  0.00  0.00    -0.391 OA
ATOM     14  H   UNL     1       1.262   0.621  -2.329  0.00  0.00    +0.210 HD
ENDBRANCH  10  13
BRANCH   1  15
ATOM     15  O   UNL     1      -3.414   3.229   3.498  0.00  0.00    -0.446 OA
BRANCH  15  17
ATOM     16  N   UNL     1      -3.611   4.975   5.034  0.00  0.00    -0.279 N 
ATOM     17  C   UNL     1      -2.981   4.407   3.987  0.00  0.00    +0.401 C 
ATOM     18  O   UNL     1      -2.022   4.957   3.483  0.00  0.00    -0.226 OA
ATOM     19  H   UNL     1      -4.377   4.536   5.435  0.00  0.00    +0.152 HD
BRANCH  16  21
ATOM     20  C   UNL     1      -4.295   6.974   6.266  0.00  0.00    +0.027 C 
ATOM     21  C   UNL     1      -3.140   6.256   5.565  0.00  0.00    +0.070 C 
ATOM     22  C   UNL     1      -2.011   6.008   6.567  0.00  0.00    +0.027 C 
ENDBRANCH  16  21
ENDBRANCH  15  17
ENDBRANCH   1  15
BRANCH   6  23
ATOM     23  C   UNL     1      -4.228   0.709   2.342  0.00  0.00    +0.166 C 
BRANCH  23  24
ATOM     24  O   UNL     1      -4.898   1.088   3.546  0.00  0.00    -0.394 OA
ATOM     25  H   UNL     1      -5.832   0.840   3.570  0.00  0.00    +0.209 HD
ENDBRANCH  23  24
ENDBRANCH   6  23
BRANCH  11  26
ATOM     26  C   UNL     1      -1.930  -1.040  -1.226  0.00  0.00    +0.102 C 
BRANCH  26  27
ATOM     27  C   UNL     1      -1.418  -1.605  -2.526  0.00  0.00    +0.216 C 
ATOM     28  O   UNL     1      -1.185  -0.867  -3.459  0.00  0.00    -0.276 OA
ATOM     29  N   UNL     1      -1.218  -2.933  -2.651  0.00  0.00    -0.297 N 
ATOM     30  C   UNL     1      -1.488  -3.848  -1.531  0.00  0.00    +0.136 C 
ATOM     31  C   UNL     1      -2.375  -4.991  -2.049  0.00  0.00    +0.179 C 
ATOM     32  O   UNL     1      -1.768  -5.568  -3.208  0.00  0.00    -0.377 OA
ATOM     33  C   UNL     1      -1.639  -4.667  -4.310  0.00  0.00    +0.179 C 
ATOM     34  C   UNL     1      -0.719  -3.508  -3.910  0.00  0.00    +0.136 C 
ENDBRANCH  26  27
ENDBRANCH  11  26
TORSDOF 8
