REMARK  Name = ZINC61210421
REMARK  8 active torsions:
REMARK  status: ('A' for Active; 'I' for Inactive)
REMARK    1  A    between atoms: C_1  and  C_2
REMARK    2  A    between atoms: C_2  and  C_3
REMARK    3  A    between atoms: C_3  and  C_4
REMARK    4  A    between atoms: C_4  and  N_5
REMARK    5  A    between atoms: C_7  and  C_11
REMARK    6  A    between atoms: C_8  and  C_10
REMARK    7  A    between atoms: C_12  and  C_13
REMARK    8  A    between atoms: N_18  and  C_21
REMARK                            x       y       z     vdW  Elec       q    Type
REMARK                         _______ _______ _______ _____ _____    ______ ____
ROOT
ATOM      1  C   UNL     1       0.539  -4.841  -7.608  0.00  0.00    +0.240 C 
ATOM      2  O   UNL     1       1.183  -4.284  -8.478  0.00  0.00    -0.271 OA
ATOM      3  N   UNL     1      -0.345  -5.804  -7.935  0.00  0.00    -0.295 N 
ATOM      4  C   UNL     1      -0.457  -6.276  -9.322  0.00  0.00    +0.127 C 
ATOM      5  C   UNL     1      -0.262  -7.797  -9.340  0.00  0.00    +0.124 C 
ATOM      6  N   UNL     1      -1.131  -8.394  -8.316  0.00  0.00    -0.327 N 
ATOM      7  C   UNL     1      -1.019  -7.922  -6.929  0.00  0.00    +0.124 C 
ATOM      8  C   UNL     1      -1.210  -6.405  -6.910  0.00  0.00    +0.127 C 
ENDROOT
BRANCH   6   9
ATOM      9  C   UNL     1      -2.044  -9.388  -8.654  0.00  0.00    +0.033 A 
ATOM     10  C   UNL     1      -2.956  -9.871  -7.716  0.00  0.00    +0.040 A 
ATOM     11  C   UNL     1      -3.844 -10.857  -8.091  0.00  0.00    +0.084 A 
ATOM     12  N   UNL     1      -3.838 -11.342  -9.319  0.00  0.00    -0.367 N 
ATOM     13  C   UNL     1      -2.991 -10.911 -10.235  0.00  0.00    +0.084 A 
ATOM     14  C   UNL     1      -2.075  -9.924  -9.942  0.00  0.00    +0.040 A 
ATOM     15  H   UNL     1      -4.475 -12.034  -9.555  0.00  0.00    +0.165 HD
ENDBRANCH   6   9
BRANCH   1  17
ATOM     16  C   UNL     1       1.678  -3.587  -5.911  0.00  0.00    +0.018 C 
ATOM     17  C   UNL     1       0.719  -4.476  -6.250  0.00  0.00    +0.068 C 
BRANCH  16  20
ATOM     18  N   UNL     1       1.471  -2.550  -2.443  0.00  0.00    -0.252 N 
ATOM     19  C   UNL     1       0.877  -2.797  -3.624  0.00  0.00    +0.134 A 
ATOM     20  C   UNL     1       1.865  -3.209  -4.504  0.00  0.00    +0.034 A 
ATOM     21  C   UNL     1       3.087  -3.198  -3.791  0.00  0.00    +0.069 A 
ATOM     22  N   UNL     1       2.842  -2.801  -2.574  0.00  0.00    -0.175 NA
ATOM     23  C   UNL     1       4.438  -3.574  -4.344  0.00  0.00    +0.068 C 
ATOM     24 CL   UNL     1      -0.813  -2.630  -3.980  0.00  0.00    -0.062 Cl
BRANCH  18  25
ATOM     25  C   UNL     1       0.798  -2.090  -1.226  0.00  0.00    +0.145 C 
BRANCH  25  26
ATOM     26  C   UNL     1       0.776  -0.560  -1.203  0.00  0.00    +0.023 C 
BRANCH  26  28
ATOM     27  C   UNL     1       0.051   1.450   0.091  0.00  0.00    +0.004 C 
ATOM     28  C   UNL     1       0.072  -0.080   0.068  0.00  0.00    -0.002 C 
ENDBRANCH  26  28
ENDBRANCH  25  26
ENDBRANCH  18  25
ENDBRANCH  16  20
ENDBRANCH   1  17
TORSDOF 6
