REMARK  Name = ZINC38547912
REMARK  11 active torsions:
REMARK  status: ('A' for Active; 'I' for Inactive)
REMARK    1  A    between atoms: C_1  and  C_2
REMARK    2  A    between atoms: C_2  and  C_3
REMARK    3  A    between atoms: C_5  and  C_16
REMARK    4  A    between atoms: C_6  and  N_8
REMARK    5  A    between atoms: C_9  and  C_11
REMARK    6  A    between atoms: C_16  and  C_18
REMARK    7  A    between atoms: C_16  and  N_28
REMARK    8  A    between atoms: C_21  and  O_26
REMARK    9  A    between atoms: C_23  and  O_24
REMARK   10  A    between atoms: O_24  and  C_25
REMARK   11  A    between atoms: O_26  and  C_27
REMARK                            x       y       z     vdW  Elec       q    Type
REMARK                         _______ _______ _______ _____ _____    ______ ____
ROOT
ATOM      1  C   UNL     1      -4.402  -1.696  -1.910  0.00  0.00    +0.138 C 
ENDROOT
BRANCH   1   2
ATOM      2  N   UNL     1      -3.878  -2.042  -3.234  0.00  0.00    -0.319 N 
ATOM      3  C   UNL     1      -4.654  -2.786  -4.115  0.00  0.00    +0.097 A 
ATOM      4  C   UNL     1      -5.966  -3.105  -3.779  0.00  0.00    +0.041 A 
ATOM      5  C   UNL     1      -6.726  -3.846  -4.665  0.00  0.00    +0.005 A 
ATOM      6  C   UNL     1      -6.147  -4.245  -5.863  0.00  0.00    +0.018 A 
ATOM      7  C   UNL     1      -4.840  -3.893  -6.132  0.00  0.00    +0.084 A 
ATOM      8  N   UNL     1      -4.140  -3.181  -5.270  0.00  0.00    -0.350 N 
ATOM      9  H   UNL     1      -2.990  -1.752  -3.495  0.00  0.00    +0.148 HD
ATOM     10  H   UNL     1      -3.224  -2.943  -5.486  0.00  0.00    +0.166 HD
ENDBRANCH   1   2
BRANCH   1  11
ATOM     11  C   UNL     1      -5.303  -0.494  -2.025  0.00  0.00    +0.019 A 
ATOM     12  C   UNL     1      -5.125   0.407  -3.058  0.00  0.00    +0.013 A 
ATOM     13  C   UNL     1      -5.950   1.510  -3.166  0.00  0.00    +0.046 A 
ATOM     14  C   UNL     1      -6.960   1.716  -2.237  0.00  0.00    +0.124 A 
ATOM     15  C   UNL     1      -7.141   0.814  -1.200  0.00  0.00    +0.091 A 
ATOM     16  C   UNL     1      -6.315  -0.295  -1.097  0.00  0.00    +0.129 A 
BRANCH  16  17
ATOM     17  O   UNL     1      -6.494  -1.184  -0.085  0.00  0.00    -0.495 OA
ATOM     18  C   UNL     1      -7.619  -0.975   0.771  0.00  0.00    +0.277 C 
ENDBRANCH  16  17
BRANCH  14  19
ATOM     19  O   UNL     1      -7.771   2.801  -2.344  0.00  0.00    -0.495 OA
ATOM     20  C   UNL     1      -7.526   3.689  -3.437  0.00  0.00    +0.277 C 
ENDBRANCH  14  19
ENDBRANCH   1  11
BRANCH   1  23
ATOM     21  C   UNL     1      -1.918   0.183   0.174  0.00  0.00    -0.008 A 
ATOM     22  C   UNL     1      -2.954  -0.068  -0.662  0.00  0.00    +0.019 A 
ATOM     23  C   UNL     1      -3.256  -1.378  -0.984  0.00  0.00    +0.006 A 
ATOM     24  C   UNL     1      -2.498  -2.376  -0.450  0.00  0.00    +0.078 A 
ATOM     25  S   UNL     1      -1.321  -1.461   0.531  0.00  0.00    -0.078 S 
BRANCH  24  26
ATOM     26  N   UNL     1      -2.611  -3.757  -0.627  0.00  0.00    -0.273 N 
ATOM     27  C   UNL     1      -1.825  -4.593   0.080  0.00  0.00    +0.284 C 
ATOM     28  O   UNL     1      -1.081  -4.151   0.936  0.00  0.00    -0.266 OA
ATOM     29  H   UNL     1      -3.255  -4.114  -1.258  0.00  0.00    +0.156 HD
BRANCH  27  30
ATOM     30  C   UNL     1      -1.866  -6.035  -0.183  0.00  0.00    +0.189 A 
ATOM     31  C   UNL     1      -1.062  -6.979   0.391  0.00  0.00    +0.054 A 
ATOM     32  C   UNL     1      -1.446  -8.217  -0.147  0.00  0.00    +0.042 A 
ATOM     33  C   UNL     1      -2.454  -7.978  -1.015  0.00  0.00    +0.196 A 
ATOM     34  O   UNL     1      -2.707  -6.663  -1.030  0.00  0.00    -0.458 OA
ENDBRANCH  27  30
ENDBRANCH  24  26
BRANCH  21  36
ATOM     35  C   UNL     1      -2.112   1.881   1.971  0.00  0.00    +0.009 C 
ATOM     36  C   UNL     1      -1.399   1.509   0.669  0.00  0.00    +0.039 C 
ENDBRANCH  21  36
ENDBRANCH   1  23
TORSDOF 8
