REMARK  Name = ZINC51819728
REMARK  11 active torsions:
REMARK  status: ('A' for Active; 'I' for Inactive)
REMARK    1  A    between atoms: C_1  and  C_2
REMARK    2  A    between atoms: C_2  and  C_4
REMARK    3  A    between atoms: C_2  and  O_19
REMARK    4  A    between atoms: C_4  and  N_5
REMARK    5  A    between atoms: N_5  and  C_6
REMARK    6  A    between atoms: C_10  and  N_18
REMARK    7  A    between atoms: C_11  and  O_13
REMARK    8  A    between atoms: O_13  and  C_14
REMARK    9  A    between atoms: C_14  and  C_15
REMARK   10  A    between atoms: C_15  and  C_16
REMARK   11  A    between atoms: C_15  and  C_17
REMARK                            x       y       z     vdW  Elec       q    Type
REMARK                         _______ _______ _______ _____ _____    ______ ____
ROOT
ATOM      1  N   UNL     1       0.634  -1.958  -1.325  0.00  0.00    -0.316 N 
ATOM      2  C   UNL     1      -0.492  -2.596  -2.013  0.00  0.00    +0.130 C 
ATOM      3  C   UNL     1       1.625  -2.742  -0.737  0.00  0.00    +0.125 A 
ATOM      4  C   UNL     1       2.628  -2.134   0.006  0.00  0.00    +0.046 A 
ATOM      5  C   UNL     1       3.610  -2.920   0.589  0.00  0.00    +0.031 A 
ATOM      6  C   UNL     1       3.553  -4.297   0.406  0.00  0.00    +0.087 A 
ATOM      7  C   UNL     1       2.517  -4.839  -0.352  0.00  0.00    +0.238 A 
ATOM      8  N   UNL     1       1.595  -4.057  -0.889  0.00  0.00    -0.196 NA
ENDROOT
BRANCH   6   9
ATOM      9  N   UNL     1       4.526  -5.131   0.977  0.00  0.00    -0.354 N 
ATOM     10  H   UNL     1       5.245  -4.747   1.504  0.00  0.00    +0.142 HD
ATOM     11  H   UNL     1       4.480  -6.091   0.846  0.00  0.00    +0.142 HD
ENDBRANCH   6   9
BRANCH   1  12
ATOM     12  C   UNL     1       0.718  -0.497  -1.257  0.00  0.00    +0.137 C 
BRANCH  12  14
ATOM     13  C   UNL     1      -0.019   1.526   0.010  0.00  0.00    +0.039 C 
ATOM     14  C   UNL     1       0.002  -0.004   0.002  0.00  0.00    +0.129 C 
BRANCH  14  15
ATOM     15  O   UNL     1       0.693  -0.477   1.160  0.00  0.00    -0.391 OA
ATOM     16  H   UNL     1       0.294  -0.202   1.996  0.00  0.00    +0.210 HD
ENDBRANCH  14  15
ENDBRANCH  12  14
ENDBRANCH   1  12
BRANCH   7  17
ATOM     17  O   UNL     1       2.451  -6.182  -0.537  0.00  0.00    -0.475 OA
BRANCH  17  18
ATOM     18  C   UNL     1       1.365  -6.676  -1.324  0.00  0.00    +0.233 C 
BRANCH  18  19
ATOM     19  C   UNL     1       1.458  -8.200  -1.421  0.00  0.00    +0.020 C 
ATOM     20  C   UNL     1       1.263  -8.812  -0.033  0.00  0.00    +0.010 C 
ATOM     21  C   UNL     1       0.370  -8.718  -2.364  0.00  0.00    +0.010 C 
ENDBRANCH  18  19
ENDBRANCH  17  18
ENDBRANCH   7  17
TORSDOF 7
