REMARK  Name = ZINC34698889
REMARK  9 active torsions:
REMARK  status: ('A' for Active; 'I' for Inactive)
REMARK    1  A    between atoms: C_1  and  C_2
REMARK    2  A    between atoms: C_7  and  C_8
REMARK    3  A    between atoms: N_11  and  C_31
REMARK    4  A    between atoms: C_13  and  C_15
REMARK    5  A    between atoms: C_15  and  N_16
REMARK    6  A    between atoms: N_16  and  C_17
REMARK    7  A    between atoms: C_23  and  C_25
REMARK    8  A    between atoms: C_31  and  C_32
REMARK    9  A    between atoms: C_37  and  O_38
REMARK                            x       y       z     vdW  Elec       q    Type
REMARK                         _______ _______ _______ _____ _____    ______ ____
ROOT
ATOM      1  C   UNL     1       1.496   3.676   2.600  0.00  0.00    +0.005 C 
ATOM      2  C   UNL     1      -0.040   3.574   2.652  0.00  0.00    -0.070 C 
ATOM      3  N   UNL     1      -0.370   2.173   2.992  0.00  0.00    +0.383 N 
ATOM      4  C   UNL     1       0.809   1.645   3.725  0.00  0.00    -0.073 C 
ATOM      5  C   UNL     1       2.009   2.263   2.961  0.00  0.00    -0.005 C 
ATOM      6  H   UNL     1      -0.525   1.638   2.151  0.00  0.00    -0.081 HD
ENDROOT
BRANCH   1  13
ATOM      7  C   UNL     1       3.103   6.045   2.206  0.00  0.00    +0.044 C 
ATOM      8  C   UNL     1       2.717   5.191   1.025  0.00  0.00    -0.047 A 
ATOM      9  C   UNL     1       3.136   5.538  -0.245  0.00  0.00    +0.003 A 
ATOM     10  C   UNL     1       2.782   4.755  -1.328  0.00  0.00    +0.000 A 
ATOM     11  C   UNL     1       2.009   3.625  -1.140  0.00  0.00    +0.000 A 
ATOM     12  C   UNL     1       1.590   3.277   0.130  0.00  0.00    +0.004 A 
ATOM     13  C   UNL     1       1.948   4.058   1.214  0.00  0.00    -0.043 A 
ENDBRANCH   1  13
BRANCH   5  14
ATOM     14  C   UNL     1       3.242   2.349   3.864  0.00  0.00    +0.110 C 
BRANCH  14  15
ATOM     15  N   UNL     1       3.775   1.004   4.092  0.00  0.00    -0.294 N 
ATOM     16  C   UNL     1       3.339   0.274   5.138  0.00  0.00    +0.247 C 
ATOM     17  O   UNL     1       2.147   0.186   5.362  0.00  0.00    -0.270 OA
BRANCH  15  18
ATOM     18  C   UNL     1       4.782   0.452   3.183  0.00  0.00    +0.076 C 
ATOM     19  C   UNL     1       4.625  -1.068   3.110  0.00  0.00    +0.022 C 
ATOM     20  C   UNL     1       5.677  -1.645   2.161  0.00  0.00    +0.002 C 
ATOM     21  C   UNL     1       7.075  -1.301   2.679  0.00  0.00    +0.000 C 
ATOM     22  C   UNL     1       7.232   0.219   2.752  0.00  0.00    +0.002 C 
ATOM     23  C   UNL     1       6.180   0.796   3.701  0.00  0.00    +0.022 C 
ENDBRANCH  15  18
BRANCH  16  24
ATOM     24  C   UNL     1       4.309  -0.418   6.012  0.00  0.00    +0.037 A 
ATOM     25  C   UNL     1       5.498  -0.921   5.479  0.00  0.00    +0.013 A 
ATOM     26  C   UNL     1       6.399  -1.565   6.301  0.00  0.00    +0.001 A 
ATOM     27  C   UNL     1       6.128  -1.715   7.649  0.00  0.00    +0.000 A 
ATOM     28  C   UNL     1       4.951  -1.220   8.183  0.00  0.00    +0.001 A 
ATOM     29  C   UNL     1       4.044  -0.568   7.374  0.00  0.00    +0.013 A 
ENDBRANCH  16  24
ENDBRANCH  14  15
ENDBRANCH   5  14
BRANCH   3  30
ATOM     30  C   UNL     1      -1.562   2.128   3.850  0.00  0.00    -0.039 C 
BRANCH  30  31
ATOM     31  C   UNL     1      -2.761   2.602   3.070  0.00  0.00    -0.022 A 
ATOM     32  C   UNL     1      -3.218   3.897   3.224  0.00  0.00    +0.005 A 
ATOM     33  C   UNL     1      -4.318   4.332   2.509  0.00  0.00    +0.000 A 
ATOM     34  C   UNL     1      -4.964   3.474   1.637  0.00  0.00    +0.004 A 
ATOM     35  C   UNL     1      -4.510   2.179   1.480  0.00  0.00    +0.045 A 
ATOM     36  C   UNL     1      -3.403   1.741   2.192  0.00  0.00    +0.118 A 
BRANCH  36  37
ATOM     37  O   UNL     1      -2.951   0.469   2.034  0.00  0.00    -0.507 OA
ATOM     38  H   UNL     1      -3.351  -0.169   2.641  0.00  0.00    +0.292 HD
ENDBRANCH  36  37
ENDBRANCH  30  31
ENDBRANCH   3  30
TORSDOF 8
