REMARK  Name = ZINC13494890
REMARK  11 active torsions:
REMARK  status: ('A' for Active; 'I' for Inactive)
REMARK    1  A    between atoms: C_1  and  C_2
REMARK    2  A    between atoms: C_2  and  C_3
REMARK    3  A    between atoms: C_3  and  C_5
REMARK    4  A    between atoms: C_3  and  N_17
REMARK    5  A    between atoms: N_9  and  C_10
REMARK    6  A    between atoms: C_10  and  C_11
REMARK    7  A    between atoms: N_17  and  C_18
REMARK    8  A    between atoms: N_17  and  C_26
REMARK    9  A    between atoms: C_18  and  C_19
REMARK   10  A    between atoms: C_22  and  C_25
REMARK   11  A    between atoms: C_26  and  C_27
REMARK                            x       y       z     vdW  Elec       q    Type
REMARK                         _______ _______ _______ _____ _____    ______ ____
ROOT
ATOM      1  N   UNL     1      -0.160  -0.266  -2.481  0.00  0.00    -0.284 NA
ENDROOT
BRANCH   1   2
ATOM      2  C   UNL     1       0.882  -0.588  -1.497  0.00  0.00    +0.127 C 
BRANCH   2   3
ATOM      3  C   UNL     1       2.238  -0.314  -2.094  0.00  0.00    +0.168 A 
ATOM      4  N   UNL     1       2.645  -0.643  -3.296  0.00  0.00    -0.112 NA
ATOM      5  N   UNL     1       3.860  -0.237  -3.430  0.00  0.00    -0.023 NA
ATOM      6  N   UNL     1       4.239   0.343  -2.345  0.00  0.00    -0.044 NA
ATOM      7  N   UNL     1       3.265   0.321  -1.499  0.00  0.00    -0.225 N 
BRANCH   7   8
ATOM      8  C   UNL     1       3.276   0.878  -0.144  0.00  0.00    +0.179 C 
BRANCH   8   9
ATOM      9  C   UNL     1       3.760  -0.187   0.842  0.00  0.00    +0.140 C 
ATOM     10  C   UNL     1       3.660   0.351   2.285  0.00  0.00    +0.035 C 
ATOM     11  C   UNL     1       4.954  -0.210   2.936  0.00  0.00    +0.031 C 
ATOM     12  C   UNL     1       5.932  -0.160   1.736  0.00  0.00    +0.160 C 
ATOM     13  O   UNL     1       5.135  -0.496   0.587  0.00  0.00    -0.375 OA
ENDBRANCH   8   9
ENDBRANCH   7   8
ENDBRANCH   2   3
BRANCH   2  15
ATOM     14  C   UNL     1      -0.551  -2.320  -0.407  0.00  0.00    +0.006 C 
ATOM     15  C   UNL     1       0.782  -2.066  -1.114  0.00  0.00    +0.023 C 
ENDBRANCH   2  15
ENDBRANCH   1   2
BRANCH   1  16
ATOM     16  C   UNL     1       0.089  -0.952  -3.756  0.00  0.00    +0.120 C 
BRANCH  16  17
ATOM     17  C   UNL     1      -1.167  -0.936  -4.589  0.00  0.00    -0.033 A 
ATOM     18  C   UNL     1      -2.139  -1.899  -4.393  0.00  0.00    +0.005 A 
ATOM     19  C   UNL     1      -3.291  -1.884  -5.157  0.00  0.00    +0.003 A 
ATOM     20  C   UNL     1      -3.471  -0.906  -6.117  0.00  0.00    -0.050 A 
ATOM     21  C   UNL     1      -2.499   0.058  -6.312  0.00  0.00    +0.003 A 
ATOM     22  C   UNL     1      -1.349   0.046  -5.545  0.00  0.00    +0.005 A 
ATOM     23  C   UNL     1      -4.726  -0.890  -6.951  0.00  0.00    +0.044 C 
ENDBRANCH  16  17
ENDBRANCH   1  16
BRANCH   1  24
ATOM     24  C   UNL     1      -0.268   1.186  -2.678  0.00  0.00    +0.126 C 
BRANCH  24  25
ATOM     25  C   UNL     1      -0.995   1.799  -1.508  0.00  0.00    +0.031 A 
ATOM     26  C   UNL     1      -0.290   2.363  -0.494  0.00  0.00    +0.020 A 
ATOM     27  C   UNL     1      -1.024   2.948   0.627  0.00  0.00    +0.003 A 
ATOM     28  C   UNL     1      -0.349   3.542   1.701  0.00  0.00    +0.059 A 
ATOM     29  C   UNL     1      -1.067   4.085   2.743  0.00  0.00    +0.167 A 
ATOM     30  C   UNL     1      -2.467   4.045   2.731  0.00  0.00    +0.168 A 
ATOM     31  C   UNL     1      -3.142   3.461   1.675  0.00  0.00    +0.075 A 
ATOM     32  C   UNL     1      -2.432   2.909   0.616  0.00  0.00    +0.053 A 
ATOM     33  N   UNL     1      -3.088   2.321  -0.446  0.00  0.00    -0.322 N 
ATOM     34  H   UNL     1      -4.058   2.294  -0.453  0.00  0.00    +0.169 HD
ATOM     35  C   UNL     1      -2.404   1.789  -1.474  0.00  0.00    +0.254 A 
ATOM     36  O   UNL     1      -3.017   1.282  -2.397  0.00  0.00    -0.268 OA
ATOM     37  O   UNL     1      -2.927   4.645   3.867  0.00  0.00    -0.453 OA
ATOM     38  C   UNL     1      -1.802   4.683   4.765  0.00  0.00    +0.466 C 
ATOM     39  O   UNL     1      -0.661   4.710   3.888  0.00  0.00    -0.453 OA
ENDBRANCH  24  25
ENDBRANCH   1  24
TORSDOF 9
