REMARK  Name = ZINC20916196
REMARK  9 active torsions:
REMARK  status: ('A' for Active; 'I' for Inactive)
REMARK    1  A    between atoms: C_1  and  C_2
REMARK    2  A    between atoms: C_2  and  C_3
REMARK    3  A    between atoms: C_9  and  C_11
REMARK    4  A    between atoms: C_11  and  S_12
REMARK    5  A    between atoms: S_12  and  C_13
REMARK    6  A    between atoms: N_17  and  N_18
REMARK    7  A    between atoms: N_19  and  N_20
REMARK    8  A    between atoms: C_21  and  C_22
REMARK    9  A    between atoms: C_31  and  O_32
REMARK                            x       y       z     vdW  Elec       q    Type
REMARK                         _______ _______ _______ _____ _____    ______ ____
ROOT
ATOM      1  C   UNL     1      -3.234  11.553   0.094  0.00  0.00    +0.210 A 
ATOM      2  N   UNL     1      -1.922  11.544   0.083  0.00  0.00    -0.119 NA
ATOM      3  N   UNL     1      -1.498  10.209   0.076  0.00  0.00    -0.109 NA
ATOM      4  C   UNL     1      -2.563   9.445   0.076  0.00  0.00    +0.254 A 
ATOM      5  N   UNL     1      -3.664  10.256   0.091  0.00  0.00    -0.211 N 
ATOM      6  N   UNL     1      -2.573   8.059   0.069  0.00  0.00    -0.204 N 
ATOM      7  H   UNL     1      -3.529   7.515   0.075  0.00  0.00    +0.177 HD
ENDROOT
BRANCH   5   8
ATOM      8  N   UNL     1      -4.966   9.843   0.099  0.00  0.00    -0.294 N 
ATOM      9  H   UNL     1      -5.202   8.768   0.095  0.00  0.00    +0.163 HD
ATOM     10  H   UNL     1      -5.779  10.584   0.110  0.00  0.00    +0.163 HD
ENDBRANCH   5   8
BRANCH   6  11
ATOM     11  N   UNL     1      -1.364   7.350   0.054  0.00  0.00    -0.187 NA
ATOM     12  C   UNL     1      -1.373   6.050   0.047  0.00  0.00    +0.142 C 
BRANCH  12  13
ATOM     13  C   UNL     1      -0.105   5.307   0.032  0.00  0.00    +0.044 A 
ATOM     14  C   UNL     1      -0.096   3.845   0.024  0.00  0.00    -0.006 A 
ATOM     15  C   UNL     1      -1.286   3.107   0.031  0.00  0.00    +0.009 A 
ATOM     16  C   UNL     1      -1.234   1.745   0.017  0.00  0.00    +0.001 A 
ATOM     17  C   UNL     1      -0.013   1.076   0.008  0.00  0.00    +0.001 A 
ATOM     18  C   UNL     1       1.163   1.762   0.000  0.00  0.00    +0.008 A 
ATOM     19  C   UNL     1       1.148   3.168   0.008  0.00  0.00    -0.017 A 
ATOM     20  C   UNL     1       2.341   3.910   0.000  0.00  0.00    +0.012 A 
ATOM     21  C   UNL     1       2.315   5.270   0.008  0.00  0.00    +0.046 A 
ATOM     22  C   UNL     1       1.116   5.981   0.023  0.00  0.00    +0.126 A 
BRANCH  22  23
ATOM     23  O   UNL     1       1.137   7.339   0.031  0.00  0.00    -0.506 OA
ATOM     24  H   UNL     1       2.098   7.874   0.025  0.00  0.00    +0.292 HD
ENDBRANCH  22  23
ENDBRANCH  12  13
ENDBRANCH   6  11
BRANCH   1  25
ATOM     25  S   UNL     1      -4.260  12.985   0.111  0.00  0.00    -0.075 S 
BRANCH  25  26
ATOM     26  C   UNL     1      -3.085  14.367   0.109  0.00  0.00    +0.173 C 
BRANCH  26  33
ATOM     27  C   UNL     1      -4.865  20.479   0.159  0.00  0.00    +0.103 A 
ATOM     28  N   UNL     1      -5.657  19.424   0.160  0.00  0.00    -0.145 NA
ATOM     29  N   UNL     1      -5.174  18.258   0.150  0.00  0.00    -0.126 NA
ATOM     30  C   UNL     1      -3.870  18.041   0.137  0.00  0.00    +0.188 A 
ATOM     31  S   UNL     1      -3.268  19.673   0.148  0.00  0.00    -0.035 S 
ATOM     32  N   UNL     1      -3.171  16.839   0.124  0.00  0.00    -0.263 N 
ATOM     33  C   UNL     1      -3.842  15.670   0.123  0.00  0.00    +0.229 C 
ATOM     34  O   UNL     1      -5.055  15.666   0.133  0.00  0.00    -0.275 OA
ATOM     35  H   UNL     1      -2.071  16.842   0.115  0.00  0.00    +0.157 HD
BRANCH  27  37
ATOM     36  C   UNL     1      -5.311  22.435   1.616  0.00  0.00    +0.011 C 
ATOM     37  C   UNL     1      -5.209  21.946   0.170  0.00  0.00    +0.061 C 
ENDBRANCH  27  37
ENDBRANCH  26  33
ENDBRANCH  25  26
ENDBRANCH   1  25
TORSDOF 8
