REMARK  Name = ZINC20678926
REMARK  9 active torsions:
REMARK  status: ('A' for Active; 'I' for Inactive)
REMARK    1  A    between atoms: C_1  and  C_2
REMARK    2  A    between atoms: C_2  and  O_3
REMARK    3  A    between atoms: O_3  and  C_4
REMARK    4  A    between atoms: C_4  and  C_5
REMARK    5  A    between atoms: C_5  and  O_6
REMARK    6  A    between atoms: O_6  and  C_7
REMARK    7  A    between atoms: C_14  and  C_23
REMARK    8  A    between atoms: C_26  and  O_29
REMARK    9  A    between atoms: O_29  and  C_30
REMARK                            x       y       z     vdW  Elec       q    Type
REMARK                         _______ _______ _______ _____ _____    ______ ____
ROOT
ATOM      1  C   UNL     1      -3.381  -0.553  -1.351  0.00  0.00    +0.142 A 
ATOM      2  C   UNL     1      -3.997  -1.290  -0.356  0.00  0.00    +0.047 A 
ATOM      3  C   UNL     1      -5.313  -1.686  -0.511  0.00  0.00    +0.004 A 
ATOM      4  C   UNL     1      -6.003  -1.357  -1.659  0.00  0.00    +0.006 A 
ATOM      5  C   UNL     1      -5.393  -0.623  -2.669  0.00  0.00    -0.016 A 
ATOM      6  C   UNL     1      -4.080  -0.218  -2.515  0.00  0.00    +0.074 A 
ATOM      7  N   UNL     1      -3.412   0.529  -3.489  0.00  0.00    -0.334 N 
ATOM      8  C   UNL     1      -3.968   0.344  -4.817  0.00  0.00    +0.105 C 
ATOM      9  C   UNL     1      -5.460   0.685  -4.819  0.00  0.00    +0.029 C 
ATOM     10  C   UNL     1      -6.199  -0.305  -3.894  0.00  0.00    +0.049 C 
ATOM     11  C   UNL     1      -6.398  -1.543  -4.738  0.00  0.00    -0.023 C 
ATOM     12  C   UNL     1      -6.309  -1.248  -6.011  0.00  0.00    -0.030 C 
ATOM     13  C   UNL     1      -6.044   0.233  -6.197  0.00  0.00    +0.033 C 
ATOM     14  H   UNL     1      -2.555   1.203  -3.340  0.00  0.00    +0.147 HD
ENDROOT
BRANCH   8  15
ATOM     15  C   UNL     1      -3.248   1.232  -5.798  0.00  0.00    -0.027 A 
ATOM     16  C   UNL     1      -2.922   2.529  -5.445  0.00  0.00    +0.009 A 
ATOM     17  C   UNL     1      -2.257   3.344  -6.341  0.00  0.00    +0.046 A 
ATOM     18  C   UNL     1      -1.926   2.864  -7.599  0.00  0.00    +0.120 A 
ATOM     19  C   UNL     1      -2.259   1.565  -7.954  0.00  0.00    +0.046 A 
ATOM     20  C   UNL     1      -2.919   0.752  -7.052  0.00  0.00    +0.009 A 
BRANCH  18  21
ATOM     21  O   UNL     1      -1.278   3.666  -8.485  0.00  0.00    -0.495 OA
ATOM     22  C   UNL     1      -0.967   4.992  -8.052  0.00  0.00    +0.277 C 
ENDBRANCH  18  21
ENDBRANCH   8  15
BRANCH   1  23
ATOM     23  O   UNL     1      -2.089  -0.158  -1.200  0.00  0.00    -0.488 OA
BRANCH  23  24
ATOM     24  C   UNL     1      -1.433  -0.534   0.013  0.00  0.00    +0.257 C 
BRANCH  24  25
ATOM     25  C   UNL     1       0.002  -0.004   0.002  0.00  0.00    +0.200 C 
BRANCH  25  26
ATOM     26  O   UNL     1      -0.017   1.425   0.010  0.00  0.00    -0.377 OA
BRANCH  26  28
ATOM     27  C   UNL     1       1.139   3.547   0.010  0.00  0.00    +0.034 C 
ATOM     28  C   UNL     1       1.280   2.024   0.001  0.00  0.00    +0.156 C 
ENDBRANCH  26  28
ENDBRANCH  25  26
ENDBRANCH  24  25
ENDBRANCH  23  24
ENDBRANCH   1  23
TORSDOF 7
