REMARK  Name = ZINC36047460
REMARK  5 active torsions:
REMARK  status: ('A' for Active; 'I' for Inactive)
REMARK    1  A    between atoms: C_1  and  C_2
REMARK    2  A    between atoms: C_8  and  C_14
REMARK    3  A    between atoms: C_11  and  C_13
REMARK    4  A    between atoms: N_16  and  C_17
REMARK    5  A    between atoms: C_17  and  C_18
REMARK                            x       y       z     vdW  Elec       q    Type
REMARK                         _______ _______ _______ _____ _____    ______ ____
ROOT
ATOM      1  C   UNL     1      -2.974  -2.047   3.200  0.00  0.00    +0.248 C 
ATOM      2  O   UNL     1      -2.075  -1.934   4.011  0.00  0.00    -0.270 OA
ATOM      3  N   UNL     1      -4.146  -2.602   3.564  0.00  0.00    -0.308 N 
ATOM      4  H   UNL     1      -4.863  -2.692   2.917  0.00  0.00    +0.149 HD
ENDROOT
BRANCH   1  11
ATOM      5  C   UNL     1      -0.019   1.526   0.010  0.00  0.00    +0.016 C 
ATOM      6  C   UNL     1       0.002  -0.004   0.002  0.00  0.00    +0.060 C 
ATOM      7  C   UNL     1      -1.402  -0.566   0.122  0.00  0.00    +0.001 A 
ATOM      8  C   UNL     1      -2.426  -0.695  -0.790  0.00  0.00    +0.007 A 
ATOM      9  C   UNL     1      -3.632  -1.264  -0.411  0.00  0.00    +0.001 A 
ATOM     10  C   UNL     1      -3.809  -1.704   0.883  0.00  0.00    +0.017 A 
ATOM     11  C   UNL     1      -2.780  -1.575   1.815  0.00  0.00    +0.079 A 
ATOM     12  C   UNL     1      -1.557  -0.995   1.433  0.00  0.00    +0.137 A 
ATOM     13  O   UNL     1      -0.439  -0.755   2.167  0.00  0.00    -0.487 OA
ATOM     14  C   UNL     1       0.677  -0.555   1.280  0.00  0.00    +0.178 C 
ATOM     15  C   UNL     1       1.655   0.468   1.861  0.00  0.00    +0.052 C 
ENDBRANCH   1  11
BRANCH   3  16
ATOM     16  C   UNL     1      -4.338  -3.070   4.939  0.00  0.00    +0.152 C 
BRANCH  16  17
ATOM     17  C   UNL     1      -5.745  -3.654   5.087  0.00  0.00    +0.228 C 
ATOM     18  C   UNL     1      -5.992  -4.045   6.551  0.00  0.00    +0.275 C 
ATOM     19  O   UNL     1      -7.308  -4.598   6.651  0.00  0.00    -0.485 OA
ATOM     20  C   UNL     1      -7.659  -5.517   5.710  0.00  0.00    +0.162 A 
ATOM     21  C   UNL     1      -8.745  -6.348   5.941  0.00  0.00    +0.049 A 
ATOM     22  C   UNL     1      -9.114  -7.284   4.993  0.00  0.00    +0.004 A 
ATOM     23  C   UNL     1      -8.403  -7.394   3.813  0.00  0.00    +0.004 A 
ATOM     24  C   UNL     1      -7.319  -6.570   3.577  0.00  0.00    +0.049 A 
ATOM     25  C   UNL     1      -6.942  -5.630   4.524  0.00  0.00    +0.163 A 
ATOM     26  O   UNL     1      -5.867  -4.830   4.281  0.00  0.00    -0.480 OA
ENDBRANCH  16  17
ENDBRANCH   3  16
TORSDOF 3
