REMARK  Name = ZINC63480054
REMARK  5 active torsions:
REMARK  status: ('A' for Active; 'I' for Inactive)
REMARK    1  A    between atoms: C_1  and  C_2
REMARK    2  A    between atoms: C_2  and  C_4
REMARK    3  A    between atoms: C_7  and  N_10
REMARK    4  A    between atoms: C_15  and  C_32
REMARK    5  A    between atoms: C_32  and  C_33
REMARK                            x       y       z     vdW  Elec       q    Type
REMARK                         _______ _______ _______ _____ _____    ______ ____
ROOT
ATOM      1  N   UNL     1      -4.842  -2.889   0.034  0.00  0.00    -0.210 N 
ATOM      2  C   UNL     1      -6.074  -2.299   0.038  0.00  0.00    +0.232 C 
ATOM      3  O   UNL     1      -6.334  -1.148  -0.239  0.00  0.00    -0.274 OA
ATOM      4  C   UNL     1      -7.040  -3.373   0.458  0.00  0.00    +0.107 C 
ATOM      5  C   UNL     1      -8.378  -3.505  -0.279  0.00  0.00    +0.072 C 
ATOM      6  N   UNL     1      -8.614  -4.987  -0.272  0.00  0.00    -0.295 NA
ATOM      7  C   UNL     1      -7.275  -5.651  -0.210  0.00  0.00    +0.136 C 
ATOM      8  C   UNL     1      -6.289  -4.559  -0.273  0.00  0.00    +0.123 C 
ATOM      9  C   UNL     1      -4.910  -4.260   0.034  0.00  0.00    +0.233 C 
ATOM     10  O   UNL     1      -4.012  -5.047   0.245  0.00  0.00    -0.274 OA
ATOM     11  C   UNL     1      -7.178  -6.469   1.051  0.00  0.00    +0.003 A 
ATOM     12  C   UNL     1      -7.208  -6.146   2.389  0.00  0.00    +0.008 A 
ATOM     13  C   UNL     1      -7.091  -7.141   3.344  0.00  0.00    +0.000 A 
ATOM     14  C   UNL     1      -6.947  -8.459   2.950  0.00  0.00    +0.002 A 
ATOM     15  C   UNL     1      -6.918  -8.787   1.611  0.00  0.00    +0.023 A 
ATOM     16  C   UNL     1      -7.035  -7.791   0.643  0.00  0.00    +0.039 A 
ATOM     17  N   UNL     1      -7.036  -7.869  -0.750  0.00  0.00    -0.283 N 
ATOM     18  C   UNL     1      -7.173  -6.662  -1.327  0.00  0.00    +0.243 C 
ATOM     19  O   UNL     1      -7.207  -6.429  -2.517  0.00  0.00    -0.273 OA
ATOM     20  H   UNL     1      -9.188  -5.258   0.513  0.00  0.00    +0.124 HD
ATOM     21  H   UNL     1      -6.948  -8.698  -1.246  0.00  0.00    +0.155 HD
ENDROOT
BRANCH   1  25
ATOM     22  C   UNL     1      -1.260  -0.756   0.010  0.00  0.00    +0.017 A 
ATOM     23  C   UNL     1      -2.483  -0.074   0.020  0.00  0.00    +0.013 A 
ATOM     24  C   UNL     1      -3.663  -0.783   0.027  0.00  0.00    +0.024 A 
ATOM     25  C   UNL     1      -3.641  -2.174   0.026  0.00  0.00    +0.044 A 
ATOM     26  C   UNL     1      -2.428  -2.856   0.016  0.00  0.00    +0.024 A 
ATOM     27  C   UNL     1      -1.244  -2.156   0.002  0.00  0.00    +0.013 A 
BRANCH  22  29
ATOM     28  C   UNL     1      -0.018   1.503   0.010  0.00  0.00    +0.091 C 
ATOM     29  C   UNL     1       0.002  -0.004   0.002  0.00  0.00    +0.160 C 
ATOM     30  O   UNL     1       1.060  -0.596  -0.011  0.00  0.00    -0.292 OA
ENDBRANCH  22  29
ENDBRANCH   1  25
BRANCH   5  31
ATOM     31  C   UNL     1      -9.488  -2.771   0.477  0.00  0.00    +0.052 C 
BRANCH  31  32
ATOM     32  C   UNL     1     -10.759  -2.815  -0.331  0.00  0.00    -0.040 C 
ATOM     33  C   UNL     1     -11.770  -3.706  -0.210  0.00  0.00    -0.001 A 
ATOM     34  C   UNL     1     -11.979  -4.858   0.675  0.00  0.00    +0.010 A 
ATOM     35  C   UNL     1     -13.117  -5.578   0.557  0.00  0.00    +0.001 A 
ATOM     36  C   UNL     1     -14.101  -5.253  -0.387  0.00  0.00    +0.002 A 
ATOM     37  C   UNL     1     -13.980  -4.209  -1.235  0.00  0.00    +0.026 A 
ATOM     38  C   UNL     1     -12.823  -3.383  -1.198  0.00  0.00    +0.043 A 
ATOM     39  N   UNL     1     -12.478  -2.333  -1.903  0.00  0.00    -0.380 N 
ATOM     40  C   UNL     1     -11.167  -1.867  -1.437  0.00  0.00    +0.144 C 
ATOM     41  H   UNL     1     -13.003  -1.929  -2.611  0.00  0.00    +0.160 HD
ENDBRANCH  31  32
ENDBRANCH   5  31
TORSDOF 4
