REMARK  Name = ZINC03226506
REMARK  9 active torsions:
REMARK  status: ('A' for Active; 'I' for Inactive)
REMARK    1  A    between atoms: C_1  and  C_2
REMARK    2  A    between atoms: C_5  and  C_9
REMARK    3  A    between atoms: C_6  and  C_8
REMARK    4  A    between atoms: N_11  and  N_12
REMARK    5  A    between atoms: N_12  and  C_13
REMARK    6  A    between atoms: C_16  and  C_20
REMARK    7  A    between atoms: C_20  and  C_21
REMARK    8  A    between atoms: C_20  and  C_22
REMARK    9  A    between atoms: C_20  and  C_23
REMARK                            x       y       z     vdW  Elec       q    Type
REMARK                         _______ _______ _______ _____ _____    ______ ____
ROOT
ATOM      1  C   UNL     1      -1.177   1.523  -0.041  0.00  0.00    +0.260 C 
ATOM      2  O   UNL     1      -1.241   2.735  -0.115  0.00  0.00    -0.269 OA
ATOM      3  N   UNL     1       0.024   0.911  -0.033  0.00  0.00    -0.233 N 
ATOM      4  H   UNL     1       0.075  -0.056   0.025  0.00  0.00    +0.173 HD
ENDROOT
BRANCH   1   9
ATOM      5  C   UNL     1      -6.000  -1.599   0.275  0.00  0.00    +0.044 C 
ATOM      6  C   UNL     1      -4.737  -0.782   0.192  0.00  0.00    -0.050 A 
ATOM      7  C   UNL     1      -3.505  -1.411   0.235  0.00  0.00    +0.004 A 
ATOM      8  C   UNL     1      -2.345  -0.668   0.160  0.00  0.00    +0.013 A 
ATOM      9  C   UNL     1      -2.416   0.721   0.040  0.00  0.00    +0.041 A 
ATOM     10  C   UNL     1      -3.662   1.349   0.003  0.00  0.00    -0.038 A 
ATOM     11  C   UNL     1      -4.814   0.594   0.074  0.00  0.00    +0.007 A 
ATOM     12  C   UNL     1      -3.747   2.849  -0.120  0.00  0.00    +0.044 C 
ENDBRANCH   1   9
BRANCH   3  13
ATOM     13  N   UNL     1       1.198   1.671  -0.116  0.00  0.00    -0.269 N 
ATOM     14  H   UNL     1       1.147   2.630  -0.251  0.00  0.00    +0.170 HD
BRANCH  13  15
ATOM     15  C   UNL     1       2.436   1.050  -0.004  0.00  0.00    +0.018 C 
ATOM     16  C   UNL     1       2.466  -0.253   0.056  0.00  0.00    -0.007 C 
ATOM     17  C   UNL     1       3.728  -1.058   0.162  0.00  0.00    +0.032 C 
ATOM     18  C   UNL     1       4.883  -0.166   0.623  0.00  0.00    -0.001 C 
ATOM     19  C   UNL     1       4.908   1.090  -0.257  0.00  0.00    +0.010 C 
ATOM     20  C   UNL     1       3.658   1.920   0.047  0.00  0.00    +0.052 C 
BRANCH  18  21
ATOM     21  C   UNL     1       6.205  -0.921   0.478  0.00  0.00    -0.035 C 
ATOM     22  C   UNL     1       7.360  -0.017   0.916  0.00  0.00    +0.011 C 
ATOM     23  C   UNL     1       6.176  -2.173   1.358  0.00  0.00    +0.011 C 
ATOM     24  C   UNL     1       6.403  -1.329  -0.983  0.00  0.00    +0.011 C 
ENDBRANCH  18  21
ENDBRANCH  13  15
ENDBRANCH   3  13
TORSDOF 4
