REMARK  Name = ZINC39194381
REMARK  12 active torsions:
REMARK  status: ('A' for Active; 'I' for Inactive)
REMARK    1  A    between atoms: C_1  and  C_2
REMARK    2  A    between atoms: C_2  and  C_4
REMARK    3  A    between atoms: C_2  and  O_17
REMARK    4  A    between atoms: N_6  and  C_7
REMARK    5  A    between atoms: C_9  and  N_14
REMARK    6  A    between atoms: O_17  and  C_18
REMARK    7  A    between atoms: C_18  and  C_20
REMARK    8  A    between atoms: C_20  and  C_22
REMARK    9  A    between atoms: C_20  and  N_25
REMARK   10  A    between atoms: C_22  and  C_23
REMARK   11  A    between atoms: C_22  and  C_24
REMARK   12  A    between atoms: C_26  and  C_28
REMARK                            x       y       z     vdW  Elec       q    Type
REMARK                         _______ _______ _______ _____ _____    ______ ____
ROOT
ATOM      1  C   UNL     1      -1.910  -0.688   1.200  0.00  0.00    +0.329 C 
ATOM      2  O   UNL     1      -1.286  -0.461   2.210  0.00  0.00    -0.249 OA
ENDROOT
BRANCH   1   3
ATOM      3  O   UNL     1      -1.345  -0.479   0.001  0.00  0.00    -0.451 OA
BRANCH   3   5
ATOM      4  C   UNL     1      -0.019   1.541  -0.008  0.00  0.00    +0.062 C 
ATOM      5  C   UNL     1      -0.003   0.011  -0.007  0.00  0.00    +0.259 C 
BRANCH   5   6
ATOM      6  C   UNL     1       0.706  -0.485  -1.241  0.00  0.00    +0.258 C 
ATOM      7  O   UNL     1       0.095  -1.113  -2.080  0.00  0.00    -0.271 OA
ATOM      8  N   UNL     1       2.018  -0.231  -1.413  0.00  0.00    -0.281 N 
ATOM      9  H   UNL     1       2.492   0.326  -0.775  0.00  0.00    +0.155 HD
BRANCH   8  10
ATOM     10  C   UNL     1       2.698  -0.770  -2.511  0.00  0.00    +0.054 A 
ATOM     11  C   UNL     1       2.046  -0.919  -3.728  0.00  0.00    +0.057 A 
ATOM     12  C   UNL     1       2.720  -1.451  -4.810  0.00  0.00    +0.128 A 
ATOM     13  C   UNL     1       4.042  -1.836  -4.683  0.00  0.00    +0.034 A 
ATOM     14  C   UNL     1       4.695  -1.690  -3.473  0.00  0.00    +0.024 A 
ATOM     15  C   UNL     1       4.028  -1.153  -2.387  0.00  0.00    +0.062 A 
ATOM     16 CL   UNL     1       4.850  -0.963  -0.870  0.00  0.00    -0.082 Cl
BRANCH  12  17
ATOM     17  N   UNL     1       2.025  -1.610  -6.108  0.00  0.00    +0.056 N 
ATOM     18  O   UNL     1       0.870  -1.274  -6.220  0.00  0.00    -0.126 OA
ATOM     19  O   UNL     1       2.614  -2.075  -7.056  0.00  0.00    -0.126 OA
ENDBRANCH  12  17
ENDBRANCH   8  10
ENDBRANCH   5   6
ENDBRANCH   3   5
ENDBRANCH   1   3
BRANCH   1  20
ATOM     20  C   UNL     1      -3.323  -1.204   1.288  0.00  0.00    +0.185 C 
BRANCH  20  21
ATOM     21  N   UNL     1      -3.705  -1.345   2.695  0.00  0.00    -0.298 N 
ATOM     22  C   UNL     1      -5.005  -1.295   3.049  0.00  0.00    +0.250 C 
ATOM     23  O   UNL     1      -5.860  -1.133   2.200  0.00  0.00    -0.270 OA
ATOM     24  H   UNL     1      -3.023  -1.475   3.372  0.00  0.00    +0.150 HD
BRANCH  22  25
ATOM     25  C   UNL     1      -5.390  -1.438   4.466  0.00  0.00    +0.107 A 
ATOM     26  C   UNL     1      -5.494  -0.307   5.283  0.00  0.00    +0.138 A 
ATOM     27  C   UNL     1      -5.856  -0.450   6.610  0.00  0.00    +0.039 A 
ATOM     28  C   UNL     1      -6.114  -1.705   7.129  0.00  0.00    +0.006 A 
ATOM     29  C   UNL     1      -6.013  -2.828   6.328  0.00  0.00    +0.039 A 
ATOM     30  C   UNL     1      -5.659  -2.703   4.998  0.00  0.00    +0.138 A 
ATOM     31  F   UNL     1      -5.566  -3.801   4.216  0.00  0.00    -0.205 F 
ATOM     32  F   UNL     1      -5.242   0.920   4.778  0.00  0.00    -0.205 F 
ENDBRANCH  22  25
ENDBRANCH  20  21
BRANCH  20  33
ATOM     33  C   UNL     1      -3.413  -2.566   0.596  0.00  0.00    +0.014 C 
ATOM     34  C   UNL     1      -4.847  -3.090   0.684  0.00  0.00    +0.009 C 
ATOM     35  C   UNL     1      -3.013  -2.418  -0.874  0.00  0.00    +0.009 C 
ENDBRANCH  20  33
ENDBRANCH   1  20
TORSDOF 9
