REMARK  Name = ZINC13112921
REMARK  8 active torsions:
REMARK  status: ('A' for Active; 'I' for Inactive)
REMARK    1  A    between atoms: C_1  and  C_2
REMARK    2  A    between atoms: C_2  and  C_4
REMARK    3  A    between atoms: C_2  and  N_14
REMARK    4  A    between atoms: C_15  and  C_17
REMARK    5  A    between atoms: C_17  and  N_18
REMARK    6  A    between atoms: C_21  and  C_25
REMARK    7  A    between atoms: C_21  and  C_32
REMARK    8  A    between atoms: C_25  and  C_26
REMARK                            x       y       z     vdW  Elec       q    Type
REMARK                         _______ _______ _______ _____ _____    ______ ____
ROOT
ATOM      1  N   UNL     1      -4.695  -2.297   2.860  0.00  0.00    -0.215 N 
ATOM      2  C   UNL     1      -5.260  -1.824   3.988  0.00  0.00    +0.252 C 
ATOM      3  O   UNL     1      -4.784  -1.025   4.767  0.00  0.00    -0.272 OA
ATOM      4  C   UNL     1      -6.616  -2.495   4.080  0.00  0.00    +0.142 C 
ATOM      5  N   UNL     1      -6.658  -3.355   2.885  0.00  0.00    -0.281 N 
ATOM      6  C   UNL     1      -5.494  -3.171   2.237  0.00  0.00    +0.310 C 
ATOM      7  O   UNL     1      -5.200  -3.735   1.201  0.00  0.00    -0.252 OA
ATOM      8  H   UNL     1      -7.384  -3.940   2.617  0.00  0.00    +0.152 HD
ENDROOT
BRANCH   4   9
ATOM      9  C   UNL     1      -6.711  -3.326   5.335  0.00  0.00    -0.015 A 
ATOM     10  C   UNL     1      -7.277  -2.790   6.477  0.00  0.00    +0.006 A 
ATOM     11  C   UNL     1      -7.368  -3.553   7.626  0.00  0.00    +0.000 A 
ATOM     12  C   UNL     1      -6.885  -4.848   7.635  0.00  0.00    +0.000 A 
ATOM     13  C   UNL     1      -6.315  -5.382   6.495  0.00  0.00    +0.000 A 
ATOM     14  C   UNL     1      -6.228  -4.621   5.344  0.00  0.00    +0.006 A 
ENDBRANCH   4   9
BRANCH   1  15
ATOM     15  C   UNL     1      -3.367  -1.907   2.379  0.00  0.00    +0.213 C 
BRANCH  15  17
ATOM     16  N   UNL     1      -2.393  -0.175   0.906  0.00  0.00    -0.307 N 
ATOM     17  C   UNL     1      -3.493  -0.712   1.470  0.00  0.00    +0.231 C 
ATOM     18  O   UNL     1      -4.585  -0.232   1.247  0.00  0.00    -0.274 OA
ATOM     19  H   UNL     1      -1.520  -0.559   1.084  0.00  0.00    +0.149 HD
BRANCH  16  21
ATOM     20  C   UNL     1      -2.836   0.517  -1.398  0.00  0.00    +0.033 C 
ATOM     21  C   UNL     1      -2.516   0.987   0.022  0.00  0.00    +0.100 C 
BRANCH  21  22
ATOM     22  C   UNL     1      -1.218   1.753   0.017  0.00  0.00    -0.027 A 
ATOM     23  C   UNL     1      -0.013   1.076   0.008  0.00  0.00    +0.006 A 
ATOM     24  C   UNL     1       1.171   1.784   0.001  0.00  0.00    +0.004 A 
ATOM     25  C   UNL     1       1.163   3.173   0.008  0.00  0.00    -0.044 A 
ATOM     26  C   UNL     1      -0.037   3.848   0.018  0.00  0.00    -0.044 A 
ATOM     27  C   UNL     1      -1.228   3.132   0.027  0.00  0.00    +0.009 A 
ATOM     28  C   UNL     1      -0.122   5.351   0.015  0.00  0.00    +0.035 C 
ATOM     29  C   UNL     1       1.210   5.965   0.442  0.00  0.00    +0.005 C 
ATOM     30  C   UNL     1       2.323   5.341  -0.407  0.00  0.00    +0.005 C 
ATOM     31  C   UNL     1       2.491   3.883   0.014  0.00  0.00    +0.035 C 
ENDBRANCH  21  22
ENDBRANCH  16  21
ENDBRANCH  15  17
ENDBRANCH   1  15
BRANCH   4  32
ATOM     32  C   UNL     1      -7.739  -1.458   4.037  0.00  0.00    +0.075 C 
BRANCH  32  33
ATOM     33  C   UNL     1      -7.664  -0.689   2.743  0.00  0.00    -0.045 A 
ATOM     34  C   UNL     1      -6.913   0.469   2.670  0.00  0.00    +0.004 A 
ATOM     35  C   UNL     1      -6.840   1.171   1.481  0.00  0.00    +0.000 A 
ATOM     36  C   UNL     1      -7.526   0.721   0.369  0.00  0.00    +0.000 A 
ATOM     37  C   UNL     1      -8.282  -0.434   0.444  0.00  0.00    +0.000 A 
ATOM     38  C   UNL     1      -8.351  -1.139   1.631  0.00  0.00    +0.004 A 
ENDBRANCH  32  33
ENDBRANCH   4  32
TORSDOF 7
