REMARK  Name = ZINC09386235
REMARK  7 active torsions:
REMARK  status: ('A' for Active; 'I' for Inactive)
REMARK    1  A    between atoms: C_1  and  N_59
REMARK    2  A    between atoms: C_2  and  C_3
REMARK    3  A    between atoms: C_2  and  N_59
REMARK    4  A    between atoms: N_5  and  C_14
REMARK    5  A    between atoms: C_7  and  C_8
REMARK    6  A    between atoms: C_20  and  C_21
REMARK    7  A    between atoms: C_20  and  N_59
REMARK                            x       y       z     vdW  Elec       q    Type
REMARK                         _______ _______ _______ _____ _____    ______ ____
ROOT
ATOM      1  C   UNL     1       3.364   3.877   1.266  0.00  0.00    -0.039 C 
ENDROOT
BRANCH   1   2
ATOM      2  C   UNL     1       2.242   4.635   0.604  0.00  0.00    -0.018 A 
ATOM      3  C   UNL     1       1.055   4.120   0.217  0.00  0.00    +0.116 A 
ATOM      4  N   UNL     1       0.325   5.124  -0.335  0.00  0.00    -0.239 N 
ATOM      5  N   UNL     1       1.090   6.297  -0.279  0.00  0.00    -0.166 NA
ATOM      6  C   UNL     1       2.246   6.006   0.280  0.00  0.00    +0.094 A 
BRANCH   6   7
ATOM      7  C   UNL     1       3.356   6.958   0.531  0.00  0.00    +0.002 A 
ATOM      8  C   UNL     1       3.730   7.871  -0.453  0.00  0.00    +0.010 A 
ATOM      9  C   UNL     1       4.763   8.754  -0.214  0.00  0.00    +0.001 A 
ATOM     10  C   UNL     1       5.427   8.734   0.999  0.00  0.00    +0.000 A 
ATOM     11  C   UNL     1       5.060   7.830   1.979  0.00  0.00    +0.001 A 
ATOM     12  C   UNL     1       4.029   6.942   1.751  0.00  0.00    +0.010 A 
ENDBRANCH   6   7
BRANCH   4  13
ATOM     13  C   UNL     1      -0.968   5.009  -0.862  0.00  0.00    +0.065 A 
ATOM     14  C   UNL     1      -1.615   3.780  -0.855  0.00  0.00    +0.028 A 
ATOM     15  C   UNL     1      -2.892   3.671  -1.370  0.00  0.00    +0.002 A 
ATOM     16  C   UNL     1      -3.521   4.781  -1.905  0.00  0.00    +0.000 A 
ATOM     17  C   UNL     1      -2.877   6.004  -1.919  0.00  0.00    +0.002 A 
ATOM     18  C   UNL     1      -1.602   6.121  -1.399  0.00  0.00    +0.028 A 
ENDBRANCH   4  13
ENDBRANCH   1   2
BRANCH   1  20
ATOM     19  C   UNL     1       4.066   2.669  -0.711  0.00  0.00    -0.095 C 
ATOM     20  N   UNL     1       4.454   3.690   0.285  0.00  0.00    +0.386 N 
ATOM     21  H   UNL     1       4.624   4.580  -0.199  0.00  0.00    -0.081 HD
BRANCH  20  22
ATOM     22  C   UNL     1       5.692   3.276   0.978  0.00  0.00    +0.019 C 
BRANCH  22  23
ATOM     23  C   UNL     1       6.833   3.306  -0.006  0.00  0.00    +0.204 C 
ATOM     24  O   UNL     1       6.631   3.621  -1.160  0.00  0.00    -0.277 OA
ATOM     25  N   UNL     1       8.078   2.983   0.396  0.00  0.00    -0.262 N 
ATOM     26  C   UNL     1       8.350   2.598   1.789  0.00  0.00    +0.209 C 
ATOM     27  C   UNL     1       9.631   3.252   2.238  0.00  0.00    +0.235 C 
ATOM     28  O   UNL     1       9.786   3.523   3.410  0.00  0.00    -0.274 OA
ATOM     29  N   UNL     1      10.606   3.538   1.355  0.00  0.00    -0.283 N 
ATOM     30  C   UNL     1      10.434   3.281  -0.009  0.00  0.00    +0.055 A 
ATOM     31  C   UNL     1       9.156   2.998  -0.503  0.00  0.00    +0.058 A 
ATOM     32  C   UNL     1       8.967   2.743  -1.849  0.00  0.00    +0.025 A 
ATOM     33  C   UNL     1      10.051   2.760  -2.709  0.00  0.00    +0.002 A 
ATOM     34  C   UNL     1      11.318   3.031  -2.226  0.00  0.00    +0.002 A 
ATOM     35  C   UNL     1      11.514   3.300  -0.876  0.00  0.00    +0.025 A 
ATOM     36  H   UNL     1      11.438   3.927   1.668  0.00  0.00    +0.155 HD
ENDBRANCH  22  23
ENDBRANCH  20  22
ENDBRANCH   1  20
TORSDOF 6
