REMARK  Name = ZINC19819851
REMARK  2 active torsions:
REMARK  status: ('A' for Active; 'I' for Inactive)
REMARK    1  A    between atoms: C_4  and  C_7
REMARK    2  A    between atoms: C_7  and  C_8
REMARK                            x       y       z     vdW  Elec       q    Type
REMARK                         _______ _______ _______ _____ _____    ______ ____
ROOT
ATOM      1  C   UNL     1       4.351   5.692   1.050  0.00  0.00    -0.004 C 
ATOM      2  C   UNL     1       3.371   6.171  -0.025  0.00  0.00    +0.023 C 
ATOM      3  C   UNL     1       2.044   5.426   0.133  0.00  0.00    +0.108 C 
ATOM      4  N   UNL     1       2.274   3.982   0.003  0.00  0.00    -0.301 N 
ATOM      5  C   UNL     1       3.175   3.490   1.053  0.00  0.00    +0.108 C 
ATOM      6  C   UNL     1       4.535   4.177   0.923  0.00  0.00    +0.023 C 
ATOM      7  C   UNL     1       1.090   3.294   0.010  0.00  0.00    +0.200 A 
ATOM      8  N   UNL     1       1.133   1.932   0.002  0.00  0.00    -0.294 N 
ATOM      9  H   UNL     1       2.102   1.412  -0.011  0.00  0.00    +0.172 HD
ATOM     10  C   UNL     1      -0.014   1.213   0.009  0.00  0.00    +0.262 A 
ATOM     11  O   UNL     1       0.002  -0.004   0.002  0.00  0.00    -0.267 OA
ATOM     12  C   UNL     1      -1.280   1.959   0.019  0.00  0.00    +0.087 A 
ATOM     13  C   UNL     1      -2.513   1.315   0.029  0.00  0.00    -0.020 A 
ATOM     14  C   UNL     1      -3.661   2.111   0.047  0.00  0.00    +0.040 A 
ATOM     15  C   UNL     1      -3.537   3.509   0.055  0.00  0.00    +0.124 A 
ATOM     16  N   UNL     1      -2.358   4.087   0.048  0.00  0.00    -0.235 NA
ATOM     17  C   UNL     1      -1.229   3.375   0.033  0.00  0.00    +0.169 A 
ATOM     18  N   UNL     1      -0.028   3.979   0.025  0.00  0.00    -0.196 NA
ATOM     19  C   UNL     1      -4.991   1.483   0.061  0.00  0.00    +0.165 C 
ATOM     20  O   UNL     1      -5.990   2.133   0.285  0.00  0.00    -0.292 OA
ATOM     21  C   UNL     1      -5.068  -0.004  -0.216  0.00  0.00    +0.080 C 
ATOM     22  C   UNL     1      -3.926  -0.677   0.557  0.00  0.00    +0.012 C 
ATOM     23  C   UNL     1      -2.587  -0.184   0.013  0.00  0.00    +0.037 C 
ENDROOT
BRANCH   1  24
ATOM     24  C   UNL     1       5.699   6.390   0.861  0.00  0.00    +0.038 C 
BRANCH  24  28
ATOM     25  C   UNL     1       8.320   5.319   4.059  0.00  0.00    +0.000 A 
ATOM     26  C   UNL     1       8.290   4.558   2.906  0.00  0.00    +0.000 A 
ATOM     27  C   UNL     1       7.442   4.905   1.871  0.00  0.00    +0.003 A 
ATOM     28  C   UNL     1       6.624   6.012   1.989  0.00  0.00    -0.047 A 
ATOM     29  C   UNL     1       6.657   6.777   3.141  0.00  0.00    +0.003 A 
ATOM     30  C   UNL     1       7.502   6.427   4.178  0.00  0.00    +0.000 A 
ENDBRANCH  24  28
ENDBRANCH   1  24
TORSDOF 2
