REMARK  Name = ZINC38578480
REMARK  7 active torsions:
REMARK  status: ('A' for Active; 'I' for Inactive)
REMARK    1  A    between atoms: C_1  and  C_2
REMARK    2  A    between atoms: C_2  and  C_21
REMARK    3  A    between atoms: N_3  and  N_4
REMARK    4  A    between atoms: C_5  and  C_7
REMARK    5  A    between atoms: C_10  and  C_13
REMARK    6  A    between atoms: C_16  and  O_19
REMARK    7  A    between atoms: O_19  and  C_20
REMARK                            x       y       z     vdW  Elec       q    Type
REMARK                         _______ _______ _______ _____ _____    ______ ____
ROOT
ATOM      1  N   UNL     1      -0.304  -2.049   1.095  0.00  0.00    -0.205 N 
ATOM      2  C   UNL     1      -0.496  -2.720   2.248  0.00  0.00    +0.263 C 
ATOM      3  O   UNL     1      -0.399  -2.142   3.310  0.00  0.00    -0.271 OA
ATOM      4  H   UNL     1      -0.310  -2.525   0.250  0.00  0.00    +0.177 HD
ENDROOT
BRANCH   2   5
ATOM      5  C   UNL     1      -0.832  -4.189   2.218  0.00  0.00    +0.240 C 
ATOM      6  C   UNL     1       0.433  -5.028   2.192  0.00  0.00    +0.041 C 
ATOM      7  C   UNL     1       0.365  -5.750   3.328  0.00  0.00    +0.092 C 
ATOM      8  N   UNL     1      -0.769  -5.447   4.014  0.00  0.00    -0.153 NA
ATOM      9  N   UNL     1      -1.486  -4.598   3.472  0.00  0.00    -0.170 NA
BRANCH   7  10
ATOM     10  C   UNL     1       1.382  -6.736   3.767  0.00  0.00    +0.002 A 
ATOM     11  C   UNL     1       2.514  -6.965   2.986  0.00  0.00    +0.013 A 
ATOM     12  C   UNL     1       3.459  -7.882   3.397  0.00  0.00    +0.046 A 
ATOM     13  C   UNL     1       3.283  -8.576   4.586  0.00  0.00    +0.120 A 
ATOM     14  C   UNL     1       2.157  -8.350   5.366  0.00  0.00    +0.046 A 
ATOM     15  C   UNL     1       1.212  -7.430   4.963  0.00  0.00    +0.013 A 
BRANCH  13  16
ATOM     16  O   UNL     1       4.215  -9.479   4.988  0.00  0.00    -0.495 OA
ATOM     17  C   UNL     1       3.972 -10.158   6.222  0.00  0.00    +0.277 C 
ENDBRANCH  13  16
ENDBRANCH   7  10
ENDBRANCH   2   5
BRANCH   1  20
ATOM     18  C   UNL     1       0.092   1.501   0.024  0.00  0.00    +0.068 C 
ATOM     19  C   UNL     1      -0.003  -0.003   0.003  0.00  0.00    +0.064 C 
ATOM     20  N   UNL     1      -0.095  -0.664   1.117  0.00  0.00    -0.184 NA
BRANCH  19  21
ATOM     21  C   UNL     1       0.008  -0.722  -1.280  0.00  0.00    +0.005 A 
ATOM     22  C   UNL     1       1.062  -1.566  -1.612  0.00  0.00    +0.010 A 
ATOM     23  C   UNL     1       1.069  -2.243  -2.823  0.00  0.00    +0.001 A 
ATOM     24  C   UNL     1       0.059  -2.112  -3.726  0.00  0.00    +0.008 A 
ATOM     25  C   UNL     1      -1.038  -1.277  -3.458  0.00  0.00    -0.017 A 
ATOM     26  C   UNL     1      -1.092  -0.570  -2.231  0.00  0.00    -0.009 A 
ATOM     27  C   UNL     1      -2.186   0.260  -1.957  0.00  0.00    +0.009 A 
ATOM     28  C   UNL     1      -3.190   0.374  -2.872  0.00  0.00    +0.001 A 
ATOM     29  C   UNL     1      -3.143  -0.324  -4.077  0.00  0.00    +0.001 A 
ATOM     30  C   UNL     1      -2.089  -1.131  -4.380  0.00  0.00    +0.008 A 
ENDBRANCH  19  21
ENDBRANCH   1  20
TORSDOF 5
