REMARK  Name = ZINC19352133
REMARK  11 active torsions:
REMARK  status: ('A' for Active; 'I' for Inactive)
REMARK    1  A    between atoms: C_1  and  C_2
REMARK    2  A    between atoms: C_2  and  C_3
REMARK    3  A    between atoms: C_2  and  C_4
REMARK    4  A    between atoms: C_4  and  C_6
REMARK    5  A    between atoms: C_4  and  N_17
REMARK    6  A    between atoms: C_18  and  C_20
REMARK    7  A    between atoms: C_20  and  S_21
REMARK    8  A    between atoms: S_21  and  C_22
REMARK    9  A    between atoms: C_25  and  S_27
REMARK   10  A    between atoms: S_27  and  C_28
REMARK   11  A    between atoms: C_28  and  C_29
REMARK                            x       y       z     vdW  Elec       q    Type
REMARK                         _______ _______ _______ _____ _____    ______ ____
ROOT
ATOM      1  N   UNL     1      -0.288   1.272  -2.443  0.00  0.00    -0.308 N 
ATOM      2  C   UNL     1      -0.742   1.585  -1.213  0.00  0.00    +0.224 C 
ATOM      3  O   UNL     1      -1.736   2.268  -1.088  0.00  0.00    -0.275 OA
ATOM      4  H   UNL     1       0.614   0.653  -2.556  0.00  0.00    +0.149 HD
ENDROOT
BRANCH   1   5
ATOM      5  C   UNL     1      -0.997   1.758  -3.630  0.00  0.00    +0.106 C 
BRANCH   5   6
ATOM      6  C   UNL     1      -0.721   0.838  -4.791  0.00  0.00    -0.023 A 
ATOM      7  C   UNL     1       0.551   0.327  -4.978  0.00  0.00    +0.009 A 
ATOM      8  C   UNL     1       0.810  -0.523  -6.038  0.00  0.00    +0.050 A 
ATOM      9  C   UNL     1      -0.206  -0.851  -6.920  0.00  0.00    +0.162 A 
ATOM     10  C   UNL     1      -1.480  -0.334  -6.735  0.00  0.00    +0.162 A 
ATOM     11  C   UNL     1      -1.738   0.512  -5.670  0.00  0.00    +0.055 A 
ATOM     12  O   UNL     1      -2.475  -0.665  -7.609  0.00  0.00    -0.488 OA
ATOM     13  C   UNL     1      -2.342  -0.144  -8.933  0.00  0.00    +0.232 C 
ATOM     14  C   UNL     1      -1.453  -1.042  -9.779  0.00  0.00    +0.082 C 
ATOM     15  C   UNL     1      -0.021  -1.085  -9.269  0.00  0.00    +0.232 C 
ATOM     16  O   UNL     1       0.038  -1.684  -7.973  0.00  0.00    -0.488 OA
ENDBRANCH   5   6
BRANCH   5  18
ATOM     17  C   UNL     1      -0.795   4.103  -2.792  0.00  0.00    +0.009 C 
ATOM     18  C   UNL     1      -0.514   3.169  -3.971  0.00  0.00    +0.008 C 
ATOM     19  C   UNL     1       0.990   3.139  -4.251  0.00  0.00    +0.009 C 
ENDBRANCH   5  18
ENDBRANCH   1   5
BRANCH   2  20
ATOM     20  C   UNL     1      -0.013   1.086   0.008  0.00  0.00    +0.172 C 
BRANCH  20  21
ATOM     21  S   UNL     1      -0.862   1.671   1.500  0.00  0.00    -0.088 S 
BRANCH  21  22
ATOM     22  C   UNL     1       0.099   1.013   2.823  0.00  0.00    +0.160 A 
ATOM     23  N   UNL     1       1.186   0.267   2.776  0.00  0.00    -0.134 NA
ATOM     24  N   UNL     1       1.785  -0.144   3.944  0.00  0.00    -0.134 NA
ATOM     25  C   UNL     1       1.270   0.211   5.106  0.00  0.00    +0.160 A 
ATOM     26  S   UNL     1      -0.135   1.184   4.586  0.00  0.00    -0.033 S 
BRANCH  25  27
ATOM     27  S   UNL     1       1.825  -0.167   6.735  0.00  0.00    -0.088 S 
BRANCH  27  28
ATOM     28  C   UNL     1       3.304  -1.183   6.471  0.00  0.00    +0.171 C 
BRANCH  28  29
ATOM     29  C   UNL     1       3.886  -1.580   7.803  0.00  0.00    +0.221 C 
ATOM     30  O   UNL     1       3.355  -1.213   8.830  0.00  0.00    -0.275 OA
ATOM     31  N   UNL     1       4.996  -2.342   7.853  0.00  0.00    -0.329 N 
ATOM     32  H   UNL     1       5.421  -2.632   8.826  0.00  0.00    +0.145 HD
ATOM     33  H   UNL     1       5.478  -2.674   6.922  0.00  0.00    +0.145 HD
ENDBRANCH  28  29
ENDBRANCH  27  28
ENDBRANCH  25  27
ENDBRANCH  21  22
ENDBRANCH  20  21
ENDBRANCH   2  20
TORSDOF 9
