REMARK  Name = ZINC01069764
REMARK  7 active torsions:
REMARK  status: ('A' for Active; 'I' for Inactive)
REMARK    1  A    between atoms: C_4  and  N_7
REMARK    2  A    between atoms: C_8  and  N_31
REMARK    3  A    between atoms: C_13  and  S_14
REMARK    4  A    between atoms: S_14  and  C_15
REMARK    5  A    between atoms: C_15  and  C_16
REMARK    6  A    between atoms: N_18  and  C_19
REMARK    7  A    between atoms: N_18  and  C_25
REMARK                            x       y       z     vdW  Elec       q    Type
REMARK                         _______ _______ _______ _____ _____    ______ ____
ROOT
ATOM      1  N   UNL     1       3.726  -0.738  -0.031  0.00  0.00    -0.278 N 
ATOM      2  C   UNL     1       4.793  -0.044  -0.543  0.00  0.00    +0.108 A 
ATOM      3  C   UNL     1       5.835  -0.737  -1.088  0.00  0.00    +0.112 A 
ATOM      4  C   UNL     1       5.782  -2.145  -1.106  0.00  0.00    +0.254 A 
ATOM      5  O   UNL     1       6.703  -2.788  -1.588  0.00  0.00    -0.268 OA
ATOM      6  N   UNL     1       4.716  -2.778  -0.592  0.00  0.00    -0.303 N 
ATOM      7  C   UNL     1       3.717  -2.103  -0.063  0.00  0.00    +0.156 A 
ATOM      8  H   UNL     1       4.683  -3.747  -0.606  0.00  0.00    +0.171 HD
ENDROOT
BRANCH   1  12
ATOM      9  C   UNL     1       0.516   1.324   1.645  0.00  0.00    +0.000 A 
ATOM     10  C   UNL     1       1.780   1.456   2.189  0.00  0.00    +0.002 A 
ATOM     11  C   UNL     1       2.846   0.774   1.636  0.00  0.00    +0.026 A 
ATOM     12  C   UNL     1       2.647  -0.045   0.533  0.00  0.00    +0.050 A 
ATOM     13  C   UNL     1       1.376  -0.176  -0.011  0.00  0.00    +0.026 A 
ATOM     14  C   UNL     1       0.314   0.509   0.547  0.00  0.00    +0.002 A 
ENDBRANCH   1  12
BRANCH   2  15
ATOM     15  N   UNL     1       4.811   1.332  -0.509  0.00  0.00    -0.344 N 
ATOM     16  H   UNL     1       4.029   1.820  -0.209  0.00  0.00    +0.144 HD
ATOM     17  H   UNL     1       5.607   1.813  -0.785  0.00  0.00    +0.144 HD
ENDBRANCH   2  15
BRANCH   7  18
ATOM     18  S   UNL     1       2.340  -2.975   0.607  0.00  0.00    -0.080 S 
BRANCH  18  19
ATOM     19  C   UNL     1       2.759  -4.721   0.347  0.00  0.00    +0.173 C 
BRANCH  19  20
ATOM     20  C   UNL     1       1.649  -5.589   0.883  0.00  0.00    +0.226 C 
ATOM     21  O   UNL     1       0.532  -5.135   1.008  0.00  0.00    -0.275 OA
ATOM     22  N   UNL     1       1.899  -6.869   1.223  0.00  0.00    -0.295 N 
BRANCH  22  23
ATOM     23  C   UNL     1       0.865  -7.665   1.889  0.00  0.00    +0.076 C 
ATOM     24  C   UNL     1      -0.368  -7.756   0.988  0.00  0.00    +0.022 C 
ATOM     25  C   UNL     1      -1.448  -8.587   1.683  0.00  0.00    +0.002 C 
ATOM     26  C   UNL     1      -1.831  -7.921   3.007  0.00  0.00    +0.000 C 
ATOM     27  C   UNL     1      -0.597  -7.830   3.908  0.00  0.00    +0.002 C 
ATOM     28  C   UNL     1       0.482  -6.999   3.212  0.00  0.00    +0.022 C 
ENDBRANCH  22  23
BRANCH  22  29
ATOM     29  C   UNL     1       3.205  -7.464   0.927  0.00  0.00    +0.076 C 
ATOM     30  C   UNL     1       4.245  -6.927   1.911  0.00  0.00    +0.022 C 
ATOM     31  C   UNL     1       5.609  -7.548   1.602  0.00  0.00    +0.002 C 
ATOM     32  C   UNL     1       6.022  -7.186   0.174  0.00  0.00    +0.000 C 
ATOM     33  C   UNL     1       4.982  -7.723  -0.810  0.00  0.00    +0.002 C 
ATOM     34  C   UNL     1       3.618  -7.101  -0.501  0.00  0.00    +0.022 C 
ENDBRANCH  22  29
ENDBRANCH  19  20
ENDBRANCH  18  19
ENDBRANCH   7  18
TORSDOF 7
