REMARK  Name = ZINC22056434
REMARK  13 active torsions:
REMARK  status: ('A' for Active; 'I' for Inactive)
REMARK    1  A    between atoms: C_1  and  N_2
REMARK    2  A    between atoms: N_2  and  C_3
REMARK    3  A    between atoms: N_2  and  C_4
REMARK    4  A    between atoms: C_4  and  C_5
REMARK    5  A    between atoms: C_5  and  C_7
REMARK    6  A    between atoms: C_5  and  C_31
REMARK    7  A    between atoms: C_10  and  O_13
REMARK    8  A    between atoms: O_13  and  C_14
REMARK    9  A    between atoms: C_16  and  O_30
REMARK   10  A    between atoms: C_18  and  O_29
REMARK   11  A    between atoms: C_20  and  O_28
REMARK   12  A    between atoms: C_22  and  C_25
REMARK   13  A    between atoms: C_31  and  O_37
REMARK                            x       y       z     vdW  Elec       q    Type
REMARK                         _______ _______ _______ _____ _____    ______ ____
ROOT
ATOM      1  C   UNL     1       1.683  -6.670  -0.123  0.00  0.00    -0.043 A 
ATOM      2  C   UNL     1       2.141  -5.844  -1.132  0.00  0.00    +0.007 A 
ATOM      3  C   UNL     1       1.921  -4.482  -1.064  0.00  0.00    +0.046 A 
ATOM      4  C   UNL     1       1.241  -3.943   0.018  0.00  0.00    +0.124 A 
ATOM      5  C   UNL     1       0.788  -4.774   1.033  0.00  0.00    +0.046 A 
ATOM      6  C   UNL     1       1.005  -6.136   0.957  0.00  0.00    +0.007 A 
ENDROOT
BRANCH   1   7
ATOM      7  C   UNL     1       1.924  -8.156  -0.200  0.00  0.00    +0.034 C 
BRANCH   7   8
ATOM      8  C   UNL     1       0.582  -8.890  -0.205  0.00  0.00    +0.071 C 
ATOM      9  C   UNL     1       0.819 -10.383  -0.441  0.00  0.00    +0.035 C 
ATOM     10  C   UNL     1      -0.523 -11.118  -0.446  0.00  0.00    +0.003 C 
ATOM     11  C   UNL     1      -1.407 -10.559  -1.563  0.00  0.00    +0.000 C 
ATOM     12  C   UNL     1      -1.644  -9.066  -1.327  0.00  0.00    +0.003 C 
ATOM     13  C   UNL     1      -0.302  -8.331  -1.321  0.00  0.00    +0.035 C 
BRANCH   8  14
ATOM     14  O   UNL     1      -0.068  -8.705   1.055  0.00  0.00    -0.388 OA
ATOM     15  H   UNL     1      -1.051  -9.162   1.239  0.00  0.00    +0.210 HD
ENDBRANCH   8  14
ENDBRANCH   7   8
BRANCH   7  16
ATOM     16  C   UNL     1       2.745  -8.603   1.012  0.00  0.00    -0.069 C 
BRANCH  16  18
ATOM     17  C   UNL     1       4.048 -10.184  -0.279  0.00  0.00    -0.097 C 
ATOM     18  N   UNL     1       3.126 -10.013   0.852  0.00  0.00    +0.376 N 
ATOM     19  C   UNL     1       3.708 -10.544   2.091  0.00  0.00    -0.097 C 
ATOM     20  H   UNL     1       2.213 -10.586   0.633  0.00  0.00    -0.083 HD
ENDBRANCH  16  18
ENDBRANCH   7  16
ENDBRANCH   1   7
BRANCH   4  21
ATOM     21  O   UNL     1       1.024  -2.603   0.088  0.00  0.00    -0.461 OA
BRANCH  21  22
ATOM     22  C   UNL     1       0.317  -2.119   1.231  0.00  0.00    +0.340 C 
ATOM     23  C   UNL     1       0.276  -0.589   1.196  0.00  0.00    +0.214 C 
ATOM     24  C   UNL     1      -0.489  -0.135  -0.050  0.00  0.00    +0.180 C 
ATOM     25  C   UNL     1      -1.890  -0.753  -0.029  0.00  0.00    +0.186 C 
ATOM     26  C   UNL     1      -1.766  -2.276   0.053  0.00  0.00    +0.266 C 
ATOM     27  O   UNL     1      -1.018  -2.630   1.218  0.00  0.00    -0.322 OA
BRANCH  26  28
ATOM     28  C   UNL     1      -3.141  -2.889   0.133  0.00  0.00    +0.387 C 
ATOM     29  O   UNL     1      -3.480  -3.484   1.129  0.00  0.00    -0.243 OA
ATOM     30  O   UNL     1      -3.989  -2.773  -0.901  0.00  0.00    -0.243 OA
ENDBRANCH  26  28
BRANCH  25  31
ATOM     31  O   UNL     1      -2.609  -0.269   1.107  0.00  0.00    -0.386 OA
ATOM     32  H   UNL     1      -3.640  -0.605   1.290  0.00  0.00    +0.210 HD
ENDBRANCH  25  31
BRANCH  24  33
ATOM     33  O   UNL     1      -0.595   1.290  -0.053  0.00  0.00    -0.386 OA
ATOM     34  H   UNL     1      -1.116   1.802  -0.876  0.00  0.00    +0.210 HD
ENDBRANCH  24  33
BRANCH  23  35
ATOM     35  O   UNL     1       1.610  -0.077   1.151  0.00  0.00    -0.383 OA
ATOM     36  H   UNL     1       1.781   1.009   1.122  0.00  0.00    +0.210 HD
ENDBRANCH  23  35
ENDBRANCH  21  22
ENDBRANCH   4  21
TORSDOF 11
