REMARK  Name = ZINC06443600
REMARK  10 active torsions:
REMARK  status: ('A' for Active; 'I' for Inactive)
REMARK    1  A    between atoms: C_1  and  C_2
REMARK    2  A    between atoms: C_12  and  C_14
REMARK    3  A    between atoms: C_14  and  C_16
REMARK    4  A    between atoms: C_14  and  N_70
REMARK    5  A    between atoms: N_20  and  C_21
REMARK    6  A    between atoms: C_26  and  C_27
REMARK    7  A    between atoms: C_26  and  N_70
REMARK    8  A    between atoms: C_27  and  C_28
REMARK    9  A    between atoms: C_34  and  C_35
REMARK   10  A    between atoms: C_34  and  N_70
REMARK                            x       y       z     vdW  Elec       q    Type
REMARK                         _______ _______ _______ _____ _____    ______ ____
ROOT
ATOM      1  C   UNL     1      -1.448  -0.443   0.175  0.00  0.00    +0.039 C 
ENDROOT
BRANCH   1  13
ATOM      2  C   UNL     1      -0.692  -6.967   0.456  0.00  0.00    +0.046 C 
ATOM      3  C   UNL     1      -1.646  -6.108  -0.334  0.00  0.00    -0.026 A 
ATOM      4  C   UNL     1      -2.566  -6.693  -1.178  0.00  0.00    +0.005 A 
ATOM      5  C   UNL     1      -3.450  -5.913  -1.911  0.00  0.00    +0.001 A 
ATOM      6  C   UNL     1      -3.425  -4.551  -1.809  0.00  0.00    +0.010 A 
ATOM      7  C   UNL     1      -2.502  -3.936  -0.958  0.00  0.00    -0.001 A 
ATOM      8  C   UNL     1      -1.603  -4.723  -0.213  0.00  0.00    +0.052 A 
ATOM      9  N   UNL     1      -0.693  -4.112   0.623  0.00  0.00    -0.322 N 
ATOM     10  H   UNL     1      -0.074  -4.656   1.135  0.00  0.00    +0.169 HD
ATOM     11  C   UNL     1      -0.651  -2.773   0.739  0.00  0.00    +0.251 A 
ATOM     12  O   UNL     1       0.167  -2.267   1.488  0.00  0.00    -0.268 OA
ATOM     13  C   UNL     1      -1.530  -1.939   0.015  0.00  0.00    +0.011 A 
ATOM     14  C   UNL     1      -2.451  -2.479  -0.821  0.00  0.00    +0.017 A 
ENDBRANCH   1  13
BRANCH   1  15
ATOM     15  C   UNL     1      -1.821  -0.068   1.587  0.00  0.00    +0.143 A 
ATOM     16  N   UNL     1      -1.083  -0.225   2.659  0.00  0.00    -0.115 NA
ATOM     17  N   UNL     1      -1.750   0.218   3.668  0.00  0.00    -0.023 NA
ATOM     18  N   UNL     1      -2.896   0.646   3.269  0.00  0.00    -0.044 NA
ATOM     19  N   UNL     1      -2.978   0.487   1.992  0.00  0.00    -0.227 N 
BRANCH  19  20
ATOM     20  C   UNL     1      -4.117   0.842   1.141  0.00  0.00    +0.111 C 
ATOM     21  C   UNL     1      -4.432   2.345   1.282  0.00  0.00    +0.027 C 
ATOM     22  C   UNL     1      -5.979   2.416   1.220  0.00  0.00    +0.002 C 
ATOM     23  C   UNL     1      -6.411   1.152   2.005  0.00  0.00    +0.002 C 
ATOM     24  C   UNL     1      -5.375   0.083   1.601  0.00  0.00    +0.027 C 
ENDBRANCH  19  20
ENDBRANCH   1  15
BRANCH   1  25
ATOM     25  N   UNL     1      -0.060  -0.007  -0.085  0.00  0.00    +0.392 N 
ATOM     26  H   UNL     1       0.562  -0.445   0.604  0.00  0.00    -0.080 HD
BRANCH  25  27
ATOM     27  C   UNL     1       0.041   1.462   0.043  0.00  0.00    -0.072 C 
BRANCH  27  28
ATOM     28  C   UNL     1      -0.974   2.151  -0.873  0.00  0.00    +0.016 C 
BRANCH  28  29
ATOM     29  C   UNL     1      -0.764   3.642  -0.822  0.00  0.00    -0.049 A 
ATOM     30  C   UNL     1      -1.443   4.405   0.110  0.00  0.00    +0.003 A 
ATOM     31  C   UNL     1      -1.247   5.772   0.159  0.00  0.00    +0.000 A 
ATOM     32  C   UNL     1      -0.379   6.378  -0.730  0.00  0.00    +0.000 A 
ATOM     33  C   UNL     1       0.295   5.617  -1.666  0.00  0.00    +0.000 A 
ATOM     34  C   UNL     1       0.103   4.249  -1.712  0.00  0.00    +0.003 A 
ENDBRANCH  28  29
ENDBRANCH  27  28
ENDBRANCH  25  27
BRANCH  25  35
ATOM     35  C   UNL     1       0.355  -0.426  -1.440  0.00  0.00    -0.034 C 
BRANCH  35  36
ATOM     36  C   UNL     1       1.855  -0.317  -1.542  0.00  0.00    -0.027 A 
ATOM     37  C   UNL     1       2.803  -1.207  -1.160  0.00  0.00    +0.009 A 
ATOM     38  C   UNL     1       4.135  -0.892  -1.353  0.00  0.00    +0.008 A 
ATOM     39  C   UNL     1       4.454   0.297  -1.920  0.00  0.00    +0.045 A 
ATOM     40  S   UNL     1       2.843   1.013  -2.205  0.00  0.00    -0.103 S 
ENDBRANCH  35  36
ENDBRANCH  25  35
ENDBRANCH   1  25
TORSDOF 9
