REMARK  Name = ZINC64604439
REMARK  8 active torsions:
REMARK  status: ('A' for Active; 'I' for Inactive)
REMARK    1  A    between atoms: C_1  and  C_2
REMARK    2  A    between atoms: C_5  and  C_34
REMARK    3  A    between atoms: C_6  and  N_8
REMARK    4  A    between atoms: C_9  and  C_11
REMARK    5  A    between atoms: C_19  and  S_25
REMARK    6  A    between atoms: S_25  and  C_26
REMARK    7  A    between atoms: C_26  and  C_27
REMARK    8  A    between atoms: C_27  and  C_28
REMARK                            x       y       z     vdW  Elec       q    Type
REMARK                         _______ _______ _______ _____ _____    ______ ____
ROOT
ATOM      1  C   UNL     1       0.280  -2.900   4.854  0.00  0.00    +0.103 C 
ATOM      2  C   UNL     1       1.550  -3.755   4.821  0.00  0.00    +0.110 C 
ATOM      3  C   UNL     1       2.777  -2.899   4.941  0.00  0.00    +0.219 C 
ATOM      4  O   UNL     1       3.836  -3.362   4.574  0.00  0.00    -0.275 OA
ATOM      5  N   UNL     1       2.767  -1.652   5.431  0.00  0.00    -0.273 N 
ATOM      6  C   UNL     1       1.594  -1.047   5.788  0.00  0.00    +0.117 C 
ATOM      7  N   UNL     1       1.523   0.247   5.910  0.00  0.00    -0.212 NA
ATOM      8  C   UNL     1       0.366   0.879   6.145  0.00  0.00    +0.182 C 
ATOM      9  N   UNL     1      -0.787   0.232   6.227  0.00  0.00    -0.154 NA
ATOM     10  C   UNL     1      -0.851  -1.090   6.155  0.00  0.00    +0.249 C 
ATOM     11  O   UNL     1      -1.935  -1.639   6.195  0.00  0.00    -0.273 OA
ATOM     12  C   UNL     1       0.388  -1.921   6.026  0.00  0.00    +0.153 C 
ATOM     13  H   UNL     1       3.603  -1.171   5.534  0.00  0.00    +0.156 HD
ENDROOT
BRANCH   1  15
ATOM     14  N   UNL     1       0.052  -2.797   2.393  0.00  0.00    -0.285 N 
ATOM     15  C   UNL     1       0.150  -2.135   3.562  0.00  0.00    +0.222 C 
ATOM     16  O   UNL     1       0.134  -0.922   3.575  0.00  0.00    -0.275 OA
ATOM     17  H   UNL     1      -0.016  -3.765   2.388  0.00  0.00    +0.155 HD
BRANCH  14  23
ATOM     18  C   UNL     1       1.264   1.227  -0.158  0.00  0.00    +0.044 C 
ATOM     19  C   UNL     1       0.628  -0.137  -0.079  0.00  0.00    -0.049 A 
ATOM     20  C   UNL     1       0.039  -0.690  -1.201  0.00  0.00    +0.004 A 
ATOM     21  C   UNL     1      -0.546  -1.941  -1.133  0.00  0.00    +0.005 A 
ATOM     22  C   UNL     1      -0.543  -2.643   0.057  0.00  0.00    -0.029 A 
ATOM     23  C   UNL     1       0.048  -2.090   1.185  0.00  0.00    +0.037 A 
ATOM     24  C   UNL     1       0.639  -0.835   1.112  0.00  0.00    +0.027 A 
ATOM     25  C   UNL     1      -1.181  -4.006   0.131  0.00  0.00    +0.045 C 
ENDBRANCH  14  23
ENDBRANCH   1  15
BRANCH   8  26
ATOM     26  S   UNL     1       0.378   2.629   6.353  0.00  0.00    -0.088 S 
BRANCH  26  27
ATOM     27  C   UNL     1      -1.362   3.048   6.644  0.00  0.00    +0.082 C 
BRANCH  27  28
ATOM     28  C   UNL     1      -1.496   4.559   6.843  0.00  0.00    +0.046 C 
BRANCH  28  29
ATOM     29  C   UNL     1      -2.943   4.907   7.085  0.00  0.00    -0.047 A 
ATOM     30  C   UNL     1      -3.770   5.203   6.017  0.00  0.00    +0.003 A 
ATOM     31  C   UNL     1      -5.096   5.523   6.238  0.00  0.00    +0.000 A 
ATOM     32  C   UNL     1      -5.596   5.546   7.527  0.00  0.00    +0.000 A 
ATOM     33  C   UNL     1      -4.769   5.250   8.594  0.00  0.00    +0.000 A 
ATOM     34  C   UNL     1      -3.444   4.926   8.373  0.00  0.00    +0.003 A 
ENDBRANCH  28  29
ENDBRANCH  27  28
ENDBRANCH  26  27
ENDBRANCH   8  26
TORSDOF 6
