REMARK  Name = ZINC39668698
REMARK  9 active torsions:
REMARK  status: ('A' for Active; 'I' for Inactive)
REMARK    1  A    between atoms: C_1  and  C_2
REMARK    2  A    between atoms: C_2  and  C_4
REMARK    3  A    between atoms: C_2  and  O_29
REMARK    4  A    between atoms: C_4  and  N_5
REMARK    5  A    between atoms: C_6  and  C_8
REMARK    6  A    between atoms: C_19  and  C_21
REMARK    7  A    between atoms: C_25  and  O_26
REMARK    8  A    between atoms: O_26  and  C_27
REMARK    9  A    between atoms: O_29  and  C_30
REMARK                            x       y       z     vdW  Elec       q    Type
REMARK                         _______ _______ _______ _____ _____    ______ ____
ROOT
ATOM      1  C   UNL     1       1.625  -4.040   2.325  0.00  0.00    +0.100 C 
ATOM      2  C   UNL     1       2.636  -4.471   1.240  0.00  0.00    +0.121 C 
ATOM      3  N   UNL     1       3.910  -4.665   1.970  0.00  0.00    -0.296 N 
ATOM      4  C   UNL     1       3.510  -5.301   3.248  0.00  0.00    +0.115 C 
ATOM      5  C   UNL     1       2.200  -4.589   3.641  0.00  0.00    -0.004 C 
ATOM      6  C   UNL     1       1.227  -5.583   4.269  0.00  0.00    -0.010 C 
ATOM      7  C   UNL     1       1.794  -6.071   5.605  0.00  0.00    -0.082 C 
ATOM      8  N   UNL     1       2.000  -4.925   6.499  0.00  0.00    +0.379 N 
ATOM      9  C   UNL     1       3.007  -4.021   5.931  0.00  0.00    -0.082 C 
ATOM     10  C   UNL     1       2.491  -3.446   4.609  0.00  0.00    -0.010 C 
ATOM     11  C   UNL     1       5.153  -4.337   1.565  0.00  0.00    +0.251 C 
ATOM     12  O   UNL     1       5.312  -3.723   0.527  0.00  0.00    -0.270 OA
ATOM     13  H   UNL     1       1.129  -4.428   6.613  0.00  0.00    -0.086 HD
ATOM     14  H   UNL     1       2.316  -5.255   7.399  0.00  0.00    -0.086 HD
ENDROOT
BRANCH  11  15
ATOM     15  C   UNL     1       6.317  -4.721   2.378  0.00  0.00    +0.087 A 
ATOM     16  C   UNL     1       6.275  -5.800   3.234  0.00  0.00    +0.063 A 
ATOM     17  S   UNL     1       7.803  -5.839   3.926  0.00  0.00    -0.081 S 
ATOM     18  C   UNL     1       8.550  -4.441   3.116  0.00  0.00    +0.120 A 
ATOM     19  C   UNL     1       7.561  -3.988   2.313  0.00  0.00    +0.158 A 
ATOM     20 CL   UNL     1      10.158  -3.817   3.305  0.00  0.00    -0.072 Cl
BRANCH  19  21
ATOM     21  O   UNL     1       7.724  -2.908   1.500  0.00  0.00    -0.492 OA
ATOM     22  C   UNL     1       7.401  -1.628   2.048  0.00  0.00    +0.277 C 
ENDBRANCH  19  21
ENDBRANCH  11  15
BRANCH   1  24
ATOM     23  N   UNL     1       0.444  -1.953   2.934  0.00  0.00    -0.312 N 
ATOM     24  C   UNL     1       1.526  -2.537   2.383  0.00  0.00    +0.218 C 
ATOM     25  O   UNL     1       2.421  -1.853   1.933  0.00  0.00    -0.275 OA
ATOM     26  H   UNL     1      -0.272  -2.500   3.293  0.00  0.00    +0.149 HD
BRANCH  23  27
ATOM     27  C   UNL     1       0.348  -0.492   2.990  0.00  0.00    +0.148 C 
BRANCH  27  29
ATOM     28  C   UNL     1      -1.127   1.428   3.605  0.00  0.00    +0.053 C 
ATOM     29  C   UNL     1      -0.969  -0.093   3.658  0.00  0.00    +0.187 C 
BRANCH  29  30
ATOM     30  O   UNL     1      -0.961  -0.524   5.021  0.00  0.00    -0.486 OA
BRANCH  30  31
ATOM     31  C   UNL     1      -2.169  -0.730   5.609  0.00  0.00    +0.139 A 
ATOM     32  C   UNL     1      -3.342  -0.629   4.868  0.00  0.00    +0.049 A 
ATOM     33  C   UNL     1      -4.549  -0.848   5.511  0.00  0.00    +0.023 A 
ATOM     34  C   UNL     1      -4.548  -1.159   6.859  0.00  0.00    +0.111 A 
ATOM     35  N   UNL     1      -3.418  -1.247   7.532  0.00  0.00    -0.260 NA
ATOM     36  C   UNL     1      -2.249  -1.051   6.956  0.00  0.00    +0.156 A 
ENDBRANCH  30  31
ENDBRANCH  29  30
ENDBRANCH  27  29
ENDBRANCH  23  27
ENDBRANCH   1  24
TORSDOF 7
