REMARK  Name = ZINC15162745
REMARK  12 active torsions:
REMARK  status: ('A' for Active; 'I' for Inactive)
REMARK    1  A    between atoms: C_1  and  C_2
REMARK    2  A    between atoms: C_2  and  C_24
REMARK    3  A    between atoms: N_3  and  N_4
REMARK    4  A    between atoms: C_5  and  S_7
REMARK    5  A    between atoms: S_7  and  C_8
REMARK    6  A    between atoms: N_13  and  C_16
REMARK    7  A    between atoms: C_19  and  O_22
REMARK    8  A    between atoms: O_22  and  C_23
REMARK    9  A    between atoms: C_25  and  C_26
REMARK   10  A    between atoms: C_29  and  N_32
REMARK   11  A    between atoms: N_32  and  C_33
REMARK   12  A    between atoms: N_32  and  C_34
REMARK                            x       y       z     vdW  Elec       q    Type
REMARK                         _______ _______ _______ _____ _____    ______ ____
ROOT
ATOM      1  N   UNL     1       0.342   0.048   1.679  0.00  0.00    -0.217 N 
ATOM      2  C   UNL     1       0.422  -0.735   2.808  0.00  0.00    +0.146 C 
ATOM      3  N   UNL     1       0.646  -2.016   2.700  0.00  0.00    -0.380 N 
ATOM      4  H   UNL     1       0.175   1.000   1.760  0.00  0.00    +0.176 HD
ATOM      5  H   UNL     1       0.703  -2.568   3.495  0.00  0.00    +0.158 HD
ATOM      6  H   UNL     1       0.756  -2.417   1.823  0.00  0.00    +0.158 HD
ENDROOT
BRANCH   1   9
ATOM      7  C   UNL     1       0.166   1.690  -0.530  0.00  0.00    +0.067 C 
ATOM      8  C   UNL     1       0.425   0.210  -0.656  0.00  0.00    +0.056 C 
ATOM      9  N   UNL     1       0.501  -0.531   0.413  0.00  0.00    -0.186 NA
BRANCH   8  10
ATOM     10  C   UNL     1       0.586  -0.375  -1.937  0.00  0.00    +0.025 C 
ATOM     11  C   UNL     1       0.818  -1.699  -2.050  0.00  0.00    +0.010 C 
BRANCH  11  12
ATOM     12  C   UNL     1       0.985  -2.307  -3.379  0.00  0.00    -0.025 A 
ATOM     13  C   UNL     1       0.909  -1.512  -4.528  0.00  0.00    +0.010 A 
ATOM     14  C   UNL     1       1.067  -2.084  -5.770  0.00  0.00    +0.023 A 
ATOM     15  C   UNL     1       1.300  -3.451  -5.884  0.00  0.00    +0.029 A 
ATOM     16  C   UNL     1       1.376  -4.245  -4.745  0.00  0.00    +0.023 A 
ATOM     17  C   UNL     1       1.225  -3.680  -3.498  0.00  0.00    +0.010 A 
BRANCH  15  18
ATOM     18  N   UNL     1       1.458  -4.027  -7.145  0.00  0.00    -0.336 N 
ATOM     19  C   UNL     1       1.502  -3.177  -8.338  0.00  0.00    +0.129 C 
ATOM     20  C   UNL     1       1.581  -5.481  -7.276  0.00  0.00    +0.129 C 
ENDBRANCH  15  18
ENDBRANCH  11  12
ENDBRANCH   8  10
ENDBRANCH   1   9
BRANCH   2  21
ATOM     21  S   UNL     1       0.222  -0.008   4.401  0.00  0.00    -0.078 S 
BRANCH  21  22
ATOM     22  C   UNL     1       0.406  -1.402   5.546  0.00  0.00    +0.149 C 
ATOM     23  C   UNL     1       0.327  -0.918   7.008  0.00  0.00    +0.120 C 
ATOM     24  C   UNL     1      -0.882  -1.644   7.557  0.00  0.00    +0.228 C 
ATOM     25  O   UNL     1      -1.305  -1.546   8.689  0.00  0.00    -0.275 OA
ATOM     26  N   UNL     1      -1.411  -2.410   6.595  0.00  0.00    -0.209 N 
ATOM     27  C   UNL     1      -0.764  -2.353   5.420  0.00  0.00    +0.240 C 
ATOM     28  O   UNL     1      -1.068  -2.964   4.418  0.00  0.00    -0.274 OA
BRANCH  26  29
ATOM     29  C   UNL     1      -2.546  -3.209   6.798  0.00  0.00    +0.044 A 
ATOM     30  C   UNL     1      -2.489  -4.573   6.551  0.00  0.00    +0.027 A 
ATOM     31  C   UNL     1      -3.606  -5.359   6.751  0.00  0.00    +0.047 A 
ATOM     32  C   UNL     1      -4.787  -4.785   7.200  0.00  0.00    +0.120 A 
ATOM     33  C   UNL     1      -4.845  -3.421   7.447  0.00  0.00    +0.047 A 
ATOM     34  C   UNL     1      -3.726  -2.635   7.252  0.00  0.00    +0.027 A 
BRANCH  32  35
ATOM     35  O   UNL     1      -5.887  -5.559   7.397  0.00  0.00    -0.495 OA
ATOM     36  C   UNL     1      -7.068  -4.901   7.860  0.00  0.00    +0.277 C 
ENDBRANCH  32  35
ENDBRANCH  26  29
ENDBRANCH  21  22
ENDBRANCH   2  21
TORSDOF 8
