REMARK  Name = ZINC34792104
REMARK  6 active torsions:
REMARK  status: ('A' for Active; 'I' for Inactive)
REMARK    1  A    between atoms: C_1  and  N_2
REMARK    2  A    between atoms: C_5  and  C_10
REMARK    3  A    between atoms: C_15  and  C_16
REMARK    4  A    between atoms: N_22  and  C_24
REMARK    5  A    between atoms: C_24  and  C_25
REMARK    6  A    between atoms: N_27  and  C_28
REMARK                            x       y       z     vdW  Elec       q    Type
REMARK                         _______ _______ _______ _____ _____    ______ ____
ROOT
ATOM      1  C   UNL     1      -0.254   1.587   0.143  0.00  0.00    +0.139 C 
ATOM      2  N   UNL     1      -0.326   0.124   0.090  0.00  0.00    -0.260 N 
ATOM      3  C   UNL     1      -1.547  -0.468   0.238  0.00  0.00    +0.042 C 
ATOM      4  C   UNL     1      -1.683  -1.809   0.200  0.00  0.00    +0.058 C 
ATOM      5  C   UNL     1      -0.433  -2.638  -0.015  0.00  0.00    +0.142 C 
ATOM      6  N   UNL     1       0.836  -1.904  -0.164  0.00  0.00    -0.288 N 
ATOM      7  C   UNL     1       0.810  -0.558  -0.107  0.00  0.00    +0.307 C 
ATOM      8  O   UNL     1       1.851   0.056  -0.233  0.00  0.00    -0.252 OA
ATOM      9  C   UNL     1      -3.034  -2.170   0.377  0.00  0.00    +0.247 C 
ATOM     10  O   UNL     1      -3.445  -3.317   0.386  0.00  0.00    -0.270 OA
ATOM     11  N   UNL     1      -3.811  -1.083   0.535  0.00  0.00    -0.283 N 
ATOM     12  C   UNL     1      -2.933   0.094   0.461  0.00  0.00    +0.160 C 
ATOM     13  H   UNL     1       1.670  -2.379  -0.304  0.00  0.00    +0.151 HD
ENDROOT
BRANCH   5  14
ATOM     14  C   UNL     1      -0.635  -3.472  -1.254  0.00  0.00    -0.011 A 
ATOM     15  C   UNL     1      -0.950  -2.862  -2.454  0.00  0.00    +0.006 A 
ATOM     16  C   UNL     1      -1.135  -3.627  -3.590  0.00  0.00    +0.000 A 
ATOM     17  C   UNL     1      -1.005  -5.002  -3.526  0.00  0.00    +0.001 A 
ATOM     18  C   UNL     1      -0.690  -5.611  -2.327  0.00  0.00    +0.013 A 
ATOM     19  C   UNL     1      -0.500  -4.846  -1.191  0.00  0.00    +0.060 A 
BRANCH  19  20
ATOM     20  C   UNL     1      -0.151  -5.510   0.116  0.00  0.00    +0.418 C 
ATOM     21  F   UNL     1       0.038  -6.880  -0.093  0.00  0.00    -0.166 F 
ATOM     22  F   UNL     1       1.026  -4.949   0.624  0.00  0.00    -0.166 F 
ATOM     23  F   UNL     1      -1.192  -5.317   1.030  0.00  0.00    -0.166 F 
ENDBRANCH  19  20
ENDBRANCH   5  14
BRANCH  11  24
ATOM     24  C   UNL     1      -5.261  -1.075   0.743  0.00  0.00    +0.204 C 
BRANCH  24  25
ATOM     25  C   UNL     1      -5.558  -1.133   2.219  0.00  0.00    +0.235 C 
ATOM     26  O   UNL     1      -4.648  -1.177   3.019  0.00  0.00    -0.274 OA
ATOM     27  N   UNL     1      -6.835  -1.135   2.650  0.00  0.00    -0.282 N 
ATOM     28  H   UNL     1      -7.563  -1.187   2.011  0.00  0.00    +0.155 HD
BRANCH  27  29
ATOM     29  C   UNL     1      -7.112  -1.063   4.021  0.00  0.00    +0.069 A 
ATOM     30  C   UNL     1      -6.189  -0.493   4.888  0.00  0.00    +0.026 A 
ATOM     31  C   UNL     1      -6.465  -0.423   6.240  0.00  0.00    +0.002 A 
ATOM     32  C   UNL     1      -7.657  -0.921   6.731  0.00  0.00    +0.003 A 
ATOM     33  C   UNL     1      -8.579  -1.491   5.872  0.00  0.00    +0.040 A 
ATOM     34  C   UNL     1      -8.312  -1.559   4.517  0.00  0.00    +0.144 A 
ATOM     35  F   UNL     1      -9.215  -2.110   3.677  0.00  0.00    -0.204 F 
ENDBRANCH  27  29
ENDBRANCH  24  25
ENDBRANCH  11  24
TORSDOF 5
