REMARK  Name = ZINC60748434
REMARK  4 active torsions:
REMARK  status: ('A' for Active; 'I' for Inactive)
REMARK    1  A    between atoms: C_8  and  C_13
REMARK    2  A    between atoms: C_13  and  O_15
REMARK    3  A    between atoms: O_15  and  C_16
REMARK    4  A    between atoms: C_16  and  C_17
REMARK                            x       y       z     vdW  Elec       q    Type
REMARK                         _______ _______ _______ _____ _____    ______ ____
ROOT
ATOM      1  C   UNL     1      -0.017   1.374   0.010  0.00  0.00    +0.001 A 
ATOM      2  C   UNL     1       1.167   2.099   0.002  0.00  0.00    +0.001 A 
ATOM      3  C   UNL     1       2.387   1.456  -0.013  0.00  0.00    +0.014 A 
ATOM      4  C   UNL     1       2.431   0.064  -0.021  0.00  0.00    +0.046 A 
ATOM      5  C   UNL     1       1.226  -0.676  -0.013  0.00  0.00    -0.011 A 
ATOM      6  C   UNL     1       0.002  -0.004   0.002  0.00  0.00    +0.009 A 
ATOM      7  C   UNL     1       1.303  -2.137  -0.022  0.00  0.00    +0.041 A 
ATOM      8  C   UNL     1       2.518  -2.740  -0.038  0.00  0.00    +0.128 A 
ATOM      9  N   UNL     1       3.693  -2.018  -0.045  0.00  0.00    -0.316 N 
ATOM     10  H   UNL     1       4.537  -2.495  -0.056  0.00  0.00    +0.169 HD
ATOM     11  C   UNL     1       3.705  -0.670  -0.038  0.00  0.00    +0.257 A 
ATOM     12  O   UNL     1       4.761  -0.066  -0.046  0.00  0.00    -0.267 OA
ENDROOT
BRANCH   8  13
ATOM     13  C   UNL     1       2.585  -4.211  -0.047  0.00  0.00    +0.356 C 
ATOM     14  O   UNL     1       1.561  -4.866  -0.040  0.00  0.00    -0.243 OA
BRANCH  13  15
ATOM     15  O   UNL     1       3.782  -4.831  -0.062  0.00  0.00    -0.458 OA
BRANCH  15  16
ATOM     16  C   UNL     1       3.772  -6.260  -0.070  0.00  0.00    +0.264 C 
BRANCH  16  17
ATOM     17  C   UNL     1       5.210  -6.780  -0.088  0.00  0.00    +0.156 C 
ATOM     18  C   UNL     1       5.200  -8.306  -0.221  0.00  0.00    +0.035 C 
ATOM     19  C   UNL     1       6.641  -8.823  -0.177  0.00  0.00    +0.005 C 
ATOM     20  C   UNL     1       7.300  -8.358   1.125  0.00  0.00    +0.028 C 
ATOM     21  C   UNL     1       7.229  -6.831   1.206  0.00  0.00    +0.160 C 
ATOM     22  O   UNL     1       5.864  -6.414   1.129  0.00  0.00    -0.373 OA
ENDBRANCH  16  17
ENDBRANCH  15  16
ENDBRANCH  13  15
ENDBRANCH   8  13
TORSDOF 4
