REMARK  Name = ZINC22577613
REMARK  6 active torsions:
REMARK  status: ('A' for Active; 'I' for Inactive)
REMARK    1  A    between atoms: C_4  and  N_7
REMARK    2  A    between atoms: N_7  and  C_8
REMARK    3  A    between atoms: C_8  and  N_10
REMARK    4  A    between atoms: C_22  and  C_24
REMARK    5  A    between atoms: C_24  and  C_25
REMARK    6  A    between atoms: N_27  and  C_28
REMARK                            x       y       z     vdW  Elec       q    Type
REMARK                         _______ _______ _______ _____ _____    ______ ____
ROOT
ATOM      1  N   UNL     1       5.199   2.717  -1.498  0.00  0.00    -0.296 N 
ATOM      2  C   UNL     1       4.984   1.958  -2.747  0.00  0.00    +0.096 C 
ATOM      3  C   UNL     1       4.147   0.721  -2.407  0.00  0.00    +0.024 C 
ATOM      4  C   UNL     1       4.005  -0.167  -3.643  0.00  0.00    +0.002 C 
ATOM      5  C   UNL     1       5.394  -0.624  -4.096  0.00  0.00    +0.002 C 
ATOM      6  C   UNL     1       6.209   0.597  -4.458  0.00  0.00    +0.024 C 
ATOM      7  C   UNL     1       6.355   1.532  -3.265  0.00  0.00    +0.093 C 
ATOM      8  N   UNL     1       7.153   0.932  -2.211  0.00  0.00    -0.309 N 
ATOM      9  C   UNL     1       6.964   1.162  -0.908  0.00  0.00    +0.234 C 
ATOM     10  O   UNL     1       7.740   0.673  -0.115  0.00  0.00    -0.274 OA
ATOM     11  C   UNL     1       5.830   1.998  -0.381  0.00  0.00    +0.170 C 
ATOM     12  H   UNL     1       7.972   0.243  -2.465  0.00  0.00    +0.149 HD
ENDROOT
BRANCH   1  13
ATOM     13  C   UNL     1       4.833   4.010  -1.387  0.00  0.00    +0.138 C 
ATOM     14  S   UNL     1       4.102   4.809  -2.713  0.00  0.00    -0.018 S 
BRANCH  13  15
ATOM     15  N   UNL     1       5.044   4.673  -0.233  0.00  0.00    -0.297 N 
ATOM     16  H   UNL     1       5.520   4.161   0.616  0.00  0.00    +0.154 HD
BRANCH  15  20
ATOM     17  C   UNL     1       3.890   8.660   0.117  0.00  0.00    +0.000 A 
ATOM     18  C   UNL     1       3.092   7.770  -0.577  0.00  0.00    +0.002 A 
ATOM     19  C   UNL     1       3.471   6.447  -0.695  0.00  0.00    +0.023 A 
ATOM     20  C   UNL     1       4.656   6.012  -0.116  0.00  0.00    +0.033 A 
ATOM     21  C   UNL     1       5.453   6.908   0.586  0.00  0.00    +0.023 A 
ATOM     22  C   UNL     1       5.071   8.230   0.695  0.00  0.00    +0.002 A 
ENDBRANCH  15  20
ENDBRANCH  13  15
ENDBRANCH   1  13
BRANCH  11  23
ATOM     23  C   UNL     1       4.797   1.093   0.292  0.00  0.00    +0.128 C 
BRANCH  23  24
ATOM     24  C   UNL     1       3.922   1.917   1.201  0.00  0.00    +0.219 C 
ATOM     25  O   UNL     1       4.107   3.112   1.300  0.00  0.00    -0.275 OA
ATOM     26  N   UNL     1       2.934   1.327   1.903  0.00  0.00    -0.285 N 
ATOM     27  H   UNL     1       2.778   0.241   1.827  0.00  0.00    +0.155 HD
BRANCH  26  28
ATOM     28  C   UNL     1       2.106   2.098   2.730  0.00  0.00    +0.037 A 
ATOM     29  C   UNL     1       2.634   3.172   3.433  0.00  0.00    +0.027 A 
ATOM     30  C   UNL     1       1.819   3.933   4.249  0.00  0.00    +0.051 A 
ATOM     31  C   UNL     1       0.473   3.625   4.369  0.00  0.00    +0.166 A 
ATOM     32  C   UNL     1      -0.060   2.551   3.660  0.00  0.00    +0.168 A 
ATOM     33  C   UNL     1       0.759   1.786   2.847  0.00  0.00    +0.072 A 
ATOM     34  O   UNL     1      -1.393   2.462   3.940  0.00  0.00    -0.453 OA
ATOM     35  C   UNL     1      -1.755   3.739   4.500  0.00  0.00    +0.466 C 
ATOM     36  O   UNL     1      -0.527   4.208   5.095  0.00  0.00    -0.453 OA
ENDBRANCH  26  28
ENDBRANCH  23  24
ENDBRANCH  11  23
TORSDOF 6
