REMARK  Name = ZINC17246946
REMARK  9 active torsions:
REMARK  status: ('A' for Active; 'I' for Inactive)
REMARK    1  A    between atoms: C_1  and  S_2
REMARK    2  A    between atoms: S_2  and  N_5
REMARK    3  A    between atoms: N_5  and  C_6
REMARK    4  A    between atoms: C_6  and  C_7
REMARK    5  A    between atoms: C_7  and  C_8
REMARK    6  A    between atoms: C_11  and  C_13
REMARK    7  A    between atoms: C_13  and  O_15
REMARK    8  A    between atoms: O_15  and  C_16
REMARK    9  A    between atoms: C_16  and  C_17
REMARK                            x       y       z     vdW  Elec       q    Type
REMARK                         _______ _______ _______ _____ _____    ______ ____
ROOT
ATOM      1  C   UNL     1       4.752   4.107   0.615  0.00  0.00    +0.328 C 
ENDROOT
BRANCH   1   2
ATOM      2  C   UNL     1       3.417   3.414   0.701  0.00  0.00    +0.262 C 
ATOM      3  O   UNL     1       3.354   2.265   1.087  0.00  0.00    -0.271 OA
ATOM      4  N   UNL     1       2.293   4.069   0.349  0.00  0.00    -0.235 N 
ATOM      5  C   UNL     1       1.075   3.378   0.346  0.00  0.00    +0.055 A 
ATOM      6  C   UNL     1       1.021   2.056  -0.067  0.00  0.00    +0.025 A 
ATOM      7  C   UNL     1      -0.186   1.381  -0.069  0.00  0.00    +0.002 A 
ATOM      8  C   UNL     1      -1.345   2.017   0.334  0.00  0.00    +0.001 A 
ATOM      9  C   UNL     1      -1.303   3.336   0.755  0.00  0.00    +0.017 A 
ATOM     10  C   UNL     1      -0.098   4.015   0.759  0.00  0.00    +0.035 A 
ATOM     11  S   UNL     1      -0.013   5.698   1.285  0.00  0.00    -0.086 S 
ATOM     12  C   UNL     1       1.365   6.311   0.366  0.00  0.00    +0.035 A 
ATOM     13  C   UNL     1       2.376   5.422  -0.005  0.00  0.00    +0.055 A 
ATOM     14  C   UNL     1       3.463   5.891  -0.726  0.00  0.00    +0.025 A 
ATOM     15  C   UNL     1       3.538   7.228  -1.073  0.00  0.00    +0.002 A 
ATOM     16  C   UNL     1       2.534   8.104  -0.704  0.00  0.00    +0.001 A 
ATOM     17  C   UNL     1       1.444   7.647   0.017  0.00  0.00    +0.017 A 
ENDBRANCH   1   2
BRANCH   1  18
ATOM     18  O   UNL     1       5.741   3.349   1.361  0.00  0.00    -0.451 OA
BRANCH  18  19
ATOM     19  C   UNL     1       6.998   3.838   1.385  0.00  0.00    +0.346 C 
ATOM     20  O   UNL     1       7.260   4.871   0.798  0.00  0.00    -0.244 OA
BRANCH  19  24
ATOM     21  C   UNL     1       9.587   1.498   3.563  0.00  0.00    -0.008 A 
ATOM     22  C   UNL     1      10.159   2.602   3.013  0.00  0.00    +0.012 A 
ATOM     23  C   UNL     1       9.386   3.454   2.265  0.00  0.00    +0.023 A 
ATOM     24  C   UNL     1       8.046   3.126   2.117  0.00  0.00    +0.096 A 
ATOM     25  S   UNL     1       7.933   1.614   3.057  0.00  0.00    -0.087 S 
BRANCH  21  26
ATOM     26  C   UNL     1      10.233   0.434   4.413  0.00  0.00    +0.059 C 
BRANCH  26  27
ATOM     27  C   UNL     1      10.135   0.830   5.888  0.00  0.00    +0.110 C 
BRANCH  27  28
ATOM     28  N   UNL     1      10.764  -0.204   6.714  0.00  0.00    -0.194 NA
ATOM     29  H   UNL     1      10.959  -1.075   6.335  0.00  0.00    +0.148 HD
BRANCH  28  31
ATOM     30  C   UNL     1       9.541   0.374   9.111  0.00  0.00    +0.214 C 
ATOM     31  S   UNL     1      11.140   0.114   8.295  0.00  0.00    +0.027 S 
ATOM     32  O   UNL     1      11.744  -1.080   8.771  0.00  0.00    -0.158 OA
ATOM     33  O   UNL     1      11.872   1.331   8.255  0.00  0.00    -0.158 OA
ENDBRANCH  28  31
ENDBRANCH  27  28
ENDBRANCH  26  27
ENDBRANCH  21  26
ENDBRANCH  19  24
ENDBRANCH  18  19
ENDBRANCH   1  18
TORSDOF 8
