REMARK  Name = ZINC36999500
REMARK  9 active torsions:
REMARK  status: ('A' for Active; 'I' for Inactive)
REMARK    1  A    between atoms: C_1  and  C_2
REMARK    2  A    between atoms: C_5  and  C_9
REMARK    3  A    between atoms: C_6  and  O_8
REMARK    4  A    between atoms: C_9  and  C_11
REMARK    5  A    between atoms: C_9  and  N_12
REMARK    6  A    between atoms: N_12  and  C_13
REMARK    7  A    between atoms: C_13  and  C_15
REMARK    8  A    between atoms: C_13  and  C_16
REMARK    9  A    between atoms: C_16  and  C_17
REMARK                            x       y       z     vdW  Elec       q    Type
REMARK                         _______ _______ _______ _____ _____    ______ ____
ROOT
ATOM      1  N   UNL     1      -0.365  -5.084  -1.520  0.00  0.00    -0.307 NA
ATOM      2  H   UNL     1      -0.775  -4.895  -2.423  0.00  0.00    +0.123 HD
ENDROOT
BRANCH   1   3
ATOM      3  C   UNL     1      -0.581  -3.960  -0.599  0.00  0.00    +0.085 C 
ATOM      4  C   UNL     1       0.454  -4.017   0.527  0.00  0.00    +0.029 C 
BRANCH   3   9
ATOM      5  C   UNL     1      -0.021   1.021  -3.482  0.00  0.00    +0.044 C 
ATOM      6  C   UNL     1      -0.168  -0.276  -2.729  0.00  0.00    -0.047 A 
ATOM      7  C   UNL     1       0.378  -1.438  -3.241  0.00  0.00    +0.004 A 
ATOM      8  C   UNL     1       0.245  -2.629  -2.552  0.00  0.00    +0.009 A 
ATOM      9  C   UNL     1      -0.435  -2.661  -1.349  0.00  0.00    +0.011 A 
ATOM     10  C   UNL     1      -0.984  -1.496  -0.833  0.00  0.00    +0.122 A 
ATOM     11  C   UNL     1      -0.843  -0.301  -1.524  0.00  0.00    +0.049 A 
BRANCH  10  12
ATOM     12  O   UNL     1      -1.653  -1.524   0.349  0.00  0.00    -0.506 OA
ATOM     13  H   UNL     1      -1.093  -1.368   1.122  0.00  0.00    +0.292 HD
ENDBRANCH  10  12
ENDBRANCH   3   9
ENDBRANCH   1   3
BRANCH   1  14
ATOM     14  C   UNL     1      -0.889  -6.335  -0.955  0.00  0.00    +0.055 C 
ATOM     15  C   UNL     1       0.260  -7.325  -0.757  0.00  0.00    +0.024 C 
BRANCH  14  16
ATOM     16  C   UNL     1      -1.920  -6.934  -1.913  0.00  0.00    +0.053 C 
BRANCH  16  17
ATOM     17  C   UNL     1      -3.109  -6.013  -2.013  0.00  0.00    -0.046 A 
ATOM     18  C   UNL     1      -4.170  -6.158  -1.139  0.00  0.00    +0.005 A 
ATOM     19  C   UNL     1      -5.261  -5.314  -1.230  0.00  0.00    +0.015 A 
ATOM     20  C   UNL     1      -5.290  -4.323  -2.195  0.00  0.00    +0.018 A 
ATOM     21  C   UNL     1      -4.227  -4.178  -3.069  0.00  0.00    +0.015 A 
ATOM     22  C   UNL     1      -3.135  -5.020  -2.974  0.00  0.00    +0.005 A 
ATOM     23 BR   UNL     1      -6.781  -3.167  -2.320  0.00  0.00    -0.050 Br
ENDBRANCH  16  17
ENDBRANCH  14  16
ENDBRANCH   1  14
TORSDOF 6
