REMARK  Name = ZINC14754652
REMARK  12 active torsions:
REMARK  status: ('A' for Active; 'I' for Inactive)
REMARK    1  A    between atoms: C_1  and  C_2
REMARK    2  A    between atoms: C_3  and  C_33
REMARK    3  A    between atoms: C_4  and  C_32
REMARK    4  A    between atoms: C_7  and  C_8
REMARK    5  A    between atoms: C_8  and  C_10
REMARK    6  A    between atoms: C_10  and  C_12
REMARK    7  A    between atoms: C_10  and  O_13
REMARK    8  A    between atoms: O_13  and  C_14
REMARK    9  A    between atoms: C_14  and  C_16
REMARK   10  A    between atoms: C_20  and  S_22
REMARK   11  A    between atoms: S_22  and  N_25
REMARK   12  A    between atoms: C_33  and  C_35
REMARK                            x       y       z     vdW  Elec       q    Type
REMARK                         _______ _______ _______ _____ _____    ______ ____
ROOT
ATOM      1  C   UNL     1      -1.798   3.106  -0.770  0.00  0.00    +0.340 C 
ATOM      2  O   UNL     1      -2.840   2.679  -1.227  0.00  0.00    -0.245 OA
ENDROOT
BRANCH   1   3
ATOM      3  C   UNL     1      -1.562   4.562  -0.706  0.00  0.00    +0.061 A 
ATOM      4  C   UNL     1      -0.368   5.056  -0.176  0.00  0.00    +0.016 A 
ATOM      5  C   UNL     1      -0.151   6.417  -0.124  0.00  0.00    +0.023 A 
ATOM      6  C   UNL     1      -1.119   7.293  -0.585  0.00  0.00    +0.067 A 
ATOM      7  C   UNL     1      -2.308   6.810  -1.107  0.00  0.00    +0.124 A 
ATOM      8  C   UNL     1      -2.534   5.451  -1.169  0.00  0.00    +0.045 A 
ATOM      9 CL   UNL     1      -0.841   9.005  -0.510  0.00  0.00    -0.082 Cl
BRANCH   7  10
ATOM     10  S   UNL     1      -3.533   7.933  -1.692  0.00  0.00    +0.062 S 
ATOM     11  O   UNL     1      -4.631   7.145  -2.130  0.00  0.00    -0.153 OA
ATOM     12  O   UNL     1      -3.667   8.941  -0.699  0.00  0.00    -0.153 OA
BRANCH  10  13
ATOM     13  N   UNL     1      -2.915   8.674  -3.038  0.00  0.00    -0.177 NA
ATOM     14  C   UNL     1      -2.289  10.000  -2.942  0.00  0.00    +0.109 C 
ATOM     15  C   UNL     1      -0.885   9.923  -3.560  0.00  0.00    +0.017 C 
ATOM     16  C   UNL     1      -0.991   9.381  -4.987  0.00  0.00    +0.003 C 
ATOM     17  C   UNL     1      -1.581   7.969  -4.955  0.00  0.00    +0.017 C 
ATOM     18  C   UNL     1      -2.988   8.021  -4.351  0.00  0.00    +0.109 C 
ENDBRANCH  10  13
ENDBRANCH   7  10
ENDBRANCH   1   3
BRANCH   1  19
ATOM     19  O   UNL     1      -0.858   2.251  -0.322  0.00  0.00    -0.450 OA
BRANCH  19  20
ATOM     20  C   UNL     1      -1.158   0.833  -0.416  0.00  0.00    +0.246 C 
ATOM     21  C   UNL     1      -0.671   0.297  -1.764  0.00  0.00    +0.061 C 
BRANCH  20  22
ATOM     22  C   UNL     1      -0.461   0.097   0.699  0.00  0.00    +0.219 C 
ATOM     23  O   UNL     1       0.426   0.641   1.324  0.00  0.00    -0.287 OA
BRANCH  22  30
ATOM     24  C   UNL     1       0.823  -1.622   2.946  0.00  0.00    +0.047 C 
ATOM     25  C   UNL     1      -0.289  -2.013   2.007  0.00  0.00    -0.012 A 
ATOM     26  C   UNL     1      -0.966  -3.253   1.971  0.00  0.00    +0.041 A 
ATOM     27  C   UNL     1      -1.908  -3.174   0.956  0.00  0.00    +0.024 A 
ATOM     28  N   UNL     1      -1.832  -1.960   0.394  0.00  0.00    -0.355 N 
ATOM     29  H   UNL     1      -2.385  -1.645  -0.338  0.00  0.00    +0.166 HD
ATOM     30  C   UNL     1      -0.840  -1.229   1.017  0.00  0.00    +0.090 A 
ATOM     31  C   UNL     1      -2.863  -4.269   0.557  0.00  0.00    +0.064 C 
BRANCH  26  32
ATOM     32  C   UNL     1      -0.719  -4.405   2.844  0.00  0.00    +0.162 C 
ATOM     33  O   UNL     1       0.141  -5.211   2.556  0.00  0.00    -0.292 OA
ATOM     34  C   UNL     1      -1.534  -4.589   4.098  0.00  0.00    +0.091 C 
ENDBRANCH  26  32
ENDBRANCH  22  30
ENDBRANCH  20  22
ENDBRANCH  19  20
ENDBRANCH   1  19
TORSDOF 8
