REMARK  Name = ZINC09639402
REMARK  7 active torsions:
REMARK  status: ('A' for Active; 'I' for Inactive)
REMARK    1  A    between atoms: C_1  and  C_2
REMARK    2  A    between atoms: C_8  and  N_10
REMARK    3  A    between atoms: C_14  and  C_16
REMARK    4  A    between atoms: C_16  and  S_17
REMARK    5  A    between atoms: S_17  and  C_18
REMARK    6  A    between atoms: C_21  and  C_26
REMARK    7  A    between atoms: N_22  and  C_23
REMARK                            x       y       z     vdW  Elec       q    Type
REMARK                         _______ _______ _______ _____ _____    ______ ____
ROOT
ATOM      1  C   UNL     1       0.157  -6.304  -3.558  0.00  0.00    +0.173 C 
ENDROOT
BRANCH   1   6
ATOM      2  N   UNL     1      -1.263  -2.377  -1.177  0.00  0.00    -0.296 N 
ATOM      3  C   UNL     1      -0.798  -2.936  -2.312  0.00  0.00    +0.306 C 
ATOM      4  O   UNL     1      -0.588  -2.243  -3.289  0.00  0.00    -0.252 OA
ATOM      5  N   UNL     1      -0.567  -4.262  -2.365  0.00  0.00    -0.239 N 
ATOM      6  C   UNL     1      -0.102  -4.821  -3.499  0.00  0.00    +0.231 C 
ATOM      7  O   UNL     1       0.108  -4.130  -4.473  0.00  0.00    -0.274 OA
ATOM      8  H   UNL     1      -1.431  -2.930  -0.398  0.00  0.00    +0.151 HD
ATOM      9  H   UNL     1      -0.734  -4.815  -1.585  0.00  0.00    +0.159 HD
BRANCH   2  16
ATOM     10  C   UNL     1      -3.865  -1.374  -0.393  0.00  0.00    +0.009 C 
ATOM     11  C   UNL     1      -2.566  -0.642  -0.048  0.00  0.00    +0.006 C 
ATOM     12  C   UNL     1      -2.829   0.864   0.011  0.00  0.00    +0.005 C 
ATOM     13  C   UNL     1      -1.530   1.595   0.357  0.00  0.00    +0.000 C 
ATOM     14  C   UNL     1      -0.479   1.302  -0.716  0.00  0.00    +0.002 C 
ATOM     15  C   UNL     1      -0.216  -0.203  -0.775  0.00  0.00    +0.022 C 
ATOM     16  C   UNL     1      -1.515  -0.935  -1.121  0.00  0.00    +0.077 C 
ENDBRANCH   2  16
ENDBRANCH   1   6
BRANCH   1  17
ATOM     17  S   UNL     1       0.771  -6.746  -5.202  0.00  0.00    -0.077 S 
BRANCH  17  18
ATOM     18  C   UNL     1       0.984  -8.482  -4.994  0.00  0.00    +0.193 A 
ATOM     19  N   UNL     1       0.741  -9.172  -3.902  0.00  0.00    -0.122 NA
ATOM     20  N   UNL     1       1.001 -10.415  -4.098  0.00  0.00    -0.128 NA
ATOM     21  C   UNL     1       1.434 -10.594  -5.324  0.00  0.00    +0.168 A 
ATOM     22  N   UNL     1       1.437  -9.362  -5.936  0.00  0.00    -0.299 N 
BRANCH  21  23
ATOM     23  C   UNL     1       1.843 -11.878  -5.933  0.00  0.00    +0.054 A 
ATOM     24  C   UNL     1       1.276 -12.294  -7.139  0.00  0.00    +0.014 A 
ATOM     25  C   UNL     1       1.661 -13.493  -7.702  0.00  0.00    +0.001 A 
ATOM     26  C   UNL     1       2.608 -14.284  -7.075  0.00  0.00    +0.003 A 
ATOM     27  C   UNL     1       3.174 -13.880  -5.880  0.00  0.00    +0.039 A 
ATOM     28  C   UNL     1       2.802 -12.678  -5.307  0.00  0.00    +0.134 A 
ATOM     29  F   UNL     1       3.360 -12.281  -4.142  0.00  0.00    -0.205 F 
ENDBRANCH  21  23
BRANCH  22  30
ATOM     30  C   UNL     1       1.841  -9.057  -7.311  0.00  0.00    +0.091 C 
ATOM     31  C   UNL     1       2.137  -7.595  -7.652  0.00  0.00    +0.027 C 
ATOM     32  C   UNL     1       0.861  -8.259  -8.174  0.00  0.00    +0.027 C 
ENDBRANCH  22  30
ENDBRANCH  17  18
ENDBRANCH   1  17
TORSDOF 6
