REMARK  Name = ZINC37409790
REMARK  7 active torsions:
REMARK  status: ('A' for Active; 'I' for Inactive)
REMARK    1  A    between atoms: C_1  and  C_2
REMARK    2  A    between atoms: C_8  and  N_10
REMARK    3  A    between atoms: C_11  and  C_13
REMARK    4  A    between atoms: C_13  and  C_35
REMARK    5  A    between atoms: N_25  and  C_26
REMARK    6  A    between atoms: C_26  and  C_27
REMARK    7  A    between atoms: C_27  and  N_28
REMARK                            x       y       z     vdW  Elec       q    Type
REMARK                         _______ _______ _______ _____ _____    ______ ____
ROOT
ATOM      1  C   UNL     1       0.135   0.562   4.801  0.00  0.00    +0.128 C 
ATOM      2  C   UNL     1      -0.414  -0.648   5.557  0.00  0.00    +0.157 C 
ATOM      3  N   UNL     1      -1.639  -1.111   4.898  0.00  0.00    -0.331 N 
ATOM      4  C   UNL     1      -2.177  -2.361   4.829  0.00  0.00    +0.088 A 
ATOM      5  C   UNL     1      -2.033  -3.723   5.189  0.00  0.00    +0.067 A 
ATOM      6  C   UNL     1      -3.094  -4.382   4.693  0.00  0.00    +0.198 A 
ATOM      7  O   UNL     1      -3.894  -3.518   4.045  0.00  0.00    -0.461 OA
ATOM      8  C   UNL     1      -3.366  -2.277   4.105  0.00  0.00    +0.153 A 
ATOM      9  C   UNL     1      -3.538  -0.938   3.724  0.00  0.00    +0.079 A 
ATOM     10  C   UNL     1      -2.474  -0.235   4.208  0.00  0.00    +0.109 A 
ATOM     11  C   UNL     1      -2.134   1.188   4.087  0.00  0.00    +0.264 C 
ATOM     12  O   UNL     1      -2.924   2.000   3.642  0.00  0.00    -0.268 OA
ATOM     13  N   UNL     1      -0.895   1.548   4.497  0.00  0.00    -0.282 N 
ATOM     14  C   UNL     1       1.218   1.225   5.653  0.00  0.00    +0.043 C 
ENDROOT
BRANCH   1  16
ATOM     15  N   UNL     1      -0.007  -0.028   2.403  0.00  0.00    -0.310 N 
ATOM     16  C   UNL     1       0.752   0.090   3.510  0.00  0.00    +0.238 C 
ATOM     17  O   UNL     1       1.933  -0.183   3.467  0.00  0.00    -0.273 OA
ATOM     18  H   UNL     1      -0.952   0.190   2.437  0.00  0.00    +0.149 HD
BRANCH  15  25
ATOM     19  C   UNL     1      -0.249   1.564  -0.005  0.00  0.00    +0.009 C 
ATOM     20  C   UNL     1      -0.230   0.034  -0.032  0.00  0.00    +0.006 C 
ATOM     21  C   UNL     1      -1.662  -0.495   0.072  0.00  0.00    +0.005 C 
ATOM     22  C   UNL     1      -1.643  -2.025   0.045  0.00  0.00    +0.000 C 
ATOM     23  C   UNL     1      -0.820  -2.546   1.224  0.00  0.00    +0.002 C 
ATOM     24  C   UNL     1       0.612  -2.017   1.120  0.00  0.00    +0.022 C 
ATOM     25  C   UNL     1       0.593  -0.487   1.148  0.00  0.00    +0.076 C 
ENDBRANCH  15  25
ENDBRANCH   1  16
BRANCH  13  26
ATOM     26  C   UNL     1      -0.581   2.972   4.641  0.00  0.00    +0.091 C 
BRANCH  26  27
ATOM     27  C   UNL     1      -0.028   3.508   3.318  0.00  0.00    -0.060 C 
BRANCH  27  28
ATOM     28  N   UNL     1       0.167   4.960   3.422  0.00  0.00    +0.381 N 
ATOM     29  C   UNL     1       0.467   5.494   2.079  0.00  0.00    -0.079 C 
ATOM     30  C   UNL     1       0.076   6.951   2.050  0.00  0.00    -0.019 C 
ATOM     31  C   UNL     1       1.284   7.864   2.334  0.00  0.00    -0.002 C 
ATOM     32  C   UNL     1       2.179   7.297   3.455  0.00  0.00    -0.002 C 
ATOM     33  C   UNL     1       1.377   6.722   4.594  0.00  0.00    -0.019 C 
ATOM     34  C   UNL     1       1.174   5.211   4.355  0.00  0.00    -0.079 C 
ATOM     35  H   UNL     1      -0.691   5.378   3.750  0.00  0.00    -0.082 HD
ENDBRANCH  27  28
ENDBRANCH  26  27
ENDBRANCH  13  26
TORSDOF 5
