REMARK  Name = ZINC02108459
REMARK  9 active torsions:
REMARK  status: ('A' for Active; 'I' for Inactive)
REMARK    1  A    between atoms: C_1  and  C_2
REMARK    2  A    between atoms: C_2  and  C_4
REMARK    3  A    between atoms: C_2  and  N_12
REMARK    4  A    between atoms: C_4  and  C_5
REMARK    5  A    between atoms: C_5  and  C_6
REMARK    6  A    between atoms: C_13  and  C_15
REMARK    7  A    between atoms: C_15  and  C_17
REMARK    8  A    between atoms: C_15  and  N_18
REMARK    9  A    between atoms: C_21  and  C_37
REMARK                            x       y       z     vdW  Elec       q    Type
REMARK                         _______ _______ _______ _____ _____    ______ ____
ROOT
ATOM      1  N   UNL     1      -0.240  -1.150  -4.711  0.00  0.00    -0.212 N 
ATOM      2  C   UNL     1      -0.550  -2.277  -5.389  0.00  0.00    +0.253 C 
ATOM      3  O   UNL     1      -0.160  -3.402  -5.160  0.00  0.00    -0.272 OA
ATOM      4  C   UNL     1      -1.486  -1.841  -6.491  0.00  0.00    +0.153 C 
ATOM      5  C   UNL     1      -2.808  -2.567  -6.416  0.00  0.00    +0.053 A 
ATOM      6  C   UNL     1      -3.996  -1.925  -6.343  0.00  0.00    -0.015 A 
ATOM      7  C   UNL     1      -5.020  -2.954  -6.304  0.00  0.00    +0.003 A 
ATOM      8  C   UNL     1      -6.415  -2.894  -6.239  0.00  0.00    +0.010 A 
ATOM      9  C   UNL     1      -7.087  -4.091  -6.216  0.00  0.00    +0.001 A 
ATOM     10  C   UNL     1      -6.425  -5.307  -6.255  0.00  0.00    +0.002 A 
ATOM     11  C   UNL     1      -5.045  -5.396  -6.321  0.00  0.00    +0.026 A 
ATOM     12  C   UNL     1      -4.337  -4.196  -6.347  0.00  0.00    +0.047 A 
ATOM     13  N   UNL     1      -3.002  -3.921  -6.412  0.00  0.00    -0.356 N 
ATOM     14  H   UNL     1      -2.296  -4.586  -6.450  0.00  0.00    +0.166 HD
ATOM     15  C   UNL     1      -4.204  -0.433  -6.288  0.00  0.00    +0.056 C 
ATOM     16  C   UNL     1      -2.917   0.300  -6.696  0.00  0.00    +0.115 C 
ATOM     17  N   UNL     1      -1.786  -0.436  -6.128  0.00  0.00    -0.266 N 
ATOM     18  C   UNL     1      -0.916  -0.089  -5.181  0.00  0.00    +0.313 C 
ATOM     19  O   UNL     1      -0.751   1.051  -4.791  0.00  0.00    -0.252 OA
ATOM     20  C   UNL     1      -0.837  -1.955  -7.872  0.00  0.00    +0.048 C 
ENDROOT
BRANCH   1  21
ATOM     21  C   UNL     1       0.712  -1.094  -3.598  0.00  0.00    +0.168 C 
ATOM     22  C   UNL     1       1.849  -0.133  -3.948  0.00  0.00    +0.038 C 
BRANCH  21  24
ATOM     23  N   UNL     1       0.688  -0.476  -1.203  0.00  0.00    -0.311 N 
ATOM     24  C   UNL     1       0.006  -0.608  -2.358  0.00  0.00    +0.234 C 
ATOM     25  O   UNL     1      -1.175  -0.336  -2.400  0.00  0.00    -0.274 OA
ATOM     26  H   UNL     1       1.632  -0.695  -1.170  0.00  0.00    +0.149 HD
BRANCH  23  28
ATOM     27  C   UNL     1      -0.019   1.526   0.010  0.00  0.00    +0.028 C 
ATOM     28  C   UNL     1       0.002  -0.004   0.002  0.00  0.00    +0.070 C 
BRANCH  28  29
ATOM     29  C   UNL     1       0.742  -0.511   1.242  0.00  0.00    +0.026 C 
BRANCH  29  30
ATOM     30  C   UNL     1       0.655  -2.037   1.299  0.00  0.00    +0.037 C 
BRANCH  30  31
ATOM     31  C   UNL     1       1.384  -2.537   2.519  0.00  0.00    -0.047 A 
ATOM     32  C   UNL     1       2.731  -2.841   2.444  0.00  0.00    +0.003 A 
ATOM     33  C   UNL     1       3.399  -3.299   3.564  0.00  0.00    +0.000 A 
ATOM     34  C   UNL     1       2.722  -3.452   4.759  0.00  0.00    +0.000 A 
ATOM     35  C   UNL     1       1.375  -3.146   4.835  0.00  0.00    +0.000 A 
ATOM     36  C   UNL     1       0.708  -2.684   3.716  0.00  0.00    +0.003 A 
ENDBRANCH  30  31
ENDBRANCH  29  30
ENDBRANCH  28  29
ENDBRANCH  23  28
ENDBRANCH  21  24
ENDBRANCH   1  21
TORSDOF 6
