REMARK  Name = ZINC52095095
REMARK  3 active torsions:
REMARK  status: ('A' for Active; 'I' for Inactive)
REMARK    1  A    between atoms: C_1  and  C_2
REMARK    2  A    between atoms: C_5  and  C_7
REMARK    3  A    between atoms: C_7  and  C_9
REMARK                            x       y       z     vdW  Elec       q    Type
REMARK                         _______ _______ _______ _____ _____    ______ ____
ROOT
ATOM      1  C   UNL     1       2.037   1.361   1.558  0.00  0.00    -0.013 A 
ATOM      2  C   UNL     1       1.537   2.623   1.302  0.00  0.00    +0.034 A 
ATOM      3  C   UNL     1       2.345   3.576   0.701  0.00  0.00    +0.067 A 
ATOM      4  C   UNL     1       3.660   3.256   0.356  0.00  0.00    +0.068 A 
ATOM      5  C   UNL     1       4.153   1.987   0.616  0.00  0.00    +0.043 A 
ATOM      6  C   UNL     1       3.342   1.045   1.222  0.00  0.00    +0.025 A 
ATOM      7 BR   UNL     1       4.016  -0.684   1.585  0.00  0.00    -0.050 Br
ATOM      8  N   UNL     1       4.213   4.396  -0.222  0.00  0.00    -0.306 N 
ATOM      9  H   UNL     1       5.118   4.478  -0.562  0.00  0.00    +0.170 HD
ATOM     10  C   UNL     1       3.278   5.365  -0.228  0.00  0.00    +0.325 A 
ATOM     11  O   UNL     1       3.438   6.490  -0.665  0.00  0.00    -0.247 OA
ATOM     12  N   UNL     1       2.140   4.901   0.322  0.00  0.00    -0.306 N 
ATOM     13  H   UNL     1       1.318   5.403   0.435  0.00  0.00    +0.170 HD
ENDROOT
BRANCH   1  14
ATOM     14  C   UNL     1       1.159   0.325   2.212  0.00  0.00    +0.115 C 
ATOM     15 CL   UNL     1      -0.101   1.146   3.207  0.00  0.00    -0.116 Cl
BRANCH  14  19
ATOM     16  C   UNL     1      -0.511  -1.927   3.107  0.00  0.00    +0.008 C 
ATOM     17  C   UNL     1      -0.385  -1.696   1.599  0.00  0.00    -0.009 C 
ATOM     18  C   UNL     1       0.977  -1.963   0.955  0.00  0.00    +0.009 C 
ATOM     19  C   UNL     1       0.483  -0.525   1.135  0.00  0.00    +0.014 C 
ENDBRANCH  14  19
ENDBRANCH   1  14
TORSDOF 2
