REMARK  Name = ZINC58895156
REMARK  15 active torsions:
REMARK  status: ('A' for Active; 'I' for Inactive)
REMARK    1  A    between atoms: C_1  and  C_2
REMARK    2  A    between atoms: C_2  and  O_3
REMARK    3  A    between atoms: O_3  and  C_4
REMARK    4  A    between atoms: C_7  and  C_10
REMARK    5  A    between atoms: C_10  and  C_12
REMARK    6  A    between atoms: C_10  and  O_40
REMARK    7  A    between atoms: C_12  and  C_13
REMARK    8  A    between atoms: C_13  and  C_14
REMARK    9  A    between atoms: N_16  and  N_17
REMARK   10  A    between atoms: C_18  and  C_19
REMARK   11  A    between atoms: C_22  and  O_28
REMARK   12  A    between atoms: C_23  and  C_25
REMARK   13  A    between atoms: C_25  and  C_26
REMARK   14  A    between atoms: O_28  and  C_29
REMARK   15  A    between atoms: C_29  and  C_30
REMARK                            x       y       z     vdW  Elec       q    Type
REMARK                         _______ _______ _______ _____ _____    ______ ____
ROOT
ATOM      1  C   UNL     1      -1.333 -12.520  -4.641  0.00  0.00    -0.005 A 
ATOM      2  C   UNL     1      -0.503 -12.115  -3.591  0.00  0.00    +0.013 A 
ATOM      3  C   UNL     1       0.302 -13.036  -2.957  0.00  0.00    +0.046 A 
ATOM      4  C   UNL     1       0.290 -14.365  -3.359  0.00  0.00    +0.124 A 
ATOM      5  C   UNL     1      -0.532 -14.773  -4.402  0.00  0.00    -0.001 A 
ATOM      6  C   UNL     1      -1.345 -13.860  -5.038  0.00  0.00    +0.017 A 
ENDROOT
BRANCH   1   8
ATOM      7  N   UNL     1      -2.004 -10.268  -5.139  0.00  0.00    -0.188 NA
ATOM      8  C   UNL     1      -2.196 -11.539  -5.322  0.00  0.00    +0.138 C 
BRANCH   7  11
ATOM      9  C   UNL     1      -0.597  -8.503  -4.385  0.00  0.00    +0.232 C 
ATOM     10  O   UNL     1      -1.527  -7.732  -4.496  0.00  0.00    -0.274 OA
ATOM     11  N   UNL     1      -0.760  -9.805  -4.692  0.00  0.00    -0.207 N 
ATOM     12  H   UNL     1      -0.017 -10.421  -4.603  0.00  0.00    +0.177 HD
BRANCH   9  13
ATOM     13  C   UNL     1       0.741  -8.004  -3.903  0.00  0.00    +0.100 C 
BRANCH  13  14
ATOM     14  C   UNL     1       0.656  -6.502  -3.627  0.00  0.00    +0.045 C 
BRANCH  14  15
ATOM     15  C   UNL     1       2.015  -5.996  -3.138  0.00  0.00    +0.145 C 
BRANCH  15  19
ATOM     16  C   UNL     1       1.690  -1.880  -2.036  0.00  0.00    +0.121 A 
ATOM     17  C   UNL     1       1.666  -2.865  -1.059  0.00  0.00    +0.046 A 
ATOM     18  C   UNL     1       1.771  -4.194  -1.418  0.00  0.00    +0.010 A 
ATOM     19  C   UNL     1       1.900  -4.544  -2.749  0.00  0.00    -0.019 A 
ATOM     20  C   UNL     1       1.925  -3.565  -3.725  0.00  0.00    +0.010 A 
ATOM     21  C   UNL     1       1.814  -2.234  -3.371  0.00  0.00    +0.046 A 
BRANCH  16  22
ATOM     22  O   UNL     1       1.586  -0.571  -1.685  0.00  0.00    -0.492 OA
BRANCH  22  24
ATOM     23  C   UNL     1       1.357   1.233  -0.094  0.00  0.00    +0.048 C 
ATOM     24  C   UNL     1       1.461  -0.280  -0.292  0.00  0.00    +0.225 C 
ENDBRANCH  22  24
ENDBRANCH  16  22
ENDBRANCH  15  19
BRANCH  15  25
ATOM     25  O   UNL     1       2.979  -6.134  -4.183  0.00  0.00    -0.387 OA
ATOM     26  H   UNL     1       2.763  -5.640  -4.986  0.00  0.00    +0.210 HD
ENDBRANCH  15  25
ENDBRANCH  14  15
ENDBRANCH  13  14
ENDBRANCH   9  13
ENDBRANCH   7  11
ENDBRANCH   1   8
BRANCH   5  27
ATOM     27  C   UNL     1      -0.539 -16.216  -4.834  0.00  0.00    +0.065 C 
BRANCH  27  28
ATOM     28  C   UNL     1      -1.495 -16.995  -3.967  0.00  0.00    -0.030 C 
ATOM     29  C   UNL     1      -2.457 -17.694  -4.517  0.00  0.00    +0.004 C 
ENDBRANCH  27  28
ENDBRANCH   5  27
BRANCH   4  30
ATOM     30  O   UNL     1       1.086 -15.270  -2.731  0.00  0.00    -0.487 OA
BRANCH  30  31
ATOM     31  C   UNL     1       1.907 -14.783  -1.667  0.00  0.00    +0.265 C 
BRANCH  31  32
ATOM     32  C   UNL     1       2.713 -15.920  -1.095  0.00  0.00    -0.003 A 
ATOM     33  C   UNL     1       2.589 -17.174  -1.609  0.00  0.00    +0.007 A 
ATOM     34  C   UNL     1       3.326 -18.238  -1.093  0.00  0.00    +0.001 A 
ATOM     35  C   UNL     1       4.192 -18.054  -0.059  0.00  0.00    +0.008 A 
ATOM     36  C   UNL     1       4.346 -16.773   0.499  0.00  0.00    -0.018 A 
ATOM     37  C   UNL     1       3.601 -15.690  -0.030  0.00  0.00    -0.011 A 
ATOM     38  C   UNL     1       3.760 -14.408   0.524  0.00  0.00    +0.009 A 
ATOM     39  C   UNL     1       4.630 -14.223   1.554  0.00  0.00    +0.001 A 
ATOM     40  C   UNL     1       5.368 -15.287   2.070  0.00  0.00    +0.001 A 
ATOM     41  C   UNL     1       5.230 -16.545   1.568  0.00  0.00    +0.008 A 
ENDBRANCH  31  32
ENDBRANCH  30  31
ENDBRANCH   4  30
TORSDOF 14
