REMARK  Name = ZINC36207249
REMARK  15 active torsions:
REMARK  status: ('A' for Active; 'I' for Inactive)
REMARK    1  A    between atoms: C_1  and  C_2
REMARK    2  A    between atoms: C_2  and  O_3
REMARK    3  A    between atoms: O_3  and  C_4
REMARK    4  A    between atoms: C_4  and  C_6
REMARK    5  A    between atoms: C_7  and  C_34
REMARK    6  A    between atoms: C_13  and  C_17
REMARK    7  A    between atoms: C_17  and  N_18
REMARK    8  A    between atoms: N_18  and  C_19
REMARK    9  A    between atoms: N_18  and  C_28
REMARK   10  A    between atoms: C_19  and  C_20
REMARK   11  A    between atoms: C_20  and  C_22
REMARK   12  A    between atoms: C_20  and  O_27
REMARK   13  A    between atoms: C_22  and  O_23
REMARK   14  A    between atoms: O_23  and  C_24
REMARK   15  A    between atoms: C_24  and  C_25
REMARK                            x       y       z     vdW  Elec       q    Type
REMARK                         _______ _______ _______ _____ _____    ______ ____
ROOT
ATOM      1  C   UNL     1      -8.804  -4.643  -0.143  0.00  0.00    -0.003 C 
ENDROOT
BRANCH   1   9
ATOM      2  C   UNL     1      -3.975  -3.051  -3.906  0.00  0.00    +0.102 A 
ATOM      3  C   UNL     1      -4.142  -4.270  -3.315  0.00  0.00    -0.015 A 
ATOM      4  C   UNL     1      -5.253  -4.503  -2.502  0.00  0.00    +0.076 A 
ATOM      5  C   UNL     1      -5.635  -5.731  -1.768  0.00  0.00    +0.260 A 
ATOM      6  O   UNL     1      -4.942  -6.731  -1.821  0.00  0.00    -0.267 OA
ATOM      7  N   UNL     1      -6.768  -5.713  -1.040  0.00  0.00    -0.312 N 
ATOM      8  H   UNL     1      -7.033  -6.509  -0.553  0.00  0.00    +0.170 HD
ATOM      9  C   UNL     1      -7.546  -4.605  -0.974  0.00  0.00    +0.094 A 
ATOM     10  N   UNL     1      -7.239  -3.506  -1.608  0.00  0.00    -0.229 NA
ATOM     11  C   UNL     1      -6.145  -3.416  -2.353  0.00  0.00    +0.116 A 
ATOM     12  S   UNL     1      -5.399  -2.138  -3.334  0.00  0.00    -0.062 S 
ATOM     13  C   UNL     1      -3.128  -5.363  -3.540  0.00  0.00    +0.046 C 
BRANCH   2  14
ATOM     14  C   UNL     1      -2.895  -2.601  -4.785  0.00  0.00    +0.346 C 
ATOM     15  O   UNL     1      -1.991  -3.362  -5.077  0.00  0.00    -0.244 OA
BRANCH  14  16
ATOM     16  O   UNL     1      -2.901  -1.343  -5.272  0.00  0.00    -0.461 OA
BRANCH  16  18
ATOM     17  C   UNL     1      -1.993   0.479  -6.574  0.00  0.00    +0.048 C 
ATOM     18  C   UNL     1      -1.815  -0.972  -6.124  0.00  0.00    +0.229 C 
ENDBRANCH  16  18
ENDBRANCH  14  16
ENDBRANCH   2  14
ENDBRANCH   1   9
BRANCH   1  19
ATOM     19  N   UNL     1      -9.387  -3.296  -0.077  0.00  0.00    +0.388 N 
ATOM     20  H   UNL     1      -9.248  -2.825  -0.958  0.00  0.00    -0.081 HD
BRANCH  19  21
ATOM     21  C   UNL     1      -8.735  -2.532   0.995  0.00  0.00    -0.068 C 
ATOM     22  C   UNL     1      -8.966  -3.234   2.335  0.00  0.00    -0.015 C 
ATOM     23  C   UNL     1      -8.286  -2.438   3.451  0.00  0.00    -0.002 C 
ATOM     24  C   UNL     1      -6.784  -2.350   3.173  0.00  0.00    -0.000 C 
ATOM     25  C   UNL     1      -6.553  -1.649   1.833  0.00  0.00    -0.002 C 
ATOM     26  C   UNL     1      -7.233  -2.445   0.717  0.00  0.00    -0.015 C 
ENDBRANCH  19  21
BRANCH  19  27
ATOM     27  C   UNL     1     -10.826  -3.399   0.202  0.00  0.00    -0.044 C 
BRANCH  27  28
ATOM     28  C   UNL     1     -11.453  -2.004   0.168  0.00  0.00    +0.124 C 
BRANCH  28  29
ATOM     29  O   UNL     1     -11.243  -1.418  -1.118  0.00  0.00    -0.391 OA
ATOM     30  H   UNL     1     -11.628  -1.922  -1.848  0.00  0.00    +0.210 HD
ENDBRANCH  28  29
BRANCH  28  31
ATOM     31  C   UNL     1     -12.955  -2.114   0.439  0.00  0.00    +0.190 C 
BRANCH  31  32
ATOM     32  O   UNL     1     -13.521  -0.804   0.523  0.00  0.00    -0.365 OA
BRANCH  32  33
ATOM     33  C   UNL     1     -14.927  -0.793   0.775  0.00  0.00    +0.248 C 
BRANCH  33  34
ATOM     34  C   UNL     1     -15.403   0.598   0.843  0.00  0.00    -0.077 C 
ATOM     35  C   UNL     1     -15.783   1.708   0.896  0.00  0.00    +0.006 C 
ENDBRANCH  33  34
ENDBRANCH  32  33
ENDBRANCH  31  32
ENDBRANCH  28  31
ENDBRANCH  27  28
ENDBRANCH  19  27
ENDBRANCH   1  19
TORSDOF 13
