REMARK  Name = ZINC67380863
REMARK  10 active torsions:
REMARK  status: ('A' for Active; 'I' for Inactive)
REMARK    1  A    between atoms: C_1  and  C_2
REMARK    2  A    between atoms: C_2  and  C_3
REMARK    3  A    between atoms: C_3  and  C_5
REMARK    4  A    between atoms: C_3  and  N_6
REMARK    5  A    between atoms: N_9  and  N_10
REMARK    6  A    between atoms: C_11  and  C_13
REMARK    7  A    between atoms: C_13  and  C_14
REMARK    8  A    between atoms: C_14  and  C_15
REMARK    9  A    between atoms: C_15  and  C_16
REMARK   10  A    between atoms: C_15  and  C_17
REMARK                            x       y       z     vdW  Elec       q    Type
REMARK                         _______ _______ _______ _____ _____    ______ ____
ROOT
ATOM      1  N   UNL     1      -0.055  -0.114  -2.441  0.00  0.00    -0.296 N 
ATOM      2  C   UNL     1       0.561   0.028  -3.631  0.00  0.00    +0.316 C 
ATOM      3  O   UNL     1       1.758  -0.163  -3.722  0.00  0.00    -0.251 OA
ATOM      4  N   UNL     1      -0.150   0.381  -4.720  0.00  0.00    -0.218 N 
ATOM      5  H   UNL     1      -1.010   0.038  -2.368  0.00  0.00    +0.151 HD
ATOM      6  H   UNL     1       0.293   0.483  -5.577  0.00  0.00    +0.174 HD
ENDROOT
BRANCH   4   7
ATOM      7  N   UNL     1      -1.530   0.600  -4.615  0.00  0.00    -0.233 N 
ATOM      8  C   UNL     1      -2.241   0.953  -5.704  0.00  0.00    +0.229 C 
ATOM      9  O   UNL     1      -1.687   1.081  -6.775  0.00  0.00    -0.274 OA
ATOM     10  H   UNL     1      -1.973   0.498  -3.758  0.00  0.00    +0.173 HD
BRANCH   8  11
ATOM     11  C   UNL     1      -3.725   1.189  -5.590  0.00  0.00    +0.097 C 
BRANCH  11  12
ATOM     12  C   UNL     1      -4.286   1.575  -6.960  0.00  0.00    +0.012 C 
BRANCH  12  13
ATOM     13  C   UNL     1      -5.793   1.815  -6.846  0.00  0.00    -0.017 C 
ATOM     14  C   UNL     1      -6.050   3.027  -5.947  0.00  0.00    +0.007 C 
ATOM     15  C   UNL     1      -6.375   2.078  -8.236  0.00  0.00    +0.007 C 
ENDBRANCH  12  13
ENDBRANCH  11  12
ENDBRANCH   8  11
ENDBRANCH   4   7
BRANCH   1  16
ATOM     16  C   UNL     1       0.718  -0.497  -1.257  0.00  0.00    +0.071 C 
ATOM     17  C   UNL     1       0.849  -2.021  -1.205  0.00  0.00    +0.028 C 
BRANCH  16  19
ATOM     18  C   UNL     1      -0.019   1.526   0.010  0.00  0.00    +0.005 C 
ATOM     19  C   UNL     1       0.002  -0.004   0.002  0.00  0.00    +0.019 C 
ENDBRANCH  16  19
ENDBRANCH   1  16
TORSDOF 6
