REMARK  Name = ZINC59117955
REMARK  9 active torsions:
REMARK  status: ('A' for Active; 'I' for Inactive)
REMARK    1  A    between atoms: C_1  and  N_2
REMARK    2  A    between atoms: N_2  and  C_3
REMARK    3  A    between atoms: N_2  and  S_23
REMARK    4  A    between atoms: C_3  and  C_4
REMARK    5  A    between atoms: C_4  and  C_5
REMARK    6  A    between atoms: C_5  and  C_6
REMARK    7  A    between atoms: N_8  and  C_9
REMARK    8  A    between atoms: C_9  and  C_10
REMARK    9  A    between atoms: S_23  and  C_26
REMARK                            x       y       z     vdW  Elec       q    Type
REMARK                         _______ _______ _______ _____ _____    ______ ____
ROOT
ATOM      1  C   UNL     1      -2.815  -2.137   3.463  0.00  0.00    +0.213 C 
ATOM      2  O   UNL     1      -3.706  -1.523   2.915  0.00  0.00    -0.276 OA
ATOM      3  N   UNL     1      -3.043  -2.746   4.643  0.00  0.00    -0.311 N 
ATOM      4  H   UNL     1      -2.330  -3.237   5.081  0.00  0.00    +0.149 HD
ENDROOT
BRANCH   1   5
ATOM      5  C   UNL     1      -1.453  -2.219   2.823  0.00  0.00    +0.097 C 
BRANCH   5   6
ATOM      6  C   UNL     1      -1.463  -1.449   1.501  0.00  0.00    +0.026 C 
BRANCH   6   7
ATOM      7  C   UNL     1      -0.080  -1.532   0.852  0.00  0.00    +0.109 C 
BRANCH   7   9
ATOM      8  C   UNL     1       0.148   0.651  -0.421  0.00  0.00    +0.131 C 
ATOM      9  N   UNL     1      -0.090  -0.794  -0.414  0.00  0.00    -0.180 NA
BRANCH   9  10
ATOM     10  S   UNL     1      -0.370  -1.594  -1.836  0.00  0.00    +0.061 S 
ATOM     11  O   UNL     1      -1.091  -2.773  -1.504  0.00  0.00    -0.153 OA
ATOM     12  O   UNL     1      -0.867  -0.630  -2.754  0.00  0.00    -0.153 OA
BRANCH  10  13
ATOM     13  C   UNL     1       1.194  -2.119  -2.456  0.00  0.00    +0.106 A 
ATOM     14  C   UNL     1       1.917  -1.292  -3.295  0.00  0.00    +0.031 A 
ATOM     15  C   UNL     1       3.144  -1.702  -3.781  0.00  0.00    +0.040 A 
ATOM     16  C   UNL     1       3.649  -2.942  -3.427  0.00  0.00    +0.124 A 
ATOM     17  C   UNL     1       2.924  -3.770  -2.587  0.00  0.00    +0.040 A 
ATOM     18  C   UNL     1       1.699  -3.355  -2.098  0.00  0.00    +0.031 A 
ATOM     19  F   UNL     1       4.848  -3.345  -3.902  0.00  0.00    -0.205 F 
ENDBRANCH  10  13
ENDBRANCH   9  10
ENDBRANCH   7   9
ENDBRANCH   6   7
ENDBRANCH   5   6
ENDBRANCH   1   5
BRANCH   3  20
ATOM     20  C   UNL     1      -4.367  -2.667   5.265  0.00  0.00    +0.141 C 
BRANCH  20  21
ATOM     21  C   UNL     1      -4.357  -3.425   6.567  0.00  0.00    -0.014 A 
ATOM     22  C   UNL     1      -4.678  -4.776   6.594  0.00  0.00    +0.010 A 
ATOM     23  C   UNL     1      -4.657  -5.436   7.810  0.00  0.00    +0.042 A 
ATOM     24  C   UNL     1      -4.316  -4.727   8.958  0.00  0.00    +0.099 A 
ATOM     25  N   UNL     1      -4.017  -3.439   8.890  0.00  0.00    -0.349 N 
ATOM     26  C   UNL     1      -4.023  -2.786   7.744  0.00  0.00    +0.089 A 
ATOM     27  N   UNL     1      -4.292  -5.377  10.186  0.00  0.00    -0.317 N 
ATOM     28  C   UNL     1      -4.478  -6.810  10.216  0.00  0.00    +0.106 C 
ATOM     29  C   UNL     1      -5.987  -7.135  10.338  0.00  0.00    +0.019 C 
ATOM     30  C   UNL     1      -6.476  -6.795  11.683  0.00  0.00    +0.002 C 
ATOM     31  C   UNL     1      -6.380  -5.313  12.031  0.00  0.00    +0.002 C 
ATOM     32  C   UNL     1      -4.998  -5.012  12.559  0.00  0.00    +0.019 C 
ATOM     33  C   UNL     1      -4.070  -4.576  11.406  0.00  0.00    +0.106 C 
ATOM     34  H   UNL     1      -3.783  -2.965   9.704  0.00  0.00    +0.167 HD
ENDBRANCH  20  21
ENDBRANCH   3  20
TORSDOF 8
