REMARK  Name = ZINC39064994
REMARK  2 active torsions:
REMARK  status: ('A' for Active; 'I' for Inactive)
REMARK    1  A    between atoms: C_9  and  C_11
REMARK    2  A    between atoms: N_13  and  O_14
REMARK                            x       y       z     vdW  Elec       q    Type
REMARK                         _______ _______ _______ _____ _____    ______ ____
ROOT
ATOM      1  C   UNL     1       0.467   1.767  -0.331  0.00  0.00    +0.004 C 
ATOM      2  C   UNL     1       1.988   1.953  -0.127  0.00  0.00    +0.004 C 
ATOM      3  C   UNL     1       2.547   0.504   0.017  0.00  0.00    +0.001 C 
ATOM      4  C   UNL     1       1.586  -0.274  -0.949  0.00  0.00    +0.008 C 
ATOM      5  C   UNL     1       0.250   0.223  -0.291  0.00  0.00    -0.010 C 
ATOM      6  C   UNL     1       0.499  -0.168   1.198  0.00  0.00    +0.016 C 
ATOM      7  C   UNL     1       2.038   0.026   1.411  0.00  0.00    +0.080 C 
ENDROOT
BRANCH   7   8
ATOM      8  C   UNL     1       2.318   1.071   2.460  0.00  0.00    +0.239 C 
ATOM      9  O   UNL     1       1.447   1.849   2.788  0.00  0.00    -0.273 OA
ATOM     10  N   UNL     1       3.536   1.142   3.033  0.00  0.00    -0.197 N 
ATOM     11  H   UNL     1       4.232   0.520   2.770  0.00  0.00    +0.182 HD
BRANCH  10  12
ATOM     12  O   UNL     1       3.799   2.124   4.018  0.00  0.00    -0.295 OA
ATOM     13  H   UNL     1       4.699   2.097   4.370  0.00  0.00    +0.241 HD
ENDBRANCH  10  12
ENDBRANCH   7   8
TORSDOF 2
