REMARK  Name = ZINC67544964
REMARK  6 active torsions:
REMARK  status: ('A' for Active; 'I' for Inactive)
REMARK    1  A    between atoms: C_1  and  C_2
REMARK    2  A    between atoms: C_4  and  C_7
REMARK    3  A    between atoms: C_12  and  N_13
REMARK    4  A    between atoms: N_16  and  C_17
REMARK    5  A    between atoms: C_17  and  C_19
REMARK    6  A    between atoms: C_17  and  C_20
REMARK                            x       y       z     vdW  Elec       q    Type
REMARK                         _______ _______ _______ _____ _____    ______ ____
ROOT
ATOM      1  N   UNL     1       0.174  -4.837   0.012  0.00  0.00    -0.269 N 
ATOM      2  C   UNL     1       0.793  -5.989  -0.315  0.00  0.00    +0.304 C 
ATOM      3  O   UNL     1       0.138  -6.957  -0.649  0.00  0.00    -0.252 OA
ATOM      4  N   UNL     1       2.138  -6.067  -0.273  0.00  0.00    -0.288 N 
ATOM      5  H   UNL     1       0.698  -4.044   0.208  0.00  0.00    +0.156 HD
ATOM      6  H   UNL     1       2.660  -5.295  -0.006  0.00  0.00    +0.151 HD
ENDROOT
BRANCH   1  12
ATOM      7  C   UNL     1      -1.855  -3.912   0.960  0.00  0.00    +0.044 A 
ATOM      8  C   UNL     1      -3.246  -3.864   1.004  0.00  0.00    +0.013 A 
ATOM      9  C   UNL     1      -3.991  -4.678   0.175  0.00  0.00    +0.001 A 
ATOM     10  C   UNL     1      -3.360  -5.545  -0.701  0.00  0.00    +0.002 A 
ATOM     11  C   UNL     1      -1.982  -5.602  -0.754  0.00  0.00    +0.024 A 
ATOM     12  C   UNL     1      -1.220  -4.784   0.069  0.00  0.00    +0.046 A 
BRANCH   7  16
ATOM     13  C   UNL     1      -0.709  -0.388   4.304  0.00  0.00    +0.112 C 
ATOM     14  C   UNL     1      -0.563  -1.505   3.303  0.00  0.00    +0.225 A 
ATOM     15  N   UNL     1      -1.537  -2.085   2.662  0.00  0.00    -0.192 NA
ATOM     16  C   UNL     1      -1.050  -3.039   1.848  0.00  0.00    +0.204 A 
ATOM     17  N   UNL     1       0.255  -3.068   1.972  0.00  0.00    -0.056 NA
ATOM     18  O   UNL     1       0.591  -2.065   2.919  0.00  0.00    -0.338 OA
ENDBRANCH   7  16
ENDBRANCH   1  12
BRANCH   4  19
ATOM     19  C   UNL     1       2.810  -7.319  -0.628  0.00  0.00    +0.157 C 
ATOM     20  C   UNL     1       3.001  -7.382  -2.145  0.00  0.00    +0.038 C 
BRANCH  19  21
ATOM     21  C   UNL     1       4.154  -7.378   0.050  0.00  0.00    +0.236 C 
ATOM     22  O   UNL     1       4.703  -6.354   0.398  0.00  0.00    -0.274 OA
ATOM     23  N   UNL     1       4.747  -8.569   0.270  0.00  0.00    -0.300 N 
ATOM     24  C   UNL     1       4.153  -9.808  -0.250  0.00  0.00    +0.108 C 
ATOM     25  C   UNL     1       5.210 -10.556  -1.068  0.00  0.00    +0.019 C 
ATOM     26  C   UNL     1       6.458 -10.769  -0.208  0.00  0.00    +0.003 C 
ATOM     27  C   UNL     1       7.035  -9.413   0.203  0.00  0.00    +0.019 C 
ATOM     28  C   UNL     1       6.001  -8.651   1.030  0.00  0.00    +0.108 C 
ENDBRANCH  19  21
ENDBRANCH   4  19
TORSDOF 4
