REMARK  Name = ZINC09481273
REMARK  5 active torsions:
REMARK  status: ('A' for Active; 'I' for Inactive)
REMARK    1  A    between atoms: C_1  and  C_2
REMARK    2  A    between atoms: C_2  and  C_3
REMARK    3  A    between atoms: C_2  and  C_4
REMARK    4  A    between atoms: C_4  and  N_5
REMARK    5  A    between atoms: C_7  and  C_8
REMARK                            x       y       z     vdW  Elec       q    Type
REMARK                         _______ _______ _______ _____ _____    ______ ____
ROOT
ATOM      1  N   UNL     1      -0.062   1.221   1.252  0.00  0.00    -0.199 N 
ATOM      2  C   UNL     1      -1.140   1.116   2.161  0.00  0.00    +0.099 C 
ATOM      3  C   UNL     1      -2.424   0.987   1.736  0.00  0.00    +0.037 C 
ATOM      4  C   UNL     1      -0.797   1.153   3.591  0.00  0.00    +0.210 C 
ATOM      5  O   UNL     1      -1.375   0.420   4.373  0.00  0.00    -0.285 OA
ATOM      6  C   UNL     1       0.247   2.078   4.082  0.00  0.00    +0.050 A 
ATOM      7  C   UNL     1       0.376   2.285   5.460  0.00  0.00    +0.014 A 
ATOM      8  C   UNL     1       1.351   3.132   5.942  0.00  0.00    +0.001 A 
ATOM      9  C   UNL     1       2.206   3.777   5.066  0.00  0.00    +0.002 A 
ATOM     10  C   UNL     1       2.082   3.582   3.702  0.00  0.00    +0.029 A 
ATOM     11  C   UNL     1       1.104   2.743   3.207  0.00  0.00    +0.120 A 
ATOM     12  S   UNL     1       0.941   2.533   1.466  0.00  0.00    +0.075 S 
ATOM     13  O   UNL     1       2.221   2.157   0.975  0.00  0.00    -0.150 OA
ATOM     14  O   UNL     1       0.240   3.671   0.982  0.00  0.00    -0.150 OA
ENDROOT
BRANCH   3  15
ATOM     15  C   UNL     1      -2.742   1.126   0.313  0.00  0.00    -0.014 A 
ATOM     16  C   UNL     1      -2.004   1.994  -0.494  0.00  0.00    +0.009 A 
ATOM     17  C   UNL     1      -2.302   2.118  -1.838  0.00  0.00    +0.003 A 
ATOM     18  C   UNL     1      -3.337   1.398  -2.402  0.00  0.00    +0.026 A 
ATOM     19  C   UNL     1      -4.095   0.530  -1.624  0.00  0.00    +0.047 A 
ATOM     20  C   UNL     1      -3.803   0.386  -0.257  0.00  0.00    +0.007 A 
ATOM     21  C   UNL     1      -4.730  -0.552   0.261  0.00  0.00    +0.028 A 
ATOM     22  C   UNL     1      -5.529  -0.942  -0.748  0.00  0.00    +0.083 A 
ATOM     23  N   UNL     1      -5.162  -0.299  -1.898  0.00  0.00    -0.361 N 
ATOM     24  H   UNL     1      -5.583  -0.409  -2.765  0.00  0.00    +0.165 HD
ENDBRANCH   3  15
BRANCH   1  25
ATOM     25  C   UNL     1       0.161   0.235   0.192  0.00  0.00    +0.134 C 
BRANCH  25  27
ATOM     26  C   UNL     1       0.944  -2.087  -0.297  0.00  0.00    +0.009 C 
ATOM     27  C   UNL     1       0.800  -1.020   0.790  0.00  0.00    +0.002 C 
ATOM     28  C   UNL     1       2.181  -0.673   1.349  0.00  0.00    +0.009 C 
ENDBRANCH  25  27
ENDBRANCH   1  25
TORSDOF 3
