REMARK  Name = ZINC59168420
REMARK  11 active torsions:
REMARK  status: ('A' for Active; 'I' for Inactive)
REMARK    1  A    between atoms: C_1  and  C_2
REMARK    2  A    between atoms: C_2  and  N_3
REMARK    3  A    between atoms: N_3  and  C_4
REMARK    4  A    between atoms: N_3  and  C_6
REMARK    5  A    between atoms: C_4  and  C_5
REMARK    6  A    between atoms: C_9  and  C_12
REMARK    7  A    between atoms: C_16  and  C_21
REMARK    8  A    between atoms: C_24  and  C_27
REMARK    9  A    between atoms: C_27  and  C_28
REMARK   10  A    between atoms: C_27  and  C_29
REMARK   11  A    between atoms: C_27  and  C_30
REMARK                            x       y       z     vdW  Elec       q    Type
REMARK                         _______ _______ _______ _____ _____    ______ ____
ROOT
ATOM      1  C   UNL     1      -1.448  -6.237   0.659  0.00  0.00    +0.183 C 
ATOM      2  N   UNL     1      -2.695  -6.683   1.337  0.00  0.00    -0.263 N 
ATOM      3  N   UNL     1      -2.537  -7.721   2.207  0.00  0.00    -0.220 N 
ATOM      4  C   UNL     1      -3.340  -8.695   2.793  0.00  0.00    +0.182 A 
ATOM      5  N   UNL     1      -2.588  -9.399   3.602  0.00  0.00    -0.127 NA
ATOM      6  N   UNL     1      -1.377  -8.964   3.565  0.00  0.00    -0.120 NA
ATOM      7  C   UNL     1      -1.294  -7.973   2.730  0.00  0.00    +0.211 A 
ATOM      8  S   UNL     1      -0.232  -6.783   1.935  0.00  0.00    -0.056 S 
ATOM      9  H   UNL     1      -3.163  -5.907   1.781  0.00  0.00    +0.168 HD
ENDROOT
BRANCH   1  13
ATOM     10  C   UNL     1      -1.380  -1.998   0.132  0.00  0.00    +0.013 A 
ATOM     11  C   UNL     1      -1.007  -2.830  -0.907  0.00  0.00    +0.022 A 
ATOM     12  C   UNL     1      -1.029  -4.201  -0.736  0.00  0.00    +0.008 A 
ATOM     13  C   UNL     1      -1.424  -4.741   0.473  0.00  0.00    -0.015 A 
ATOM     14  C   UNL     1      -1.796  -3.909   1.513  0.00  0.00    +0.008 A 
ATOM     15  C   UNL     1      -1.770  -2.538   1.344  0.00  0.00    +0.022 A 
BRANCH  10  16
ATOM     16  N   UNL     1      -1.358  -0.611  -0.040  0.00  0.00    -0.394 NA
ATOM     17  H   UNL     1      -1.654  -0.161   0.813  0.00  0.00    +0.126 HD
BRANCH  16  19
ATOM     18  C   UNL     1       0.926  -0.431   0.823  0.00  0.00    +0.022 C 
ATOM     19  C   UNL     1       0.006  -0.181  -0.373  0.00  0.00    +0.081 C 
ENDBRANCH  16  19
BRANCH  16  20
ATOM     20  C   UNL     1      -2.269  -0.238  -1.131  0.00  0.00    +0.081 C 
ATOM     21  C   UNL     1      -3.707  -0.572  -0.731  0.00  0.00    +0.022 C 
ENDBRANCH  16  20
ENDBRANCH  10  16
ENDBRANCH   1  13
BRANCH   4  22
ATOM     22  C   UNL     1      -4.783  -8.899   2.546  0.00  0.00    +0.021 A 
ATOM     23  C   UNL     1      -5.532  -7.909   1.908  0.00  0.00    +0.012 A 
ATOM     24  C   UNL     1      -6.879  -8.105   1.681  0.00  0.00    +0.005 A 
ATOM     25  C   UNL     1      -7.487  -9.280   2.086  0.00  0.00    -0.042 A 
ATOM     26  C   UNL     1      -6.751 -10.265   2.719  0.00  0.00    +0.005 A 
ATOM     27  C   UNL     1      -5.402 -10.084   2.946  0.00  0.00    +0.012 A 
BRANCH  25  28
ATOM     28  C   UNL     1      -8.959  -9.487   1.835  0.00  0.00    -0.013 C 
ATOM     29  C   UNL     1      -9.234  -9.424   0.332  0.00  0.00    +0.015 C 
ATOM     30  C   UNL     1      -9.380 -10.856   2.374  0.00  0.00    +0.015 C 
ATOM     31  C   UNL     1      -9.756  -8.392   2.547  0.00  0.00    +0.015 C 
ENDBRANCH  25  28
ENDBRANCH   4  22
TORSDOF 6
