REMARK  Name = ZINC63486398
REMARK  8 active torsions:
REMARK  status: ('A' for Active; 'I' for Inactive)
REMARK    1  A    between atoms: C_1  and  C_2
REMARK    2  A    between atoms: C_7  and  O_32
REMARK    3  A    between atoms: C_13  and  C_15
REMARK    4  A    between atoms: C_15  and  C_16
REMARK    5  A    between atoms: C_16  and  C_17
REMARK    6  A    between atoms: N_19  and  C_20
REMARK    7  A    between atoms: C_20  and  C_21
REMARK    8  A    between atoms: C_21  and  C_22
REMARK                            x       y       z     vdW  Elec       q    Type
REMARK                         _______ _______ _______ _____ _____    ______ ____
ROOT
ATOM      1  C   UNL     1       2.325  -3.899   2.068  0.00  0.00    +0.213 C 
ATOM      2  O   UNL     1       1.941  -4.504   1.090  0.00  0.00    -0.276 OA
ATOM      3  N   UNL     1       3.076  -4.525   2.996  0.00  0.00    -0.315 N 
ATOM      4  H   UNL     1       3.383  -4.041   3.779  0.00  0.00    +0.149 HD
ENDROOT
BRANCH   1   5
ATOM      5  C   UNL     1       1.964  -2.447   2.246  0.00  0.00    +0.096 C 
BRANCH   5   6
ATOM      6  C   UNL     1       1.114  -1.984   1.061  0.00  0.00    +0.024 C 
BRANCH   6  18
ATOM      7  C   UNL     1      -0.019   1.526   0.010  0.00  0.00    +0.013 C 
ATOM      8  C   UNL     1       0.002  -0.004   0.002  0.00  0.00    +0.033 C 
ATOM      9  C   UNL     1      -1.413  -0.524   0.009  0.00  0.00    -0.001 A 
ATOM     10  C   UNL     1      -2.113  -0.549  -1.188  0.00  0.00    +0.011 A 
ATOM     11  C   UNL     1      -3.412  -1.010  -1.229  0.00  0.00    +0.046 A 
ATOM     12  C   UNL     1      -4.028  -1.453  -0.067  0.00  0.00    +0.120 A 
ATOM     13  C   UNL     1      -3.332  -1.432   1.131  0.00  0.00    +0.092 A 
ATOM     14  C   UNL     1      -2.021  -0.971   1.169  0.00  0.00    +0.139 A 
ATOM     15  O   UNL     1      -1.367  -0.986   2.362  0.00  0.00    -0.425 OA
ATOM     16  C   UNL     1      -0.179  -0.353   2.429  0.00  0.00    +0.316 C 
ATOM     17  O   UNL     1       0.133   0.308   3.392  0.00  0.00    -0.250 OA
ATOM     18  C   UNL     1       0.747  -0.510   1.241  0.00  0.00    +0.106 C 
BRANCH  12  19
ATOM     19  O   UNL     1      -5.309  -1.904  -0.103  0.00  0.00    -0.507 OA
ATOM     20  H   UNL     1      -5.388  -2.853  -0.270  0.00  0.00    +0.292 HD
ENDBRANCH  12  19
ENDBRANCH   6  18
ENDBRANCH   5   6
ENDBRANCH   1   5
BRANCH   3  21
ATOM     21  C   UNL     1       3.428  -5.936   2.823  0.00  0.00    +0.108 C 
BRANCH  21  22
ATOM     22  C   UNL     1       4.277  -6.399   4.008  0.00  0.00    +0.052 C 
BRANCH  22  23
ATOM     23  C   UNL     1       4.639  -7.851   3.830  0.00  0.00    -0.040 C 
ATOM     24  C   UNL     1       5.777  -8.346   3.292  0.00  0.00    +0.002 A 
ATOM     25  C   UNL     1       6.973  -7.704   2.733  0.00  0.00    +0.048 A 
ATOM     26  C   UNL     1       7.974  -8.481   2.257  0.00  0.00    +0.124 A 
ATOM     27  C   UNL     1       7.896  -9.883   2.287  0.00  0.00    +0.040 A 
ATOM     28  C   UNL     1       6.830 -10.543   2.785  0.00  0.00    +0.029 A 
ATOM     29  C   UNL     1       5.721  -9.825   3.311  0.00  0.00    +0.043 A 
ATOM     30  N   UNL     1       4.591 -10.229   3.840  0.00  0.00    -0.380 N 
ATOM     31  C   UNL     1       3.806  -9.051   4.223  0.00  0.00    +0.144 C 
ATOM     32  F   UNL     1       9.076  -7.894   1.741  0.00  0.00    -0.205 F 
ATOM     33  H   UNL     1       4.322 -11.153   3.962  0.00  0.00    +0.160 HD
ENDBRANCH  22  23
ENDBRANCH  21  22
ENDBRANCH   3  21
TORSDOF 7
