REMARK  Name = ZINC06321408
REMARK  8 active torsions:
REMARK  status: ('A' for Active; 'I' for Inactive)
REMARK    1  A    between atoms: C_1  and  C_2
REMARK    2  A    between atoms: C_6  and  C_15
REMARK    3  A    between atoms: C_13  and  C_14
REMARK    4  A    between atoms: C_15  and  C_17
REMARK    5  A    between atoms: C_15  and  N_63
REMARK    6  A    between atoms: N_21  and  C_22
REMARK    7  A    between atoms: C_22  and  C_23
REMARK    8  A    between atoms: C_32  and  C_35
REMARK                            x       y       z     vdW  Elec       q    Type
REMARK                         _______ _______ _______ _____ _____    ______ ____
ROOT
ATOM      1  C   UNL     1      -0.018   1.503   0.010  0.00  0.00    +0.039 C 
ENDROOT
BRANCH   1   7
ATOM      2  C   UNL     1      -1.450  -5.071  -3.207  0.00  0.00    +0.044 C 
ATOM      3  C   UNL     1      -0.913  -4.261  -2.055  0.00  0.00    -0.047 A 
ATOM      4  C   UNL     1      -0.960  -2.896  -2.107  0.00  0.00    +0.013 A 
ATOM      5  C   UNL     1      -0.462  -2.144  -1.039  0.00  0.00    -0.001 A 
ATOM      6  C   UNL     1      -0.501  -0.681  -1.060  0.00  0.00    +0.017 A 
ATOM      7  C   UNL     1       0.002  -0.004   0.002  0.00  0.00    +0.011 A 
ATOM      8  C   UNL     1       0.539  -0.706   1.102  0.00  0.00    +0.251 A 
ATOM      9  O   UNL     1       0.982  -0.078   2.049  0.00  0.00    -0.268 OA
ATOM     10  N   UNL     1       0.575  -2.050   1.133  0.00  0.00    -0.322 N 
ATOM     11  H   UNL     1       0.952  -2.501   1.905  0.00  0.00    +0.169 HD
ATOM     12  C   UNL     1       0.085  -2.796   0.083  0.00  0.00    +0.049 A 
ATOM     13  C   UNL     1       0.122  -4.186   0.113  0.00  0.00    +0.030 A 
ATOM     14  C   UNL     1      -0.375  -4.907  -0.951  0.00  0.00    -0.046 A 
ATOM     15  C   UNL     1      -0.334  -6.413  -0.915  0.00  0.00    +0.044 C 
ENDBRANCH   1   7
BRANCH   1  22
ATOM     16  C   UNL     1      -2.056   1.406   1.314  0.00  0.00    -0.077 C 
ATOM     17  C   UNL     1      -2.686   1.803   2.651  0.00  0.00    -0.018 C 
ATOM     18  C   UNL     1      -2.748   3.330   2.747  0.00  0.00    -0.001 C 
ATOM     19  C   UNL     1      -1.336   3.901   2.597  0.00  0.00    -0.031 C 
ATOM     20  C   UNL     1      -0.745   3.444   1.261  0.00  0.00    -0.074 C 
ATOM     21  C   UNL     1      -1.396   5.430   2.632  0.00  0.00    +0.005 C 
ATOM     22  N   UNL     1      -0.690   1.967   1.242  0.00  0.00    +0.389 N 
ATOM     23  H   UNL     1      -0.154   1.643   2.056  0.00  0.00    -0.080 HD
ENDBRANCH   1  22
BRANCH   1  24
ATOM     24  C   UNL     1       1.395   2.024  -0.000  0.00  0.00    +0.143 A 
ATOM     25  N   UNL     1       2.234   2.034   1.007  0.00  0.00    -0.115 NA
ATOM     26  N   UNL     1       3.338   2.559   0.601  0.00  0.00    -0.023 NA
ATOM     27  N   UNL     1       3.226   2.884  -0.640  0.00  0.00    -0.044 NA
ATOM     28  N   UNL     1       2.045   2.565  -1.048  0.00  0.00    -0.226 N 
BRANCH  28  29
ATOM     29  C   UNL     1       1.509   2.760  -2.398  0.00  0.00    +0.182 C 
BRANCH  29  30
ATOM     30  C   UNL     1       0.853   4.114  -2.488  0.00  0.00    -0.026 A 
ATOM     31  C   UNL     1      -0.490   4.253  -2.191  0.00  0.00    +0.005 A 
ATOM     32  C   UNL     1      -1.090   5.495  -2.268  0.00  0.00    +0.000 A 
ATOM     33  C   UNL     1      -0.349   6.597  -2.654  0.00  0.00    +0.000 A 
ATOM     34  C   UNL     1       0.992   6.457  -2.957  0.00  0.00    +0.000 A 
ATOM     35  C   UNL     1       1.593   5.215  -2.873  0.00  0.00    +0.005 A 
ENDBRANCH  29  30
ENDBRANCH  28  29
ENDBRANCH   1  24
TORSDOF 5
