REMARK  Name = ZINC62835336
REMARK  11 active torsions:
REMARK  status: ('A' for Active; 'I' for Inactive)
REMARK    1  A    between atoms: C_1  and  C_2
REMARK    2  A    between atoms: C_2  and  N_3
REMARK    3  A    between atoms: N_3  and  C_4
REMARK    4  A    between atoms: N_3  and  C_14
REMARK    5  A    between atoms: C_7  and  C_11
REMARK    6  A    between atoms: C_9  and  N_10
REMARK    7  A    between atoms: C_14  and  C_16
REMARK    8  A    between atoms: C_14  and  C_17
REMARK    9  A    between atoms: N_19  and  C_20
REMARK   10  A    between atoms: C_20  and  C_21
REMARK   11  A    between atoms: C_20  and  C_22
REMARK                            x       y       z     vdW  Elec       q    Type
REMARK                         _______ _______ _______ _____ _____    ______ ____
ROOT
ATOM      1  N   UNL     1       0.528  -0.484  -1.222  0.00  0.00    -0.317 N 
ENDROOT
BRANCH   1   2
ATOM      2  C   UNL     1       1.889  -0.780  -1.239  0.00  0.00    +0.051 A 
ATOM      3  C   UNL     1       2.321  -2.072  -0.965  0.00  0.00    +0.026 A 
ATOM      4  C   UNL     1       3.666  -2.370  -0.981  0.00  0.00    +0.017 A 
ATOM      5  C   UNL     1       4.601  -1.371  -1.273  0.00  0.00    +0.065 A 
ATOM      6  C   UNL     1       4.167  -0.069  -1.550  0.00  0.00    +0.039 A 
ATOM      7  C   UNL     1       2.817   0.223  -1.538  0.00  0.00    +0.047 A 
BRANCH   7   8
ATOM      8  N   UNL     1       2.378   1.522  -1.819  0.00  0.00    -0.357 N 
ATOM      9  H   UNL     1       1.430   1.727  -1.807  0.00  0.00    +0.142 HD
ATOM     10  H   UNL     1       3.022   2.217  -2.027  0.00  0.00    +0.142 HD
ENDBRANCH   7   8
BRANCH   5  11
ATOM     11  C   UNL     1       6.037  -1.688  -1.290  0.00  0.00    +0.387 C 
ATOM     12  O   UNL     1       6.415  -2.826  -1.048  0.00  0.00    -0.241 OA
ATOM     13  O   UNL     1       6.854  -0.813  -1.545  0.00  0.00    -0.241 OA
ENDBRANCH   5  11
ENDBRANCH   1   2
BRANCH   1  15
ATOM     14  C   UNL     1      -0.168   1.493   0.037  0.00  0.00    +0.024 C 
ATOM     15  C   UNL     1      -0.108  -0.035   0.019  0.00  0.00    +0.102 C 
ENDBRANCH   1  15
BRANCH   1  16
ATOM     16  C   UNL     1      -0.267  -0.623  -2.444  0.00  0.00    +0.156 C 
ATOM     17  C   UNL     1       0.393   0.170  -3.574  0.00  0.00    +0.038 C 
BRANCH  16  18
ATOM     18  C   UNL     1      -0.346  -2.077  -2.830  0.00  0.00    +0.233 C 
ATOM     19  O   UNL     1       0.318  -2.899  -2.236  0.00  0.00    -0.274 OA
ATOM     20  N   UNL     1      -1.155  -2.464  -3.837  0.00  0.00    -0.311 N 
ATOM     21  H   UNL     1      -1.686  -1.806  -4.312  0.00  0.00    +0.149 HD
BRANCH  20  22
ATOM     22  C   UNL     1      -1.232  -3.878  -4.212  0.00  0.00    +0.067 C 
ATOM     23  C   UNL     1      -2.249  -4.589  -3.317  0.00  0.00    +0.027 C 
ATOM     24  C   UNL     1      -1.669  -3.995  -5.674  0.00  0.00    +0.027 C 
ENDBRANCH  20  22
ENDBRANCH  16  18
ENDBRANCH   1  16
TORSDOF 7
