REMARK  Name = ZINC45555044
REMARK  4 active torsions:
REMARK  status: ('A' for Active; 'I' for Inactive)
REMARK    1  A    between atoms: N_11  and  C_15
REMARK    2  A    between atoms: C_15  and  C_16
REMARK    3  A    between atoms: C_19  and  C_25
REMARK    4  A    between atoms: C_21  and  N_22
REMARK                            x       y       z     vdW  Elec       q    Type
REMARK                         _______ _______ _______ _____ _____    ______ ____
ROOT
ATOM      1  C   UNL     1       0.364  -3.130  -0.017  0.00  0.00    +0.169 C 
ENDROOT
BRANCH   1  12
ATOM      2  C   UNL     1      -0.017   1.385   0.010  0.00  0.00    +0.002 A 
ATOM      3  C   UNL     1       1.125   2.132   0.003  0.00  0.00    +0.009 A 
ATOM      4  C   UNL     1       2.365   1.473  -0.012  0.00  0.00    -0.014 A 
ATOM      5  C   UNL     1       3.596   2.151  -0.019  0.00  0.00    +0.009 A 
ATOM      6  C   UNL     1       4.760   1.440  -0.034  0.00  0.00    +0.003 A 
ATOM      7  C   UNL     1       4.758   0.040  -0.042  0.00  0.00    +0.029 A 
ATOM      8  C   UNL     1       3.590  -0.629  -0.036  0.00  0.00    +0.118 A 
ATOM      9  C   UNL     1       2.374   0.063  -0.020  0.00  0.00    +0.031 A 
ATOM     10  C   UNL     1       1.209  -0.701  -0.013  0.00  0.00    +0.061 A 
ATOM     11  C   UNL     1       0.002  -0.004   0.002  0.00  0.00    +0.025 A 
ATOM     12  N   UNL     1       1.399  -2.093  -0.022  0.00  0.00    -0.198 N 
ATOM     13  S   UNL     1       3.061  -2.318  -0.041  0.00  0.00    +0.076 S 
ATOM     14  O   UNL     1       3.409  -2.878  -1.299  0.00  0.00    -0.150 OA
ATOM     15  O   UNL     1       3.434  -2.893   1.204  0.00  0.00    -0.150 OA
ENDBRANCH   1  12
BRANCH   1  16
ATOM     16  C   UNL     1      -0.093  -3.390  -1.430  0.00  0.00    +0.002 A 
ATOM     17  C   UNL     1      -1.265  -2.817  -1.891  0.00  0.00    +0.008 A 
ATOM     18  C   UNL     1      -1.688  -3.051  -3.183  0.00  0.00    +0.013 A 
ATOM     19  C   UNL     1      -0.932  -3.869  -4.025  0.00  0.00    +0.039 A 
ATOM     20  C   UNL     1       0.249  -4.443  -3.553  0.00  0.00    +0.046 A 
ATOM     21  C   UNL     1       0.664  -4.197  -2.261  0.00  0.00    +0.132 A 
BRANCH  19  22
ATOM     22  C   UNL     1      -1.381  -4.125  -5.410  0.00  0.00    +0.242 C 
ATOM     23  O   UNL     1      -0.721  -4.837  -6.141  0.00  0.00    -0.270 OA
ATOM     24  N   UNL     1      -2.522  -3.568  -5.863  0.00  0.00    -0.325 N 
ATOM     25  H   UNL     1      -3.049  -3.000  -5.279  0.00  0.00    +0.145 HD
ATOM     26  H   UNL     1      -2.817  -3.736  -6.771  0.00  0.00    +0.145 HD
ENDBRANCH  19  22
BRANCH  21  27
ATOM     27  N   UNL     1       1.919  -4.800  -1.760  0.00  0.00    +0.057 N 
ATOM     28  O   UNL     1       2.582  -5.505  -2.486  0.00  0.00    -0.126 OA
ATOM     29  O   UNL     1       2.282  -4.589  -0.627  0.00  0.00    -0.126 OA
ENDBRANCH  21  27
ENDBRANCH   1  16
TORSDOF 4
