REMARK  Name = ZINC62369142
REMARK  9 active torsions:
REMARK  status: ('A' for Active; 'I' for Inactive)
REMARK    1  A    between atoms: C_1  and  C_2
REMARK    2  A    between atoms: C_2  and  C_3
REMARK    3  A    between atoms: C_7  and  C_24
REMARK    4  A    between atoms: C_8  and  N_9
REMARK    5  A    between atoms: N_12  and  C_13
REMARK    6  A    between atoms: C_13  and  C_14
REMARK    7  A    between atoms: C_13  and  C_15
REMARK    8  A    between atoms: N_17  and  C_18
REMARK    9  A    between atoms: C_18  and  C_19
REMARK                            x       y       z     vdW  Elec       q    Type
REMARK                         _______ _______ _______ _____ _____    ______ ____
ROOT
ATOM      1  N   UNL     1      -1.248  -0.239   2.873  0.00  0.00    -0.269 N 
ATOM      2  C   UNL     1      -1.839  -0.648   4.013  0.00  0.00    +0.304 C 
ATOM      3  O   UNL     1      -1.195  -1.251   4.849  0.00  0.00    -0.252 OA
ATOM      4  N   UNL     1      -3.144  -0.388   4.226  0.00  0.00    -0.288 N 
ATOM      5  H   UNL     1      -1.740   0.306   2.239  0.00  0.00    +0.156 HD
ATOM      6  H   UNL     1      -3.658   0.094   3.558  0.00  0.00    +0.151 HD
ENDROOT
BRANCH   1  12
ATOM      7  C   UNL     1       1.095   0.336   2.737  0.00  0.00    -0.026 A 
ATOM      8  C   UNL     1       2.402  -0.026   2.475  0.00  0.00    +0.005 A 
ATOM      9  C   UNL     1       2.697  -1.316   2.075  0.00  0.00    +0.001 A 
ATOM     10  C   UNL     1       1.686  -2.248   1.935  0.00  0.00    +0.005 A 
ATOM     11  C   UNL     1       0.377  -1.893   2.194  0.00  0.00    -0.029 A 
ATOM     12  C   UNL     1       0.077  -0.600   2.603  0.00  0.00    +0.041 A 
ATOM     13  C   UNL     1      -0.725  -2.910   2.041  0.00  0.00    +0.045 C 
BRANCH   7  15
ATOM     14  C   UNL     1       0.717   1.801   4.701  0.00  0.00    +0.009 C 
ATOM     15  C   UNL     1       0.773   1.742   3.174  0.00  0.00    +0.033 C 
ENDBRANCH   7  15
ENDBRANCH   1  12
BRANCH   4  16
ATOM     16  C   UNL     1      -3.787  -0.832   5.465  0.00  0.00    +0.157 C 
ATOM     17  C   UNL     1      -3.551   0.207   6.563  0.00  0.00    +0.038 C 
BRANCH  16  18
ATOM     18  C   UNL     1      -5.267  -0.992   5.233  0.00  0.00    +0.233 C 
ATOM     19  O   UNL     1      -5.739  -0.758   4.141  0.00  0.00    -0.274 OA
ATOM     20  N   UNL     1      -6.067  -1.396   6.240  0.00  0.00    -0.307 N 
ATOM     21  H   UNL     1      -5.690  -1.583   7.114  0.00  0.00    +0.149 HD
BRANCH  20  22
ATOM     22  C   UNL     1      -7.506  -1.551   6.016  0.00  0.00    +0.178 C 
BRANCH  22  23
ATOM     23  C   UNL     1      -8.167  -2.009   7.290  0.00  0.00    +0.122 A 
ATOM     24  C   UNL     1      -8.675  -1.208   8.244  0.00  0.00    +0.046 A 
ATOM     25  C   UNL     1      -9.193  -2.051   9.254  0.00  0.00    +0.041 A 
ATOM     26  C   UNL     1      -8.971  -3.317   8.856  0.00  0.00    +0.195 A 
ATOM     27  O   UNL     1      -8.355  -3.285   7.664  0.00  0.00    -0.466 OA
ENDBRANCH  22  23
ENDBRANCH  20  22
ENDBRANCH  16  18
ENDBRANCH   4  16
TORSDOF 6
