REMARK  Name = ZINC13995580
REMARK  14 active torsions:
REMARK  status: ('A' for Active; 'I' for Inactive)
REMARK    1  A    between atoms: C_1  and  C_2
REMARK    2  A    between atoms: C_2  and  C_3
REMARK    3  A    between atoms: C_3  and  C_5
REMARK    4  A    between atoms: C_3  and  O_29
REMARK    5  A    between atoms: N_7  and  C_8
REMARK    6  A    between atoms: C_13  and  N_14
REMARK    7  A    between atoms: C_15  and  C_17
REMARK    8  A    between atoms: C_17  and  C_19
REMARK    9  A    between atoms: C_17  and  O_21
REMARK   10  A    between atoms: C_19  and  C_20
REMARK   11  A    between atoms: O_21  and  C_22
REMARK   12  A    between atoms: C_27  and  C_28
REMARK   13  A    between atoms: O_29  and  C_30
REMARK   14  A    between atoms: C_35  and  C_36
REMARK                            x       y       z     vdW  Elec       q    Type
REMARK                         _______ _______ _______ _____ _____    ______ ____
ROOT
ATOM      1  C   UNL     1      -1.293  -3.513   1.871  0.00  0.00    +0.055 A 
ATOM      2  C   UNL     1      -1.625  -4.482   0.935  0.00  0.00    +0.025 A 
ATOM      3  C   UNL     1      -1.568  -5.820   1.277  0.00  0.00    +0.002 A 
ATOM      4  C   UNL     1      -1.180  -6.197   2.549  0.00  0.00    +0.002 A 
ATOM      5  C   UNL     1      -0.847  -5.239   3.487  0.00  0.00    +0.025 A 
ATOM      6  C   UNL     1      -0.896  -3.894   3.152  0.00  0.00    +0.055 A 
ENDROOT
BRANCH   1   9
ATOM      7  C   UNL     1      -1.211  -1.781   0.240  0.00  0.00    +0.258 C 
ATOM      8  O   UNL     1      -1.103  -2.620  -0.628  0.00  0.00    -0.271 OA
ATOM      9  N   UNL     1      -1.349  -2.156   1.527  0.00  0.00    -0.281 N 
ATOM     10  H   UNL     1      -1.488  -1.487   2.215  0.00  0.00    +0.155 HD
BRANCH   7  11
ATOM     11  C   UNL     1      -1.192  -0.317  -0.120  0.00  0.00    +0.259 C 
BRANCH  11  13
ATOM     12  C   UNL     1       0.003   1.849   0.232  0.00  0.00    +0.008 C 
ATOM     13  C   UNL     1       0.047   0.341   0.491  0.00  0.00    +0.051 C 
ENDBRANCH  11  13
BRANCH  11  14
ATOM     14  O   UNL     1      -1.153  -0.177  -1.542  0.00  0.00    -0.479 OA
BRANCH  14  15
ATOM     15  C   UNL     1      -1.863   0.850  -2.079  0.00  0.00    +0.124 A 
ATOM     16  C   UNL     1      -2.509   1.757  -1.252  0.00  0.00    +0.046 A 
ATOM     17  C   UNL     1      -3.229   2.800  -1.801  0.00  0.00    +0.004 A 
ATOM     18  C   UNL     1      -3.306   2.941  -3.174  0.00  0.00    +0.000 A 
ATOM     19  C   UNL     1      -2.663   2.039  -4.001  0.00  0.00    +0.007 A 
ATOM     20  C   UNL     1      -1.937   0.997  -3.457  0.00  0.00    -0.009 A 
ATOM     21  C   UNL     1      -1.231   0.017  -4.359  0.00  0.00    +0.047 C 
ENDBRANCH  14  15
ENDBRANCH  11  14
ENDBRANCH   7  11
ENDBRANCH   1   9
BRANCH   6  22
ATOM     22  N   UNL     1      -0.553  -2.921   4.099  0.00  0.00    -0.281 N 
ATOM     23  C   UNL     1      -0.843  -3.115   5.401  0.00  0.00    +0.258 C 
ATOM     24  O   UNL     1      -1.329  -4.166   5.763  0.00  0.00    -0.271 OA
ATOM     25  H   UNL     1      -0.106  -2.107   3.818  0.00  0.00    +0.155 HD
BRANCH  23  26
ATOM     26  C   UNL     1      -0.564  -2.028   6.406  0.00  0.00    +0.259 C 
BRANCH  26  27
ATOM     27  C   UNL     1       0.946  -1.792   6.496  0.00  0.00    +0.051 C 
ATOM     28  C   UNL     1       1.222  -0.606   7.421  0.00  0.00    +0.008 C 
ENDBRANCH  26  27
BRANCH  26  29
ATOM     29  O   UNL     1      -1.060  -2.424   7.686  0.00  0.00    -0.479 OA
BRANCH  29  30
ATOM     30  C   UNL     1      -1.559  -1.444   8.485  0.00  0.00    +0.124 A 
ATOM     31  C   UNL     1      -1.659  -0.144   8.009  0.00  0.00    +0.046 A 
ATOM     32  C   UNL     1      -2.167   0.851   8.822  0.00  0.00    +0.004 A 
ATOM     33  C   UNL     1      -2.575   0.552  10.109  0.00  0.00    +0.000 A 
ATOM     34  C   UNL     1      -2.476  -0.742  10.585  0.00  0.00    +0.007 A 
ATOM     35  C   UNL     1      -1.974  -1.742   9.774  0.00  0.00    -0.009 A 
ATOM     36  C   UNL     1      -1.872  -3.153  10.292  0.00  0.00    +0.047 C 
ENDBRANCH  29  30
ENDBRANCH  26  29
ENDBRANCH  23  26
ENDBRANCH   6  22
TORSDOF 10
