REMARK  Name = ZINC05636918
REMARK  3 active torsions:
REMARK  status: ('A' for Active; 'I' for Inactive)
REMARK    1  A    between atoms: C_5  and  N_7
REMARK    2  A    between atoms: C_13  and  C_14
REMARK    3  A    between atoms: C_17  and  C_20
REMARK                            x       y       z     vdW  Elec       q    Type
REMARK                         _______ _______ _______ _____ _____    ______ ____
ROOT
ATOM      1  N   UNL     1       1.199  -1.974   0.659  0.00  0.00    -0.224 NA
ATOM      2  C   UNL     1       0.089  -2.673   0.599  0.00  0.00    +0.166 C 
ATOM      3  N   UNL     1      -1.209  -2.216   0.533  0.00  0.00    -0.260 N 
ATOM      4  C   UNL     1      -2.222  -3.065   0.476  0.00  0.00    +0.256 C 
ATOM      5  O   UNL     1      -3.374  -2.679   0.417  0.00  0.00    -0.269 OA
ATOM      6  C   UNL     1      -1.888  -4.505   0.487  0.00  0.00    +0.078 C 
ATOM      7  C   UNL     1      -2.714  -5.581   0.438  0.00  0.00    +0.028 C 
ATOM      8  S   UNL     1      -0.104  -4.448   0.574  0.00  0.00    -0.049 S 
ATOM      9  H   UNL     1      -1.382  -1.261   0.529  0.00  0.00    +0.157 HD
ENDROOT
BRANCH   1  14
ATOM     10  C   UNL     1       0.269   1.371   1.794  0.00  0.00    +0.002 A 
ATOM     11  C   UNL     1       1.031   2.152   0.943  0.00  0.00    +0.002 A 
ATOM     12  C   UNL     1       1.848   1.560  -0.004  0.00  0.00    +0.022 A 
ATOM     13  C   UNL     1       1.910   0.185  -0.104  0.00  0.00    +0.066 A 
ATOM     14  C   UNL     1       1.143  -0.609   0.753  0.00  0.00    +0.085 A 
ATOM     15  C   UNL     1       0.320  -0.004   1.706  0.00  0.00    +0.029 A 
ATOM     16 CL   UNL     1       2.936  -0.556  -1.292  0.00  0.00    -0.081 Cl
ENDBRANCH   1  14
BRANCH   7  17
ATOM     17  C   UNL     1      -2.170  -6.932   0.624  0.00  0.00    -0.024 A 
ATOM     18  C   UNL     1      -0.902  -7.106   1.194  0.00  0.00    +0.009 A 
ATOM     19  C   UNL     1      -0.399  -8.364   1.366  0.00  0.00    +0.019 A 
ATOM     20  C   UNL     1      -1.148  -9.478   0.974  0.00  0.00    +0.052 A 
ATOM     21  C   UNL     1      -2.413  -9.305   0.404  0.00  0.00    +0.019 A 
ATOM     22  C   UNL     1      -2.922  -8.049   0.236  0.00  0.00    +0.009 A 
BRANCH  20  23
ATOM     23  C   UNL     1      -0.618 -10.796   1.155  0.00  0.00    +0.099 C 
ATOM     24  N   UNL     1      -0.198 -11.841   1.299  0.00  0.00    -0.191 NA
ENDBRANCH  20  23
ENDBRANCH   7  17
TORSDOF 3
