REMARK  Name = ZINC40546240
REMARK  6 active torsions:
REMARK  status: ('A' for Active; 'I' for Inactive)
REMARK    1  A    between atoms: C_1  and  C_2
REMARK    2  A    between atoms: C_5  and  C_9
REMARK    3  A    between atoms: C_6  and  N_8
REMARK    4  A    between atoms: C_15  and  C_20
REMARK    5  A    between atoms: C_20  and  C_21
REMARK    6  A    between atoms: C_20  and  C_22
REMARK                            x       y       z     vdW  Elec       q    Type
REMARK                         _______ _______ _______ _____ _____    ______ ____
ROOT
ATOM      1  C   UNL     1      -0.007   1.501  -0.068  0.00  0.00    +0.086 C 
ATOM      2  C   UNL     1       0.012  -0.006  -0.036  0.00  0.00    +0.106 C 
ATOM      3  C   UNL     1      -1.125  -0.651   0.066  0.00  0.00    +0.087 C 
ATOM      4  C   UNL     1      -1.171  -2.153   0.103  0.00  0.00    +0.235 C 
ATOM      5  C   UNL     1       0.195  -2.711   0.399  0.00  0.00    +0.137 C 
ATOM      6  C   UNL     1       1.299  -1.927   0.274  0.00  0.00    +0.198 C 
ATOM      7  O   UNL     1       1.199  -0.644  -0.119  0.00  0.00    -0.446 OA
ATOM      8  N   UNL     1      -2.125  -2.602   1.124  0.00  0.00    -0.297 N 
ATOM      9  C   UNL     1      -3.100  -3.349   0.447  0.00  0.00    +0.073 A 
ATOM     10  C   UNL     1      -4.229  -4.009   0.913  0.00  0.00    +0.030 A 
ATOM     11  C   UNL     1      -5.047  -4.688   0.030  0.00  0.00    -0.043 A 
ATOM     12  C   UNL     1      -4.742  -4.709  -1.319  0.00  0.00    +0.007 A 
ATOM     13  C   UNL     1      -3.620  -4.054  -1.788  0.00  0.00    +0.048 A 
ATOM     14  C   UNL     1      -2.791  -3.369  -0.909  0.00  0.00    +0.145 A 
ATOM     15  O   UNL     1      -1.651  -2.664  -1.141  0.00  0.00    -0.458 OA
ATOM     16  H   UNL     1      -2.088  -2.419   2.076  0.00  0.00    +0.151 HD
ENDROOT
BRANCH   5  17
ATOM     17  C   UNL     1       0.330  -4.049   0.806  0.00  0.00    +0.248 C 
ATOM     18  O   UNL     1       0.277  -4.945  -0.019  0.00  0.00    -0.270 OA
ATOM     19  N   UNL     1       0.518  -4.341   2.108  0.00  0.00    -0.325 N 
ATOM     20  H   UNL     1       0.484  -3.636   2.773  0.00  0.00    +0.145 HD
ATOM     21  H   UNL     1       0.687  -5.257   2.380  0.00  0.00    +0.145 HD
ENDBRANCH   5  17
BRANCH   6  22
ATOM     22  N   UNL     1       2.533  -2.454   0.549  0.00  0.00    -0.329 N 
ATOM     23  H   UNL     1       2.624  -3.400   0.745  0.00  0.00    +0.145 HD
ATOM     24  H   UNL     1       3.316  -1.882   0.547  0.00  0.00    +0.145 HD
ENDBRANCH   6  22
BRANCH  11  25
ATOM     25  C   UNL     1      -6.272  -5.404   0.537  0.00  0.00    +0.013 C 
ATOM     26  C   UNL     1      -7.518  -4.822  -0.133  0.00  0.00    +0.012 C 
ATOM     27  C   UNL     1      -6.164  -6.894   0.205  0.00  0.00    +0.012 C 
ENDBRANCH  11  25
TORSDOF 3
