REMARK  Name = ZINC20997892
REMARK  8 active torsions:
REMARK  status: ('A' for Active; 'I' for Inactive)
REMARK    1  A    between atoms: C_1  and  C_2
REMARK    2  A    between atoms: C_11  and  C_22
REMARK    3  A    between atoms: C_16  and  S_20
REMARK    4  A    between atoms: S_20  and  C_21
REMARK    5  A    between atoms: C_22  and  N_23
REMARK    6  A    between atoms: N_23  and  C_24
REMARK    7  A    between atoms: C_29  and  C_31
REMARK    8  A    between atoms: C_29  and  C_32
REMARK                            x       y       z     vdW  Elec       q    Type
REMARK                         _______ _______ _______ _____ _____    ______ ____
ROOT
ATOM      1  C   UNL     1      -1.110   7.811  -1.318  0.00  0.00    +0.109 C 
ATOM      2  C   UNL     1      -0.582   7.202  -0.045  0.00  0.00    +0.213 C 
ATOM      3  O   UNL     1      -0.923   7.651   1.029  0.00  0.00    -0.276 OA
ATOM      4  N   UNL     1       0.269   6.159  -0.099  0.00  0.00    -0.299 N 
ATOM      5  C   UNL     1       0.599   5.519  -1.382  0.00  0.00    +0.126 C 
ATOM      6  C   UNL     1       0.389   4.008  -1.241  0.00  0.00    +0.125 C 
ATOM      7  N   UNL     1       1.154   3.517  -0.087  0.00  0.00    -0.312 N 
ATOM      8  C   UNL     1       0.672   4.114   1.165  0.00  0.00    +0.125 C 
ATOM      9  C   UNL     1       0.894   5.630   1.123  0.00  0.00    +0.126 C 
ATOM     10  C   UNL     1       1.121   2.131  -0.022  0.00  0.00    +0.123 A 
ATOM     11  C   UNL     1       2.327   1.419   0.013  0.00  0.00    -0.024 A 
ATOM     12  C   UNL     1       2.310   0.057   0.077  0.00  0.00    +0.015 A 
ATOM     13  C   UNL     1       1.062  -0.596   0.105  0.00  0.00    +0.001 A 
ATOM     14  C   UNL     1       0.977  -1.996   0.172  0.00  0.00    +0.011 A 
ATOM     15  C   UNL     1      -0.240  -2.601   0.198  0.00  0.00    +0.015 A 
ATOM     16  C   UNL     1      -1.418  -1.843   0.159  0.00  0.00    +0.010 A 
ATOM     17  C   UNL     1      -1.367  -0.466   0.094  0.00  0.00    +0.043 A 
ATOM     18  C   UNL     1      -0.122   0.181   0.066  0.00  0.00    +0.074 A 
ATOM     19  N   UNL     1      -0.044   1.516   0.004  0.00  0.00    -0.232 NA
ENDROOT
BRANCH  16  20
ATOM     20  S   UNL     1      -2.980  -2.657   0.195  0.00  0.00    -0.129 S 
ATOM     21  C   UNL     1      -2.555  -4.419   0.279  0.00  0.00    +0.090 C 
ENDBRANCH  16  20
BRANCH  11  22
ATOM     22  C   UNL     1       3.641   2.156  -0.019  0.00  0.00    -0.043 C 
BRANCH  22  23
ATOM     23  N   UNL     1       3.892   2.766   1.294  0.00  0.00    +0.384 N 
ATOM     24  H   UNL     1       3.040   3.404   1.571  0.00  0.00    -0.085 HD
ATOM     25  H   UNL     1       4.018   1.975   2.048  0.00  0.00    -0.085 HD
BRANCH  23  26
ATOM     26  C   UNL     1       5.108   3.590   1.268  0.00  0.00    -0.067 C 
ATOM     27  C   UNL     1       4.764   4.996   0.766  0.00  0.00    +0.012 C 
ATOM     28  C   UNL     1       6.021   5.869   0.817  0.00  0.00    +0.159 C 
ATOM     29  O   UNL     1       6.526   5.896   2.153  0.00  0.00    -0.374 OA
ATOM     30  C   UNL     1       6.909   4.616   2.659  0.00  0.00    +0.063 C 
ATOM     31  C   UNL     1       5.688   3.692   2.682  0.00  0.00    +0.019 C 
ATOM     32  C   UNL     1       7.458   4.771   4.078  0.00  0.00    +0.041 C 
ATOM     33  C   UNL     1       7.988   4.013   1.757  0.00  0.00    +0.041 C 
ENDBRANCH  23  26
ENDBRANCH  22  23
ENDBRANCH  11  22
TORSDOF 4
