REMARK  Name = ZINC63350998
REMARK  11 active torsions:
REMARK  status: ('A' for Active; 'I' for Inactive)
REMARK    1  A    between atoms: C_1  and  C_2
REMARK    2  A    between atoms: C_2  and  C_3
REMARK    3  A    between atoms: C_2  and  C_4
REMARK    4  A    between atoms: C_2  and  O_5
REMARK    5  A    between atoms: O_5  and  C_6
REMARK    6  A    between atoms: N_8  and  C_9
REMARK    7  A    between atoms: C_9  and  C_11
REMARK    8  A    between atoms: C_9  and  C_21
REMARK    9  A    between atoms: C_11  and  C_12
REMARK   10  A    between atoms: C_21  and  O_23
REMARK   11  A    between atoms: O_23  and  C_24
REMARK                            x       y       z     vdW  Elec       q    Type
REMARK                         _______ _______ _______ _____ _____    ______ ____
ROOT
ATOM      1  C   UNL     1       4.043  -0.033  -2.594  0.00  0.00    +0.189 C 
ENDROOT
BRANCH   1   4
ATOM      2  C   UNL     1       1.972   0.034  -1.311  0.00  0.00    +0.401 C 
ATOM      3  O   UNL     1       2.534   0.738  -0.496  0.00  0.00    -0.226 OA
ATOM      4  N   UNL     1       2.639  -0.405  -2.397  0.00  0.00    -0.268 N 
ATOM      5  H   UNL     1       2.191  -0.967  -3.047  0.00  0.00    +0.153 HD
BRANCH   2   6
ATOM      6  O   UNL     1       0.682  -0.308  -1.130  0.00  0.00    -0.445 OA
BRANCH   6   8
ATOM      7  C   UNL     1       0.058   1.722   0.022  0.00  0.00    +0.055 C 
ATOM      8  C   UNL     1       0.037   0.193   0.043  0.00  0.00    +0.107 C 
ATOM      9  C   UNL     1       0.774  -0.311   1.285  0.00  0.00    +0.055 C 
ATOM     10  C   UNL     1      -1.412  -0.298   0.076  0.00  0.00    +0.055 C 
ENDBRANCH   6   8
ENDBRANCH   2   6
ENDBRANCH   1   4
BRANCH   1  11
ATOM     11  C   UNL     1       4.863  -0.535  -1.434  0.00  0.00    +0.333 C 
ATOM     12  O   UNL     1       4.326  -0.810  -0.388  0.00  0.00    -0.248 OA
BRANCH  11  13
ATOM     13  O   UNL     1       6.192  -0.677  -1.564  0.00  0.00    -0.424 OA
BRANCH  13  14
ATOM     14  C   UNL     1       6.906  -1.035  -0.464  0.00  0.00    +0.135 A 
ATOM     15  C   UNL     1       6.899  -2.353  -0.029  0.00  0.00    +0.047 A 
ATOM     16  C   UNL     1       7.622  -2.711   1.091  0.00  0.00    +0.011 A 
ATOM     17  C   UNL     1       8.356  -1.765   1.784  0.00  0.00    -0.001 A 
ATOM     18  C   UNL     1       8.375  -0.446   1.349  0.00  0.00    +0.139 A 
ATOM     19  C   UNL     1       7.645  -0.086   0.222  0.00  0.00    +0.093 A 
ATOM     20  O   UNL     1       9.105   0.514   1.979  0.00  0.00    -0.425 OA
ATOM     21  C   UNL     1       9.732   0.196   3.134  0.00  0.00    +0.316 C 
ATOM     22  O   UNL     1       9.838   0.984   4.044  0.00  0.00    -0.250 OA
ATOM     23  C   UNL     1      10.290  -1.203   3.219  0.00  0.00    +0.106 C 
ATOM     24  C   UNL     1       9.121  -2.172   3.008  0.00  0.00    +0.036 C 
ATOM     25  C   UNL     1       9.669  -3.591   2.926  0.00  0.00    +0.009 C 
ATOM     26  C   UNL     1      10.348  -3.924   4.261  0.00  0.00    +0.001 C 
ATOM     27  C   UNL     1      11.471  -2.929   4.551  0.00  0.00    +0.001 C 
ATOM     28  C   UNL     1      10.926  -1.495   4.574  0.00  0.00    +0.015 C 
ENDBRANCH  13  14
ENDBRANCH  11  13
ENDBRANCH   1  11
BRANCH   1  29
ATOM     29  C   UNL     1       4.159   1.491  -2.679  0.00  0.00    +0.067 C 
BRANCH  29  30
ATOM     30  C   UNL     1       3.440   1.981  -3.909  0.00  0.00    -0.039 C 
ATOM     31  C   UNL     1       2.170   2.441  -3.979  0.00  0.00    -0.001 A 
ATOM     32  C   UNL     1       1.118   2.614  -2.970  0.00  0.00    +0.010 A 
ATOM     33  C   UNL     1      -0.082   3.109  -3.352  0.00  0.00    +0.001 A 
ATOM     34  C   UNL     1      -0.345   3.459  -4.683  0.00  0.00    +0.002 A 
ATOM     35  C   UNL     1       0.571   3.329  -5.666  0.00  0.00    +0.026 A 
ATOM     36  C   UNL     1       1.867   2.819  -5.378  0.00  0.00    +0.043 A 
ATOM     37  N   UNL     1       2.909   2.601  -6.143  0.00  0.00    -0.380 N 
ATOM     38  C   UNL     1       3.994   2.066  -5.314  0.00  0.00    +0.144 C 
ATOM     39  H   UNL     1       2.956   2.770  -7.097  0.00  0.00    +0.160 HD
ENDBRANCH  29  30
ENDBRANCH   1  29
TORSDOF 8
