REMARK  Name = ZINC12040695
REMARK  11 active torsions:
REMARK  status: ('A' for Active; 'I' for Inactive)
REMARK    1  A    between atoms: C_1  and  O_2
REMARK    2  A    between atoms: O_2  and  C_3
REMARK    3  A    between atoms: C_5  and  C_10
REMARK    4  A    between atoms: C_8  and  O_9
REMARK    5  A    between atoms: C_11  and  C_12
REMARK    6  A    between atoms: C_12  and  N_60
REMARK    7  A    between atoms: C_18  and  C_27
REMARK    8  A    between atoms: N_23  and  C_24
REMARK    9  A    between atoms: C_24  and  C_25
REMARK   10  A    between atoms: C_27  and  O_29
REMARK   11  A    between atoms: O_29  and  C_30
REMARK                            x       y       z     vdW  Elec       q    Type
REMARK                         _______ _______ _______ _____ _____    ______ ____
ROOT
ATOM      1  C   UNL     1      -6.046   3.788   1.475  0.00  0.00    -0.076 C 
ATOM      2  C   UNL     1      -6.768   4.142   2.777  0.00  0.00    +0.008 C 
ATOM      3  C   UNL     1      -7.986   3.236   2.942  0.00  0.00    +0.048 C 
ATOM      4  C   UNL     1      -7.559   1.770   2.908  0.00  0.00    +0.008 C 
ATOM      5  C   UNL     1      -6.812   1.491   1.601  0.00  0.00    -0.076 C 
ATOM      6  C   UNL     1      -8.690   3.543   4.279  0.00  0.00    +0.130 C 
ATOM      7  C   UNL     1     -10.177   3.342   3.903  0.00  0.00    +0.112 C 
ATOM      8  C   UNL     1     -10.217   3.571   2.408  0.00  0.00    +0.217 C 
ATOM      9  O   UNL     1     -11.223   3.780   1.763  0.00  0.00    -0.276 OA
ATOM     10  N   UNL     1      -8.973   3.507   1.897  0.00  0.00    -0.291 N 
ATOM     11  N   UNL     1      -5.625   2.371   1.531  0.00  0.00    +0.382 N 
ATOM     12  H   UNL     1      -5.054   2.227   2.372  0.00  0.00    -0.081 HD
ENDROOT
BRANCH   6  13
ATOM     13  C   UNL     1      -8.430   4.963   4.711  0.00  0.00    +0.312 C 
ATOM     14  O   UNL     1      -9.124   5.859   4.291  0.00  0.00    -0.250 OA
BRANCH  13  15
ATOM     15  O   UNL     1      -7.427   5.233   5.562  0.00  0.00    -0.468 OA
ATOM     16  C   UNL     1      -7.235   6.623   5.934  0.00  0.00    +0.280 C 
ENDBRANCH  13  15
ENDBRANCH   6  13
BRANCH  11  17
ATOM     17  C   UNL     1      -4.819   2.037   0.339  0.00  0.00    -0.051 C 
BRANCH  17  19
ATOM     18  C   UNL     1      -2.493   2.778   0.075  0.00  0.00    +0.002 C 
ATOM     19  C   UNL     1      -3.777   3.106   0.133  0.00  0.00    -0.045 C 
BRANCH  18  22
ATOM     20  C   UNL     1       0.832   4.466  -0.383  0.00  0.00    +0.162 A 
ATOM     21  C   UNL     1      -0.120   3.483  -0.188  0.00  0.00    +0.057 A 
ATOM     22  C   UNL     1      -1.471   3.826  -0.127  0.00  0.00    -0.022 A 
ATOM     23  C   UNL     1      -1.855   5.162  -0.254  0.00  0.00    +0.012 A 
ATOM     24  C   UNL     1      -0.901   6.139  -0.448  0.00  0.00    +0.050 A 
ATOM     25  C   UNL     1       0.442   5.797  -0.513  0.00  0.00    +0.158 A 
BRANCH  20  27
ATOM     26  C   UNL     1       2.478   2.751  -0.306  0.00  0.00    +0.277 C 
ATOM     27  O   UNL     1       2.149   4.135  -0.448  0.00  0.00    -0.491 OA
ENDBRANCH  20  27
BRANCH  25  28
ATOM     28  O   UNL     1       1.379   6.763  -0.705  0.00  0.00    -0.503 OA
ATOM     29  H   UNL     1       1.580   6.937  -1.635  0.00  0.00    +0.292 HD
ENDBRANCH  25  28
ENDBRANCH  18  22
ENDBRANCH  17  19
ENDBRANCH  11  17
BRANCH  10  30
ATOM     30  C   UNL     1      -8.651   3.688   0.479  0.00  0.00    +0.135 C 
BRANCH  30  31
ATOM     31  C   UNL     1      -8.402   5.148   0.202  0.00  0.00    -0.016 C 
ATOM     32  C   UNL     1      -7.317   5.519  -0.432  0.00  0.00    +0.005 C 
ENDBRANCH  30  31
ENDBRANCH  10  30
TORSDOF 9
