REMARK  Name = ZINC12436883
REMARK  8 active torsions:
REMARK  status: ('A' for Active; 'I' for Inactive)
REMARK    1  A    between atoms: C_1  and  C_2
REMARK    2  A    between atoms: C_2  and  C_3
REMARK    3  A    between atoms: C_2  and  C_5
REMARK    4  A    between atoms: C_2  and  N_7
REMARK    5  A    between atoms: C_3  and  O_4
REMARK    6  A    between atoms: C_5  and  O_6
REMARK    7  A    between atoms: C_20  and  C_33
REMARK    8  A    between atoms: C_23  and  C_27
REMARK                            x       y       z     vdW  Elec       q    Type
REMARK                         _______ _______ _______ _____ _____    ______ ____
ROOT
ATOM      1  N   UNL     1      -7.734  -3.201  -0.574  0.00  0.00    -0.273 NA
ATOM      2  C   UNL     1      -7.082  -2.494   0.318  0.00  0.00    +0.061 C 
ATOM      3  C   UNL     1      -7.783  -1.415   1.030  0.00  0.00    +0.029 C 
ATOM      4  C   UNL     1      -7.183  -0.693   1.996  0.00  0.00    +0.031 C 
ATOM      5  C   UNL     1      -5.781  -1.031   2.318  0.00  0.00    +0.082 C 
ATOM      6  N   UNL     1      -5.026  -0.584   3.274  0.00  0.00    -0.256 NA
ATOM      7  C   UNL     1      -3.796  -1.381   3.279  0.00  0.00    +0.135 C 
ATOM      8  C   UNL     1      -3.854  -2.332   4.481  0.00  0.00    +0.051 C 
ATOM      9  C   UNL     1      -3.977  -1.442   5.730  0.00  0.00    +0.004 C 
ATOM     10  C   UNL     1      -2.787  -0.497   5.871  0.00  0.00    +0.001 C 
ATOM     11  C   UNL     1      -2.625   0.374   4.602  0.00  0.00    +0.008 C 
ATOM     12  C   UNL     1      -2.525  -0.569   3.439  0.00  0.00    +0.046 C 
ATOM     13  C   UNL     1      -1.914  -0.151   2.137  0.00  0.00    +0.050 C 
ATOM     14  C   UNL     1      -1.606  -1.418   1.347  0.00  0.00    +0.005 C 
ATOM     15  C   UNL     1      -2.566  -2.375   1.309  0.00  0.00    +0.040 C 
ATOM     16  N   UNL     1      -3.751  -2.050   1.979  0.00  0.00    -0.272 N 
ATOM     17  C   UNL     1      -5.042  -2.065   1.532  0.00  0.00    +0.063 C 
ATOM     18  C   UNL     1      -5.667  -2.800   0.583  0.00  0.00    +0.053 C 
ENDROOT
BRANCH  15  19
ATOM     19  C   UNL     1      -2.376  -3.667   0.610  0.00  0.00    -0.004 A 
ATOM     20  C   UNL     1      -2.718  -4.862   1.243  0.00  0.00    +0.010 A 
ATOM     21  C   UNL     1      -2.543  -6.062   0.585  0.00  0.00    +0.001 A 
ATOM     22  C   UNL     1      -2.019  -6.082  -0.695  0.00  0.00    +0.000 A 
ATOM     23  C   UNL     1      -1.672  -4.901  -1.326  0.00  0.00    +0.001 A 
ATOM     24  C   UNL     1      -1.847  -3.694  -0.680  0.00  0.00    +0.010 A 
ENDBRANCH  15  19
BRANCH  13  25
ATOM     25  C   UNL     1      -0.641   0.615   2.392  0.00  0.00    -0.040 A 
ATOM     26  C   UNL     1      -0.519   1.919   1.950  0.00  0.00    +0.004 A 
ATOM     27  C   UNL     1       0.648   2.622   2.184  0.00  0.00    +0.000 A 
ATOM     28  C   UNL     1       1.694   2.020   2.859  0.00  0.00    +0.000 A 
ATOM     29  C   UNL     1       1.571   0.716   3.301  0.00  0.00    +0.000 A 
ATOM     30  C   UNL     1       0.404   0.014   3.067  0.00  0.00    +0.004 A 
ENDBRANCH  13  25
BRANCH   1  32
ATOM     31  C   UNL     1      -9.184  -1.418  -1.410  0.00  0.00    +0.041 C 
ATOM     32  C   UNL     1      -9.119  -2.862  -0.907  0.00  0.00    +0.105 C 
BRANCH  32  33
ATOM     33  C   UNL     1      -9.627  -3.805  -1.999  0.00  0.00    +0.188 C 
BRANCH  33  34
ATOM     34  O   UNL     1      -9.418  -5.160  -1.593  0.00  0.00    -0.393 OA
ATOM     35  H   UNL     1      -9.716  -5.814  -2.239  0.00  0.00    +0.209 HD
ENDBRANCH  33  34
ENDBRANCH  32  33
BRANCH  32  36
ATOM     36  C   UNL     1      -9.994  -3.007   0.340  0.00  0.00    +0.188 C 
BRANCH  36  37
ATOM     37  O   UNL     1     -11.314  -2.542   0.052  0.00  0.00    -0.393 OA
ATOM     38  H   UNL     1     -11.925  -2.605   0.799  0.00  0.00    +0.209 HD
ENDBRANCH  36  37
ENDBRANCH  32  36
ENDBRANCH   1  32
TORSDOF 7
