REMARK  Name = ZINC67595583
REMARK  7 active torsions:
REMARK  status: ('A' for Active; 'I' for Inactive)
REMARK    1  A    between atoms: C_1  and  C_2
REMARK    2  A    between atoms: C_15  and  C_17
REMARK    3  A    between atoms: N_19  and  C_20
REMARK    4  A    between atoms: N_19  and  C_21
REMARK    5  A    between atoms: C_21  and  C_22
REMARK    6  A    between atoms: C_22  and  C_24
REMARK    7  A    between atoms: C_22  and  C_25
REMARK                            x       y       z     vdW  Elec       q    Type
REMARK                         _______ _______ _______ _____ _____    ______ ____
ROOT
ATOM      1  C   UNL     1       0.661   2.362   0.409  0.00  0.00    +0.029 C 
ATOM      2  C   UNL     1       0.437   0.860   0.220  0.00  0.00    +0.088 C 
ATOM      3  C   UNL     1      -1.064   0.576   0.152  0.00  0.00    +0.118 C 
ATOM      4  C   UNL     1      -1.323  -0.893   0.364  0.00  0.00    +0.219 C 
ATOM      5  O   UNL     1      -1.609  -1.597  -0.582  0.00  0.00    -0.275 OA
ATOM      6  N   UNL     1      -1.239  -1.431   1.600  0.00  0.00    -0.284 N 
ATOM      7  C   UNL     1      -0.817  -0.654   2.684  0.00  0.00    +0.055 A 
ATOM      8  C   UNL     1      -1.537  -0.635   3.868  0.00  0.00    +0.025 A 
ATOM      9  C   UNL     1      -1.088   0.122   4.934  0.00  0.00    +0.002 A 
ATOM     10  C   UNL     1       0.077   0.860   4.824  0.00  0.00    +0.002 A 
ATOM     11  C   UNL     1       0.796   0.855   3.643  0.00  0.00    +0.025 A 
ATOM     12  C   UNL     1       0.347   0.107   2.566  0.00  0.00    +0.058 A 
ATOM     13  N   UNL     1       1.029   0.134   1.345  0.00  0.00    -0.259 N 
ATOM     14  C   UNL     1       2.212  -0.497   1.208  0.00  0.00    +0.306 C 
ATOM     15  O   UNL     1       2.796  -0.467   0.144  0.00  0.00    -0.265 OA
ATOM     16  H   UNL     1      -1.472  -2.362   1.737  0.00  0.00    +0.155 HD
ENDROOT
BRANCH  14  17
ATOM     17  C   UNL     1       2.804  -1.234   2.364  0.00  0.00    +0.302 C 
ATOM     18  O   UNL     1       2.273  -1.178   3.455  0.00  0.00    -0.265 OA
ATOM     19  N   UNL     1       3.926  -1.961   2.197  0.00  0.00    -0.296 N 
ATOM     20  C   UNL     1       4.609  -1.966   0.901  0.00  0.00    +0.132 C 
BRANCH  19  21
ATOM     21  C   UNL     1       4.463  -2.746   3.311  0.00  0.00    +0.115 C 
BRANCH  21  22
ATOM     22  C   UNL     1       3.856  -4.150   3.285  0.00  0.00    +0.033 C 
ATOM     23  C   UNL     1       4.312  -4.879   2.020  0.00  0.00    +0.014 C 
BRANCH  22  24
ATOM     24  C   UNL     1       4.313  -4.917   4.499  0.00  0.00    -0.043 A 
ATOM     25  C   UNL     1       5.661  -5.135   4.712  0.00  0.00    +0.004 A 
ATOM     26  C   UNL     1       6.080  -5.839   5.826  0.00  0.00    +0.000 A 
ATOM     27  C   UNL     1       5.151  -6.325   6.726  0.00  0.00    +0.000 A 
ATOM     28  C   UNL     1       3.802  -6.106   6.514  0.00  0.00    +0.000 A 
ATOM     29  C   UNL     1       3.384  -5.399   5.402  0.00  0.00    +0.004 A 
ENDBRANCH  22  24
ENDBRANCH  21  22
ENDBRANCH  19  21
ENDBRANCH  14  17
TORSDOF 4
