REMARK  Name = ZINC36552922
REMARK  10 active torsions:
REMARK  status: ('A' for Active; 'I' for Inactive)
REMARK    1  A    between atoms: C_1  and  C_2
REMARK    2  A    between atoms: C_2  and  C_3
REMARK    3  A    between atoms: C_3  and  C_4
REMARK    4  A    between atoms: C_4  and  N_5
REMARK    5  A    between atoms: C_6  and  C_8
REMARK    6  A    between atoms: C_8  and  C_10
REMARK    7  A    between atoms: C_8  and  N_20
REMARK    8  A    between atoms: C_12  and  N_17
REMARK    9  A    between atoms: N_20  and  C_21
REMARK   10  A    between atoms: C_28  and  C_30
REMARK                            x       y       z     vdW  Elec       q    Type
REMARK                         _______ _______ _______ _____ _____    ______ ____
ROOT
ATOM      1  C   UNL     1      -3.699  -4.622  -0.152  0.00  0.00    +0.199 C 
ENDROOT
BRANCH   1   2
ATOM      2  C   UNL     1      -4.637  -3.494   0.191  0.00  0.00    +0.003 A 
ATOM      3  C   UNL     1      -5.716  -3.720   1.025  0.00  0.00    +0.040 A 
ATOM      4  C   UNL     1      -6.576  -2.685   1.339  0.00  0.00    +0.127 A 
ATOM      5  C   UNL     1      -6.359  -1.423   0.819  0.00  0.00    +0.034 A 
ATOM      6  C   UNL     1      -5.280  -1.195  -0.015  0.00  0.00    +0.022 A 
ATOM      7  C   UNL     1      -4.415  -2.229  -0.325  0.00  0.00    +0.047 A 
ATOM      8 CL   UNL     1      -3.057  -1.942  -1.367  0.00  0.00    -0.083 Cl
BRANCH   4   9
ATOM      9  N   UNL     1      -7.731  -2.929   2.232  0.00  0.00    +0.056 N 
ATOM     10  O   UNL     1      -7.922  -4.033   2.687  0.00  0.00    -0.126 OA
ATOM     11  O   UNL     1      -8.484  -2.023   2.507  0.00  0.00    -0.126 OA
ENDBRANCH   4   9
ENDBRANCH   1   2
BRANCH   1  13
ATOM     12  N   UNL     1      -1.688  -3.435   0.663  0.00  0.00    -0.313 N 
ATOM     13  C   UNL     1      -2.468  -4.533   0.713  0.00  0.00    +0.238 C 
ATOM     14  O   UNL     1      -2.180  -5.449   1.453  0.00  0.00    -0.273 OA
ATOM     15  H   UNL     1      -1.919  -2.702   0.071  0.00  0.00    +0.149 HD
BRANCH  12  16
ATOM     16  C   UNL     1      -0.491  -3.348   1.504  0.00  0.00    +0.104 C 
BRANCH  16  17
ATOM     17  C   UNL     1       0.209  -2.010   1.258  0.00  0.00    +0.018 C 
BRANCH  17  19
ATOM     18  C   UNL     1       2.159  -0.582   1.889  0.00  0.00    +0.004 C 
ATOM     19  C   UNL     1       1.459  -1.920   2.136  0.00  0.00    -0.002 C 
ENDBRANCH  17  19
ENDBRANCH  16  17
ENDBRANCH  12  16
ENDBRANCH   1  13
BRANCH   1  20
ATOM     20  N   UNL     1      -4.370  -5.903   0.084  0.00  0.00    -0.254 N 
ATOM     21  C   UNL     1      -4.634  -6.304   1.343  0.00  0.00    +0.241 C 
ATOM     22  O   UNL     1      -4.225  -5.656   2.284  0.00  0.00    -0.273 OA
BRANCH  20  23
ATOM     23  C   UNL     1      -4.736  -6.711  -0.999  0.00  0.00    +0.039 A 
ATOM     24  C   UNL     1      -3.898  -7.736  -1.417  0.00  0.00    +0.023 A 
ATOM     25  C   UNL     1      -4.262  -8.532  -2.485  0.00  0.00    +0.003 A 
ATOM     26  C   UNL     1      -5.459  -8.309  -3.140  0.00  0.00    +0.020 A 
ATOM     27  C   UNL     1      -6.297  -7.288  -2.726  0.00  0.00    +0.043 A 
ATOM     28  C   UNL     1      -5.941  -6.492  -1.653  0.00  0.00    +0.043 A 
ATOM     29 CL   UNL     1      -7.799  -7.010  -3.551  0.00  0.00    -0.083 Cl
ENDBRANCH  20  23
BRANCH  21  30
ATOM     30  C   UNL     1      -5.437  -7.556   1.583  0.00  0.00    +0.160 C 
ATOM     31  C   UNL     1      -6.949  -7.240   1.527  0.00  0.00    +0.041 C 
ATOM     32  C   UNL     1      -7.273  -6.985   3.017  0.00  0.00    +0.098 C 
ATOM     33  C   UNL     1      -6.206  -7.753   3.766  0.00  0.00    +0.214 C 
ATOM     34  O   UNL     1      -6.257  -8.046   4.941  0.00  0.00    -0.276 OA
ATOM     35  N   UNL     1      -5.192  -8.065   2.937  0.00  0.00    -0.304 N 
ATOM     36  H   UNL     1      -4.402  -8.563   3.200  0.00  0.00    +0.149 HD
ENDBRANCH  21  30
ENDBRANCH   1  20
TORSDOF 9
