REMARK  Name = ZINC39609506
REMARK  9 active torsions:
REMARK  status: ('A' for Active; 'I' for Inactive)
REMARK    1  A    between atoms: C_1  and  C_2
REMARK    2  A    between atoms: C_2  and  O_3
REMARK    3  A    between atoms: O_3  and  C_4
REMARK    4  A    between atoms: C_8  and  C_10
REMARK    5  A    between atoms: C_10  and  C_11
REMARK    6  A    between atoms: C_11  and  N_12
REMARK    7  A    between atoms: C_13  and  C_15
REMARK    8  A    between atoms: C_26  and  C_28
REMARK    9  A    between atoms: C_32  and  C_35
REMARK                            x       y       z     vdW  Elec       q    Type
REMARK                         _______ _______ _______ _____ _____    ______ ____
ROOT
ATOM      1  C   UNL     1       6.486  -5.843   5.744  0.00  0.00    +0.100 C 
ATOM      2  C   UNL     1       6.511  -4.816   6.898  0.00  0.00    +0.121 C 
ATOM      3  N   UNL     1       7.839  -4.997   7.531  0.00  0.00    -0.296 N 
ATOM      4  C   UNL     1       8.763  -5.220   6.394  0.00  0.00    +0.115 C 
ATOM      5  C   UNL     1       7.965  -6.105   5.415  0.00  0.00    -0.004 C 
ATOM      6  C   UNL     1       8.303  -7.576   5.639  0.00  0.00    -0.010 C 
ATOM      7  C   UNL     1       9.764  -7.823   5.252  0.00  0.00    -0.082 C 
ATOM      8  N   UNL     1       9.967  -7.462   3.843  0.00  0.00    +0.379 N 
ATOM      9  C   UNL     1       9.729  -6.026   3.655  0.00  0.00    -0.082 C 
ATOM     10  C   UNL     1       8.266  -5.703   3.975  0.00  0.00    -0.010 C 
ATOM     11  C   UNL     1       8.138  -4.967   8.845  0.00  0.00    +0.252 C 
ATOM     12  O   UNL     1       9.285  -5.135   9.211  0.00  0.00    -0.270 OA
ATOM     13  H   UNL     1      10.914  -7.683   3.574  0.00  0.00    -0.086 HD
ATOM     14  H   UNL     1       9.325  -7.986   3.268  0.00  0.00    -0.086 HD
ENDROOT
BRANCH  11  15
ATOM     15  C   UNL     1       7.074  -4.731   9.839  0.00  0.00    +0.107 A 
ATOM     16  C   UNL     1       6.373  -5.810  10.390  0.00  0.00    +0.138 A 
ATOM     17  C   UNL     1       5.378  -5.579  11.321  0.00  0.00    +0.039 A 
ATOM     18  C   UNL     1       5.074  -4.287  11.708  0.00  0.00    +0.009 A 
ATOM     19  C   UNL     1       5.761  -3.215  11.169  0.00  0.00    -0.014 A 
ATOM     20  C   UNL     1       6.763  -3.427  10.241  0.00  0.00    +0.141 A 
ATOM     21  F   UNL     1       7.437  -2.379   9.719  0.00  0.00    -0.204 F 
ATOM     22  C   UNL     1       5.420  -1.811  11.598  0.00  0.00    +0.047 C 
ATOM     23  F   UNL     1       6.668  -7.073  10.012  0.00  0.00    -0.205 F 
ENDBRANCH  11  15
BRANCH   1  25
ATOM     24  N   UNL     1       5.136  -6.085   3.685  0.00  0.00    -0.315 N 
ATOM     25  C   UNL     1       5.776  -5.268   4.545  0.00  0.00    +0.218 C 
ATOM     26  O   UNL     1       5.780  -4.070   4.355  0.00  0.00    -0.275 OA
ATOM     27  H   UNL     1       5.133  -7.043   3.837  0.00  0.00    +0.149 HD
BRANCH  24  28
ATOM     28  C   UNL     1       4.446  -5.526   2.520  0.00  0.00    +0.109 C 
BRANCH  28  29
ATOM     29  C   UNL     1       3.808  -6.658   1.713  0.00  0.00    +0.054 C 
BRANCH  29  34
ATOM     30  C   UNL     1       1.118  -5.184  -0.493  0.00  0.00    +0.121 A 
ATOM     31  C   UNL     1       1.800  -5.028  -1.691  0.00  0.00    +0.045 A 
ATOM     32  C   UNL     1       3.128  -5.399  -1.782  0.00  0.00    +0.004 A 
ATOM     33  C   UNL     1       3.776  -5.926  -0.680  0.00  0.00    +0.004 A 
ATOM     34  C   UNL     1       3.098  -6.083   0.515  0.00  0.00    -0.042 A 
ATOM     35  C   UNL     1       1.772  -5.708   0.612  0.00  0.00    +0.049 A 
BRANCH  30  36
ATOM     36  O   UNL     1      -0.188  -4.819  -0.402  0.00  0.00    -0.492 OA
BRANCH  36  38
ATOM     37  C   UNL     1      -2.257  -3.937  -1.285  0.00  0.00    +0.048 C 
ATOM     38  C   UNL     1      -0.798  -4.287  -1.580  0.00  0.00    +0.225 C 
ENDBRANCH  36  38
ENDBRANCH  30  36
ENDBRANCH  29  34
ENDBRANCH  28  29
ENDBRANCH  24  28
ENDBRANCH   1  25
TORSDOF 7
