REMARK  Name = ZINC04929898
REMARK  17 active torsions:
REMARK  status: ('A' for Active; 'I' for Inactive)
REMARK    1  A    between atoms: C_1  and  C_2
REMARK    2  A    between atoms: C_5  and  C_7
REMARK    3  A    between atoms: C_7  and  N_8
REMARK    4  A    between atoms: N_8  and  C_9
REMARK    5  A    between atoms: C_9  and  C_10
REMARK    6  A    between atoms: C_10  and  C_11
REMARK    7  A    between atoms: C_17  and  C_19
REMARK    8  A    between atoms: C_19  and  N_64
REMARK    9  A    between atoms: C_20  and  C_21
REMARK   10  A    between atoms: C_20  and  N_64
REMARK   11  A    between atoms: C_21  and  C_22
REMARK   12  A    between atoms: C_21  and  C_23
REMARK   13  A    between atoms: C_24  and  C_26
REMARK   14  A    between atoms: C_24  and  C_27
REMARK   15  A    between atoms: C_24  and  N_64
REMARK   16  A    between atoms: C_27  and  O_29
REMARK   17  A    between atoms: O_29  and  C_30
REMARK                            x       y       z     vdW  Elec       q    Type
REMARK                         _______ _______ _______ _____ _____    ______ ____
ROOT
ATOM      1  N   UNL     1       0.945   4.263  -0.691  0.00  0.00    -0.295 N 
ATOM      2  C   UNL     1       0.228   4.987  -1.574  0.00  0.00    +0.199 C 
ATOM      3  O   UNL     1       0.292   4.734  -2.759  0.00  0.00    -0.278 OA
ENDROOT
BRANCH   1   4
ATOM      4  C   UNL     1       0.868   4.569   0.740  0.00  0.00    +0.181 C 
BRANCH   4   9
ATOM      5  C   UNL     1      -3.704   3.231   2.397  0.00  0.00    +0.086 C 
ATOM      6  C   UNL     1      -2.230   3.183   2.087  0.00  0.00    +0.102 A 
ATOM      7  C   UNL     1      -1.399   2.164   2.370  0.00  0.00    +0.045 A 
ATOM      8  C   UNL     1      -0.118   2.538   1.903  0.00  0.00    +0.046 A 
ATOM      9  C   UNL     1      -0.242   3.765   1.366  0.00  0.00    +0.122 A 
ATOM     10  O   UNL     1      -1.523   4.152   1.483  0.00  0.00    -0.463 OA
ENDBRANCH   4   9
ENDBRANCH   1   4
BRANCH   1  11
ATOM     11  C   UNL     1       1.801   3.172  -1.162  0.00  0.00    +0.113 C 
BRANCH  11  12
ATOM     12  C   UNL     1       0.999   1.869  -1.188  0.00  0.00    +0.054 C 
BRANCH  12  13
ATOM     13  C   UNL     1       1.880   0.747  -1.673  0.00  0.00    -0.046 A 
ATOM     14  C   UNL     1       1.948   0.455  -3.022  0.00  0.00    +0.004 A 
ATOM     15  C   UNL     1       2.760  -0.572  -3.467  0.00  0.00    +0.000 A 
ATOM     16  C   UNL     1       3.495  -1.313  -2.562  0.00  0.00    +0.000 A 
ATOM     17  C   UNL     1       3.422  -1.025  -1.212  0.00  0.00    +0.000 A 
ATOM     18  C   UNL     1       2.615   0.005  -0.767  0.00  0.00    +0.004 A 
ENDBRANCH  12  13
ENDBRANCH  11  12
ENDBRANCH   1  11
BRANCH   2  19
ATOM     19  C   UNL     1      -0.653   6.109  -1.089  0.00  0.00    +0.020 C 
BRANCH  19  20
ATOM     20  N   UNL     1      -1.187   6.831  -2.264  0.00  0.00    +0.394 N 
ATOM     21  H   UNL     1      -1.360   6.157  -3.019  0.00  0.00    -0.080 HD
BRANCH  20  22
ATOM     22  C   UNL     1      -2.459   7.496  -1.913  0.00  0.00    +0.040 C 
ATOM     23  C   UNL     1      -2.210   8.653  -0.944  0.00  0.00    -0.002 C 
BRANCH  22  24
ATOM     24  C   UNL     1      -3.095   8.023  -3.173  0.00  0.00    +0.293 C 
ATOM     25  O   UNL     1      -2.486   7.992  -4.216  0.00  0.00    -0.253 OA
BRANCH  24  26
ATOM     26  O   UNL     1      -4.339   8.528  -3.137  0.00  0.00    -0.469 OA
ATOM     27  C   UNL     1      -4.888   9.018  -4.388  0.00  0.00    +0.280 C 
ENDBRANCH  24  26
ENDBRANCH  22  24
ENDBRANCH  20  22
BRANCH  20  28
ATOM     28  C   UNL     1      -0.205   7.832  -2.731  0.00  0.00    -0.074 C 
BRANCH  28  29
ATOM     29  C   UNL     1       0.840   7.126  -3.597  0.00  0.00    -0.034 C 
ATOM     30  C   UNL     1       0.175   6.596  -4.869  0.00  0.00    +0.005 C 
ATOM     31  C   UNL     1       1.944   8.117  -3.973  0.00  0.00    +0.005 C 
ENDBRANCH  28  29
ENDBRANCH  20  28
ENDBRANCH  19  20
ENDBRANCH   2  19
TORSDOF 12
