REMARK  Name = ZINC14357910
REMARK  9 active torsions:
REMARK  status: ('A' for Active; 'I' for Inactive)
REMARK    1  A    between atoms: C_1  and  C_2
REMARK    2  A    between atoms: C_5  and  S_14
REMARK    3  A    between atoms: N_6  and  C_7
REMARK    4  A    between atoms: C_7  and  C_8
REMARK    5  A    between atoms: S_14  and  C_15
REMARK    6  A    between atoms: C_15  and  C_16
REMARK    7  A    between atoms: N_18  and  C_19
REMARK    8  A    between atoms: C_23  and  S_25
REMARK    9  A    between atoms: S_25  and  N_28
REMARK                            x       y       z     vdW  Elec       q    Type
REMARK                         _______ _______ _______ _____ _____    ______ ____
ROOT
ATOM      1  C   UNL     1      -0.483  -7.239  -0.936  0.00  0.00    +0.227 C 
ATOM      2  O   UNL     1      -1.004  -8.199  -1.464  0.00  0.00    -0.275 OA
ATOM      3  N   UNL     1       0.108  -7.370   0.267  0.00  0.00    -0.285 N 
ATOM      4  H   UNL     1       0.583  -6.620   0.659  0.00  0.00    +0.155 HD
ENDROOT
BRANCH   3   5
ATOM      5  C   UNL     1       0.038  -8.589   0.952  0.00  0.00    +0.035 A 
ATOM      6  C   UNL     1      -0.057  -8.604   2.338  0.00  0.00    +0.023 A 
ATOM      7  C   UNL     1      -0.126  -9.807   3.011  0.00  0.00    +0.004 A 
ATOM      8  C   UNL     1      -0.100 -10.997   2.307  0.00  0.00    +0.029 A 
ATOM      9  C   UNL     1      -0.004 -10.986   0.927  0.00  0.00    +0.114 A 
ATOM     10  C   UNL     1       0.058  -9.785   0.248  0.00  0.00    +0.052 A 
BRANCH   9  11
ATOM     11  S   UNL     1       0.030 -12.505   0.035  0.00  0.00    +0.100 S 
ATOM     12  O   UNL     1       0.672 -12.234  -1.203  0.00  0.00    -0.146 OA
ATOM     13  O   UNL     1       0.501 -13.496   0.937  0.00  0.00    -0.146 OA
BRANCH  11  14
ATOM     14  N   UNL     1      -1.539 -12.898  -0.322  0.00  0.00    -0.118 NA
ATOM     15  C   UNL     1      -1.800 -13.980  -0.981  0.00  0.00    +0.117 C 
ATOM     16  C   UNL     1      -0.665 -14.899  -1.425  0.00  0.00    +0.073 C 
ATOM     17  C   UNL     1      -0.767 -16.167  -0.604  0.00  0.00    +0.008 C 
ATOM     18  C   UNL     1      -1.678 -17.225  -1.229  0.00  0.00    +0.002 C 
ATOM     19  C   UNL     1      -2.974 -16.642  -1.794  0.00  0.00    +0.019 C 
ATOM     20  C   UNL     1      -3.608 -15.609  -0.888  0.00  0.00    +0.102 C 
ATOM     21  N   UNL     1      -3.048 -14.295  -1.266  0.00  0.00    -0.331 N 
ATOM     22  H   UNL     1      -3.609 -13.655  -1.732  0.00  0.00    +0.147 HD
ENDBRANCH  11  14
ENDBRANCH   9  11
ENDBRANCH   3   5
BRANCH   1  23
ATOM     23  C   UNL     1      -0.498  -5.899  -1.627  0.00  0.00    +0.173 C 
BRANCH  23  24
ATOM     24  S   UNL     1      -1.362  -6.047  -3.215  0.00  0.00    -0.077 S 
BRANCH  24  29
ATOM     25  C   UNL     1      -1.883  -1.772  -6.329  0.00  0.00    +0.088 C 
ATOM     26  C   UNL     1      -1.521  -2.683  -5.184  0.00  0.00    +0.131 A 
ATOM     27  N   UNL     1      -0.873  -2.348  -4.105  0.00  0.00    -0.134 NA
ATOM     28  N   UNL     1      -0.736  -3.369  -3.337  0.00  0.00    -0.122 NA
ATOM     29  C   UNL     1      -1.294  -4.421  -3.890  0.00  0.00    +0.192 A 
ATOM     30  N   UNL     1      -1.817  -4.015  -5.084  0.00  0.00    -0.302 N 
BRANCH  30  31
ATOM     31  C   UNL     1      -2.542  -4.836  -6.057  0.00  0.00    +0.160 C 
BRANCH  31  32
ATOM     32  C   UNL     1      -1.565  -5.439  -7.033  0.00  0.00    -0.028 A 
ATOM     33  C   UNL     1      -1.236  -4.758  -8.190  0.00  0.00    +0.005 A 
ATOM     34  C   UNL     1      -0.340  -5.311  -9.086  0.00  0.00    +0.000 A 
ATOM     35  C   UNL     1       0.228  -6.544  -8.823  0.00  0.00    +0.000 A 
ATOM     36  C   UNL     1      -0.100  -7.224  -7.665  0.00  0.00    +0.000 A 
ATOM     37  C   UNL     1      -0.993  -6.669  -6.768  0.00  0.00    +0.005 A 
ENDBRANCH  31  32
ENDBRANCH  30  31
ENDBRANCH  24  29
ENDBRANCH  23  24
ENDBRANCH   1  23
TORSDOF 8
