REMARK  Name = ZINC60364705
REMARK  3 active torsions:
REMARK  status: ('A' for Active; 'I' for Inactive)
REMARK    1  A    between atoms: C_5  and  C_6
REMARK    2  A    between atoms: C_12  and  C_14
REMARK    3  A    between atoms: C_14  and  C_15
REMARK                            x       y       z     vdW  Elec       q    Type
REMARK                         _______ _______ _______ _____ _____    ______ ____
ROOT
ATOM      1  C   UNL     1      -1.134  -0.951   0.009  0.00  0.00    +0.087 A 
ATOM      2  C   UNL     1      -0.909  -2.301   0.004  0.00  0.00    +0.077 A 
ATOM      3  S   UNL     1      -2.587  -2.918   0.016  0.00  0.00    -0.060 S 
ATOM      4  C   UNL     1      -3.411  -1.332   0.025  0.00  0.00    +0.165 A 
ATOM      5  N   UNL     1      -2.386  -0.501   0.025  0.00  0.00    -0.224 NA
ATOM      6  N   UNL     1      -4.771  -1.049   0.036  0.00  0.00    -0.264 N 
ATOM      7  C   UNL     1      -5.669  -2.054   0.041  0.00  0.00    +0.224 C 
ATOM      8  O   UNL     1      -5.289  -3.206   0.036  0.00  0.00    -0.275 OA
ATOM      9  H   UNL     1      -5.075  -0.128   0.040  0.00  0.00    +0.157 HD
ENDROOT
BRANCH   1  14
ATOM     10  C   UNL     1      -0.017   1.364   0.009  0.00  0.00    +0.019 A 
ATOM     11  C   UNL     1       1.184   2.044   0.002  0.00  0.00    +0.028 A 
ATOM     12  C   UNL     1       2.343   1.336  -0.013  0.00  0.00    +0.079 A 
ATOM     13  S   UNL     1       1.754  -0.349  -0.017  0.00  0.00    -0.075 S 
ATOM     14  C   UNL     1       0.002  -0.004   0.002  0.00  0.00    +0.040 A 
ATOM     15 CL   UNL     1       3.978   1.921  -0.026  0.00  0.00    -0.076 Cl
ENDBRANCH   1  14
BRANCH   7  16
ATOM     16  C   UNL     1      -7.144  -1.747   0.053  0.00  0.00    +0.152 C 
BRANCH  16  17
ATOM     17  C   UNL     1      -7.925  -3.036   0.056  0.00  0.00    +0.059 A 
ATOM     18  C   UNL     1      -8.856  -3.296   1.007  0.00  0.00    +0.072 A 
ATOM     19  S   UNL     1      -9.413  -4.913   0.492  0.00  0.00    -0.060 S 
ATOM     20  C   UNL     1      -8.420  -5.083  -0.856  0.00  0.00    +0.168 A 
ATOM     21  N   UNL     1      -7.738  -3.958  -0.869  0.00  0.00    -0.229 NA
ATOM     22  N   UNL     1      -8.343  -6.151  -1.742  0.00  0.00    -0.234 N 
ATOM     23  C   UNL     1      -9.213  -7.311  -1.544  0.00  0.00    +0.119 C 
ATOM     24  C   UNL     1      -9.501  -7.962  -2.902  0.00  0.00    +0.038 C 
ATOM     25  C   UNL     1      -8.165  -8.298  -3.574  0.00  0.00    +0.107 C 
ATOM     26  N   UNL     1      -7.352  -7.084  -3.662  0.00  0.00    -0.299 N 
ATOM     27  C   UNL     1      -7.477  -6.095  -2.765  0.00  0.00    +0.308 C 
ATOM     28  O   UNL     1      -6.774  -5.110  -2.881  0.00  0.00    -0.252 OA
ATOM     29  H   UNL     1      -6.713  -6.992  -4.385  0.00  0.00    +0.150 HD
ENDBRANCH  16  17
ENDBRANCH   7  16
TORSDOF 3
