REMARK  Name = ZINC58510371
REMARK  7 active torsions:
REMARK  status: ('A' for Active; 'I' for Inactive)
REMARK    1  A    between atoms: C_11  and  C_30
REMARK    2  A    between atoms: C_14  and  C_16
REMARK    3  A    between atoms: C_16  and  O_17
REMARK    4  A    between atoms: O_17  and  C_18
REMARK    5  A    between atoms: C_18  and  C_20
REMARK    6  A    between atoms: C_23  and  N_27
REMARK    7  A    between atoms: C_25  and  N_26
REMARK                            x       y       z     vdW  Elec       q    Type
REMARK                         _______ _______ _______ _____ _____    ______ ____
ROOT
ATOM      1  C   UNL     1       0.014   1.425  -0.014  0.00  0.00    +0.002 A 
ATOM      2  C   UNL     1       1.192   2.150  -0.001  0.00  0.00    +0.002 A 
ATOM      3  C   UNL     1       2.412   1.498  -0.030  0.00  0.00    +0.025 A 
ATOM      4  C   UNL     1       2.453   0.114  -0.067  0.00  0.00    +0.058 A 
ATOM      5  C   UNL     1       1.264  -0.618  -0.062  0.00  0.00    +0.055 A 
ATOM      6  C   UNL     1       0.047   0.043  -0.045  0.00  0.00    +0.025 A 
ATOM      7  N   UNL     1       1.322  -2.016  -0.042  0.00  0.00    -0.284 N 
ATOM      8  C   UNL     1       2.112  -2.680  -0.914  0.00  0.00    +0.219 C 
ATOM      9  O   UNL     1       2.219  -3.885  -0.832  0.00  0.00    -0.275 OA
ATOM     10  C   UNL     1       2.860  -1.933  -1.986  0.00  0.00    +0.128 C 
ATOM     11  C   UNL     1       4.065  -1.212  -1.382  0.00  0.00    +0.194 C 
ATOM     12  N   UNL     1       3.679  -0.563  -0.128  0.00  0.00    -0.255 N 
ATOM     13  C   UNL     1       4.487  -0.617   0.949  0.00  0.00    +0.258 C 
ATOM     14  O   UNL     1       5.545  -1.207   0.884  0.00  0.00    -0.271 OA
ATOM     15  H   UNL     1       0.792  -2.511   0.602  0.00  0.00    +0.155 HD
ENDROOT
BRANCH  11  16
ATOM     16  C   UNL     1       4.569  -0.153  -2.365  0.00  0.00    +0.409 C 
ATOM     17  F   UNL     1       3.550   0.771  -2.618  0.00  0.00    -0.169 F 
ATOM     18  F   UNL     1       5.672   0.508  -1.813  0.00  0.00    -0.169 F 
ATOM     19  F   UNL     1       4.947  -0.771  -3.562  0.00  0.00    -0.169 F 
ENDBRANCH  11  16
BRANCH  13  20
ATOM     20  C   UNL     1       4.076   0.054   2.234  0.00  0.00    +0.328 C 
BRANCH  20  21
ATOM     21  O   UNL     1       5.091  -0.142   3.220  0.00  0.00    -0.452 OA
BRANCH  21  22
ATOM     22  C   UNL     1       4.876   0.399   4.436  0.00  0.00    +0.341 C 
ATOM     23  O   UNL     1       3.855   1.022   4.652  0.00  0.00    -0.245 OA
BRANCH  22  24
ATOM     24  C   UNL     1       5.880   0.237   5.502  0.00  0.00    +0.080 A 
ATOM     25  C   UNL     1       6.996  -0.579   5.299  0.00  0.00    +0.019 A 
ATOM     26  C   UNL     1       7.931  -0.727   6.300  0.00  0.00    +0.033 A 
ATOM     27  C   UNL     1       7.771  -0.069   7.510  0.00  0.00    +0.128 A 
ATOM     28  C   UNL     1       6.675   0.740   7.726  0.00  0.00    +0.056 A 
ATOM     29  C   UNL     1       5.724   0.906   6.726  0.00  0.00    +0.041 A 
BRANCH  29  30
ATOM     30  N   UNL     1       4.623   1.724   6.939  0.00  0.00    -0.357 N 
ATOM     31  H   UNL     1       3.919   1.774   6.274  0.00  0.00    +0.142 HD
ATOM     32  H   UNL     1       4.557   2.247   7.754  0.00  0.00    +0.142 HD
ENDBRANCH  29  30
BRANCH  27  33
ATOM     33  N   UNL     1       8.782  -0.237   8.577  0.00  0.00    +0.056 N 
ATOM     34  O   UNL     1       9.744  -0.946   8.392  0.00  0.00    -0.126 OA
ATOM     35  O   UNL     1       8.647   0.334   9.634  0.00  0.00    -0.126 OA
ENDBRANCH  27  33
ENDBRANCH  22  24
ENDBRANCH  21  22
ENDBRANCH  20  21
ENDBRANCH  13  20
TORSDOF 7
