REMARK  Name = ZINC64929426
REMARK  5 active torsions:
REMARK  status: ('A' for Active; 'I' for Inactive)
REMARK    1  A    between atoms: C_1  and  C_2
REMARK    2  A    between atoms: C_2  and  C_3
REMARK    3  A    between atoms: C_8  and  N_9
REMARK    4  A    between atoms: N_15  and  C_22
REMARK    5  A    between atoms: C_22  and  C_23
REMARK                            x       y       z     vdW  Elec       q    Type
REMARK                         _______ _______ _______ _____ _____    ______ ____
ROOT
ATOM      1  N   UNL     1      -3.457  -0.898  -3.533  0.00  0.00    -0.269 N 
ATOM      2  C   UNL     1      -2.224  -0.353  -3.540  0.00  0.00    +0.311 C 
ATOM      3  O   UNL     1      -1.601  -0.246  -2.501  0.00  0.00    -0.252 OA
ATOM      4  N   UNL     1      -1.682   0.073  -4.698  0.00  0.00    -0.251 N 
ATOM      5  C   UNL     1      -2.459   0.040  -5.947  0.00  0.00    +0.134 C 
ATOM      6  C   UNL     1      -1.558  -0.521  -7.056  0.00  0.00    +0.126 C 
ATOM      7  N   UNL     1      -0.352   0.316  -7.138  0.00  0.00    -0.312 N 
ATOM      8  C   UNL     1       0.300   0.677  -5.958  0.00  0.00    +0.143 A 
ATOM      9  C   UNL     1      -0.368   0.562  -4.736  0.00  0.00    +0.078 A 
ATOM     10  C   UNL     1       0.280   0.928  -3.567  0.00  0.00    +0.028 A 
ATOM     11  C   UNL     1       1.582   1.405  -3.659  0.00  0.00    +0.022 A 
ATOM     12  C   UNL     1       2.182   1.497  -4.899  0.00  0.00    +0.113 A 
ATOM     13  N   UNL     1       1.542   1.131  -5.999  0.00  0.00    -0.238 NA
ATOM     14  H   UNL     1      -3.928  -1.042  -4.368  0.00  0.00    +0.156 HD
ENDROOT
BRANCH   1  20
ATOM     15  C   UNL     1      -5.440  -1.247  -2.198  0.00  0.00    -0.026 A 
ATOM     16  C   UNL     1      -6.029  -1.606  -1.002  0.00  0.00    +0.005 A 
ATOM     17  C   UNL     1      -5.242  -1.970   0.075  0.00  0.00    +0.000 A 
ATOM     18  C   UNL     1      -3.864  -1.976  -0.041  0.00  0.00    +0.002 A 
ATOM     19  C   UNL     1      -3.269  -1.618  -1.235  0.00  0.00    +0.023 A 
ATOM     20  C   UNL     1      -4.057  -1.257  -2.320  0.00  0.00    +0.038 A 
BRANCH  15  22
ATOM     21  C   UNL     1      -6.532  -2.069  -4.267  0.00  0.00    +0.009 C 
ATOM     22  C   UNL     1      -6.298  -0.850  -3.372  0.00  0.00    +0.033 C 
ENDBRANCH  15  22
ENDBRANCH   1  20
BRANCH   7  23
ATOM     23  C   UNL     1       0.157   0.763  -8.437  0.00  0.00    +0.103 C 
ATOM     24  C   UNL     1      -0.483   2.104  -8.801  0.00  0.00    +0.024 C 
ENDBRANCH   7  23
TORSDOF 3
