REMARK  Name = ZINC58048839
REMARK  11 active torsions:
REMARK  status: ('A' for Active; 'I' for Inactive)
REMARK    1  A    between atoms: C_1  and  N_2
REMARK    2  A    between atoms: N_2  and  C_3
REMARK    3  A    between atoms: C_8  and  C_9
REMARK    4  A    between atoms: N_11  and  C_12
REMARK    5  A    between atoms: C_12  and  C_13
REMARK    6  A    between atoms: C_18  and  C_20
REMARK    7  A    between atoms: C_20  and  N_21
REMARK    8  A    between atoms: N_21  and  C_22
REMARK    9  A    between atoms: N_21  and  C_29
REMARK   10  A    between atoms: C_22  and  C_23
REMARK   11  A    between atoms: C_29  and  C_30
REMARK                            x       y       z     vdW  Elec       q    Type
REMARK                         _______ _______ _______ _____ _____    ______ ____
ROOT
ATOM      1  C   UNL     1      -0.174   1.339   0.054  0.00  0.00    +0.138 C 
ATOM      2  N   UNL     1      -0.070  -0.121   0.010  0.00  0.00    -0.275 N 
ATOM      3  C   UNL     1       0.064  -0.752  -1.173  0.00  0.00    +0.203 C 
ATOM      4  O   UNL     1       0.150  -1.962  -1.209  0.00  0.00    -0.277 OA
ENDROOT
BRANCH   2   5
ATOM      5  C   UNL     1      -0.111  -0.858   1.192  0.00  0.00    +0.048 A 
ATOM      6  C   UNL     1      -1.324  -1.314   1.689  0.00  0.00    +0.024 A 
ATOM      7  C   UNL     1      -1.362  -2.044   2.860  0.00  0.00    +0.002 A 
ATOM      8  C   UNL     1      -0.192  -2.327   3.547  0.00  0.00    +0.001 A 
ATOM      9  C   UNL     1       1.021  -1.883   3.069  0.00  0.00    +0.015 A 
ATOM     10  C   UNL     1       1.075  -1.147   1.882  0.00  0.00    +0.058 A 
BRANCH  10  11
ATOM     11  C   UNL     1       2.372  -0.673   1.362  0.00  0.00    +0.246 C 
ATOM     12  O   UNL     1       2.414  -0.030   0.331  0.00  0.00    -0.270 OA
ATOM     13  N   UNL     1       3.509  -0.954   2.029  0.00  0.00    -0.304 N 
ATOM     14  H   UNL     1       3.475  -1.468   2.851  0.00  0.00    +0.149 HD
BRANCH  13  15
ATOM     15  C   UNL     1       4.796  -0.483   1.512  0.00  0.00    +0.179 C 
BRANCH  15  16
ATOM     16  C   UNL     1       5.901  -0.927   2.436  0.00  0.00    +0.122 A 
ATOM     17  C   UNL     1       6.589  -2.079   2.343  0.00  0.00    +0.046 A 
ATOM     18  C   UNL     1       7.523  -2.086   3.405  0.00  0.00    +0.041 A 
ATOM     19  C   UNL     1       7.349  -0.937   4.083  0.00  0.00    +0.195 A 
ATOM     20  O   UNL     1       6.370  -0.237   3.488  0.00  0.00    -0.466 OA
ENDBRANCH  15  16
ENDBRANCH  13  15
ENDBRANCH  10  11
ENDBRANCH   2   5
BRANCH   3  21
ATOM     21  C   UNL     1       0.107   0.044  -2.451  0.00  0.00    +0.020 C 
BRANCH  21  22
ATOM     22  N   UNL     1       0.109  -0.872  -3.600  0.00  0.00    +0.393 N 
ATOM     23  H   UNL     1       0.851  -1.546  -3.491  0.00  0.00    -0.080 HD
BRANCH  22  24
ATOM     24  C   UNL     1      -1.181  -1.571  -3.670  0.00  0.00    -0.042 C 
BRANCH  24  25
ATOM     25  C   UNL     1      -1.137  -2.599  -4.771  0.00  0.00    -0.064 A 
ATOM     26  C   UNL     1      -1.512  -2.251  -6.056  0.00  0.00    +0.002 A 
ATOM     27  C   UNL     1      -1.471  -3.194  -7.066  0.00  0.00    +0.000 A 
ATOM     28  C   UNL     1      -1.055  -4.483  -6.792  0.00  0.00    +0.000 A 
ATOM     29  C   UNL     1      -0.679  -4.830  -5.508  0.00  0.00    +0.000 A 
ATOM     30  C   UNL     1      -0.716  -3.886  -4.498  0.00  0.00    +0.002 A 
ENDBRANCH  24  25
ENDBRANCH  22  24
BRANCH  22  31
ATOM     31  C   UNL     1       0.319  -0.107  -4.836  0.00  0.00    -0.002 C 
BRANCH  31  32
ATOM     32  C   UNL     1       1.695   0.506  -4.820  0.00  0.00    +0.089 A 
ATOM     33  C   UNL     1       2.833  -0.104  -5.196  0.00  0.00    +0.042 A 
ATOM     34  C   UNL     1       3.878   0.832  -5.019  0.00  0.00    +0.041 A 
ATOM     35  C   UNL     1       3.316   1.958  -4.546  0.00  0.00    +0.195 A 
ATOM     36  O   UNL     1       1.993   1.758  -4.433  0.00  0.00    -0.470 OA
ENDBRANCH  31  32
ENDBRANCH  22  31
ENDBRANCH  21  22
ENDBRANCH   3  21
TORSDOF 10
