REMARK  Name = ZINC60404142
REMARK  12 active torsions:
REMARK  status: ('A' for Active; 'I' for Inactive)
REMARK    1  A    between atoms: C_1  and  C_2
REMARK    2  A    between atoms: C_2  and  C_3
REMARK    3  A    between atoms: C_3  and  C_4
REMARK    4  A    between atoms: C_4  and  N_5
REMARK    5  A    between atoms: C_7  and  C_11
REMARK    6  A    between atoms: C_8  and  C_10
REMARK    7  A    between atoms: C_12  and  C_13
REMARK    8  A    between atoms: N_15  and  C_16
REMARK    9  A    between atoms: N_15  and  C_17
REMARK   10  A    between atoms: N_20  and  C_23
REMARK   11  A    between atoms: C_23  and  C_24
REMARK   12  A    between atoms: C_24  and  C_25
REMARK                            x       y       z     vdW  Elec       q    Type
REMARK                         _______ _______ _______ _____ _____    ______ ____
ROOT
ATOM      1  C   UNL     1      -6.748  -5.000   3.361  0.00  0.00    +0.239 C 
ATOM      2  O   UNL     1      -7.862  -4.549   3.166  0.00  0.00    -0.271 OA
ATOM      3  N   UNL     1      -6.543  -5.881   4.360  0.00  0.00    -0.298 N 
ATOM      4  C   UNL     1      -5.202  -6.423   4.595  0.00  0.00    +0.132 C 
ENDROOT
BRANCH   3   5
ATOM      5  C   UNL     1      -7.660  -6.296   5.212  0.00  0.00    +0.073 C 
ATOM      6  C   UNL     1      -7.357  -5.934   6.668  0.00  0.00    +0.004 C 
ATOM      7  C   UNL     1      -8.491  -6.441   7.561  0.00  0.00    -0.077 C 
ATOM      8  N   UNL     1      -8.606  -7.899   7.432  0.00  0.00    +0.380 N 
ATOM      9  C   UNL     1      -8.967  -8.250   6.053  0.00  0.00    -0.077 C 
ATOM     10  C   UNL     1      -7.851  -7.812   5.102  0.00  0.00    +0.004 C 
ATOM     11  H   UNL     1      -7.722  -8.326   7.667  0.00  0.00    -0.082 HD
BRANCH   8  12
ATOM     12  C   UNL     1      -9.643  -8.390   8.349  0.00  0.00    -0.079 C 
BRANCH  12  13
ATOM     13  C   UNL     1      -9.678  -9.919   8.307  0.00  0.00    -0.022 C 
ATOM     14  C   UNL     1     -10.758 -10.431   9.262  0.00  0.00    +0.002 C 
ENDBRANCH  12  13
ENDBRANCH   8  12
ENDBRANCH   3   5
BRANCH   1  16
ATOM     15  C   UNL     1      -5.872  -3.714   1.536  0.00  0.00    +0.018 C 
ATOM     16  C   UNL     1      -5.666  -4.598   2.538  0.00  0.00    +0.068 C 
BRANCH  15  19
ATOM     17  N   UNL     1      -2.787  -2.571   0.015  0.00  0.00    -0.252 N 
ATOM     18  C   UNL     1      -3.515  -2.843   1.112  0.00  0.00    +0.134 A 
ATOM     19  C   UNL     1      -4.752  -3.297   0.683  0.00  0.00    +0.034 A 
ATOM     20  C   UNL     1      -4.732  -3.284  -0.731  0.00  0.00    +0.069 A 
ATOM     21  N   UNL     1      -3.565  -2.847  -1.115  0.00  0.00    -0.175 NA
ATOM     22  C   UNL     1      -5.863  -3.698  -1.636  0.00  0.00    +0.068 C 
ATOM     23 CL   UNL     1      -3.001  -2.660   2.760  0.00  0.00    -0.062 Cl
BRANCH  17  24
ATOM     24  C   UNL     1      -1.413  -2.063   0.004  0.00  0.00    +0.145 C 
BRANCH  24  25
ATOM     25  C   UNL     1      -1.433  -0.534   0.013  0.00  0.00    +0.023 C 
BRANCH  25  27
ATOM     26  C   UNL     1      -0.019   1.526   0.010  0.00  0.00    +0.004 C 
ATOM     27  C   UNL     1       0.002  -0.004   0.002  0.00  0.00    -0.002 C 
ENDBRANCH  25  27
ENDBRANCH  24  25
ENDBRANCH  17  24
ENDBRANCH  15  19
ENDBRANCH   1  16
TORSDOF 8
