REMARK  Name = ZINC14083431
REMARK  5 active torsions:
REMARK  status: ('A' for Active; 'I' for Inactive)
REMARK    1  A    between atoms: C_1  and  C_2
REMARK    2  A    between atoms: C_2  and  C_25
REMARK    3  A    between atoms: N_5  and  C_9
REMARK    4  A    between atoms: C_9  and  C_10
REMARK    5  A    between atoms: N_12  and  N_13
REMARK                            x       y       z     vdW  Elec       q    Type
REMARK                         _______ _______ _______ _____ _____    ______ ____
ROOT
ATOM      1  C   UNL     1       2.935   0.806  -1.455  0.00  0.00    +0.047 C 
ATOM      2  C   UNL     1       2.466   1.033  -0.017  0.00  0.00    +0.135 C 
ATOM      3  C   UNL     1       3.515   1.784   0.779  0.00  0.00    +0.251 C 
ATOM      4  O   UNL     1       3.943   2.897   0.558  0.00  0.00    -0.272 OA
ATOM      5  N   UNL     1       3.873   0.958   1.781  0.00  0.00    -0.215 N 
ATOM      6  C   UNL     1       3.204  -0.200   1.730  0.00  0.00    +0.310 C 
ATOM      7  O   UNL     1       3.355  -1.104   2.528  0.00  0.00    -0.252 OA
ATOM      8  N   UNL     1       2.343  -0.250   0.697  0.00  0.00    -0.281 N 
ATOM      9  H   UNL     1       1.757  -0.988   0.467  0.00  0.00    +0.152 HD
ENDROOT
BRANCH   2  10
ATOM     10  C   UNL     1       1.155   1.776   0.001  0.00  0.00    -0.015 A 
ATOM     11  C   UNL     1       1.155   3.170   0.008  0.00  0.00    +0.007 A 
ATOM     12  C   UNL     1      -0.011   3.871   0.023  0.00  0.00    +0.009 A 
ATOM     13  C   UNL     1      -1.236   3.183   0.031  0.00  0.00    -0.018 A 
ATOM     14  C   UNL     1      -2.460   3.873   0.047  0.00  0.00    +0.008 A 
ATOM     15  C   UNL     1      -3.627   3.172   0.055  0.00  0.00    +0.001 A 
ATOM     16  C   UNL     1      -3.628   1.779   0.048  0.00  0.00    +0.001 A 
ATOM     17  C   UNL     1      -2.462   1.077   0.032  0.00  0.00    +0.008 A 
ATOM     18  C   UNL     1      -1.237   1.766   0.018  0.00  0.00    -0.018 A 
ATOM     19  C   UNL     1      -0.013   1.076   0.008  0.00  0.00    +0.014 A 
ENDBRANCH   2  10
BRANCH   5  20
ATOM     20  C   UNL     1       4.874   1.285   2.800  0.00  0.00    +0.215 C 
BRANCH  20  21
ATOM     21  C   UNL     1       6.235   0.844   2.328  0.00  0.00    +0.248 C 
ATOM     22  O   UNL     1       6.358   0.308   1.246  0.00  0.00    -0.273 OA
ATOM     23  N   UNL     1       7.316   1.044   3.107  0.00  0.00    -0.222 N 
ATOM     24  H   UNL     1       7.218   1.472   3.971  0.00  0.00    +0.174 HD
BRANCH  23  25
ATOM     25  N   UNL     1       8.582   0.634   2.668  0.00  0.00    -0.137 N 
ATOM     26  C   UNL     1       9.233  -0.450   3.139  0.00  0.00    +0.263 C 
ATOM     27  O   UNL     1       8.850  -1.225   3.989  0.00  0.00    -0.271 OA
ATOM     28  C   UNL     1      10.540  -0.496   2.381  0.00  0.00    +0.114 C 
ATOM     29  C   UNL     1      11.715  -0.374   3.345  0.00  0.00    +0.035 C 
ATOM     30  C   UNL     1      13.027  -0.385   2.557  0.00  0.00    +0.003 C 
ATOM     31  C   UNL     1      13.132  -1.688   1.761  0.00  0.00    +0.000 C 
ATOM     32  C   UNL     1      11.959  -1.786   0.783  0.00  0.00    +0.003 C 
ATOM     33  C   UNL     1      10.643  -1.780   1.565  0.00  0.00    +0.035 C 
ATOM     34  N   UNL     1      10.480   0.673   1.494  0.00  0.00    -0.284 N 
ATOM     35  C   UNL     1       9.297   1.271   1.733  0.00  0.00    +0.326 C 
ATOM     36  O   UNL     1       8.922   2.277   1.164  0.00  0.00    -0.251 OA
ATOM     37  H   UNL     1      11.157   0.957   0.861  0.00  0.00    +0.151 HD
ENDBRANCH  23  25
ENDBRANCH  20  21
ENDBRANCH   5  20
TORSDOF 4
