REMARK  Name = ZINC43410388
REMARK  3 active torsions:
REMARK  status: ('A' for Active; 'I' for Inactive)
REMARK    1  A    between atoms: C_1  and  N_2
REMARK    2  A    between atoms: N_2  and  C_16
REMARK    3  A    between atoms: C_4  and  C_13
REMARK                            x       y       z     vdW  Elec       q    Type
REMARK                         _______ _______ _______ _____ _____    ______ ____
ROOT
ATOM      1  C   UNL     1       0.872   0.363  -0.787  0.00  0.00    +0.131 C 
ATOM      2  N   UNL     1      -0.292  -0.023   0.015  0.00  0.00    -0.315 N 
ATOM      3  C   UNL     1      -0.125  -0.800   1.147  0.00  0.00    +0.132 A 
ATOM      4  C   UNL     1      -0.034  -0.188   2.409  0.00  0.00    +0.052 A 
ATOM      5  C   UNL     1       0.139  -1.001   3.531  0.00  0.00    +0.020 A 
ATOM      6  C   UNL     1       0.211  -2.378   3.358  0.00  0.00    -0.025 A 
ATOM      7  C   UNL     1       0.108  -2.909   2.091  0.00  0.00    +0.047 A 
ATOM      8  N   UNL     1      -0.057  -2.114   1.040  0.00  0.00    -0.236 NA
ATOM      9  C   UNL     1       0.159  -4.394   1.833  0.00  0.00    +0.056 C 
ATOM     10  C   UNL     1       0.769  -5.125   3.026  0.00  0.00    +0.006 C 
ATOM     11  C   UNL     1       0.032  -4.682   4.296  0.00  0.00    +0.005 C 
ATOM     12  C   UNL     1       0.406  -3.229   4.585  0.00  0.00    +0.037 C 
ENDROOT
BRANCH   4  13
ATOM     13  C   UNL     1      -0.119   1.279   2.545  0.00  0.00    +0.098 C 
ATOM     14  N   UNL     1      -1.048   1.823   3.330  0.00  0.00    -0.387 N 
ATOM     15  N   UNL     1       0.735   2.060   1.883  0.00  0.00    -0.344 N 
ATOM     16  H   UNL     1      -1.059   2.781   3.477  0.00  0.00    +0.157 HD
ATOM     17  H   UNL     1       1.411   1.664   1.312  0.00  0.00    +0.144 HD
ATOM     18  H   UNL     1       0.679   3.024   1.972  0.00  0.00    +0.144 HD
ATOM     19  H   UNL     1      -1.715   1.260   3.754  0.00  0.00    +0.157 HD
ENDBRANCH   4  13
BRANCH   2  20
ATOM     20  C   UNL     1      -1.633   0.413  -0.383  0.00  0.00    +0.075 C 
ATOM     21  C   UNL     1      -1.939  -0.063  -1.818  0.00  0.00    +0.022 C 
ATOM     22  C   UNL     1      -2.747   1.103  -2.440  0.00  0.00    +0.002 C 
ATOM     23  C   UNL     1      -2.048   2.355  -1.853  0.00  0.00    +0.002 C 
ATOM     24  C   UNL     1      -1.702   1.950  -0.405  0.00  0.00    +0.022 C 
ENDBRANCH   2  20
TORSDOF 2
