REMARK  Name = ZINC08716488
REMARK  7 active torsions:
REMARK  status: ('A' for Active; 'I' for Inactive)
REMARK    1  A    between atoms: C_1  and  C_2
REMARK    2  A    between atoms: C_9  and  C_14
REMARK    3  A    between atoms: C_14  and  O_16
REMARK    4  A    between atoms: O_16  and  C_17
REMARK    5  A    between atoms: C_17  and  C_18
REMARK    6  A    between atoms: N_20  and  C_21
REMARK    7  A    between atoms: C_24  and  N_28
REMARK                            x       y       z     vdW  Elec       q    Type
REMARK                         _______ _______ _______ _____ _____    ______ ____
ROOT
ATOM      1  O   UNL     1       4.201   7.038  -0.926  0.00  0.00    -0.452 OA
ENDROOT
BRANCH   1   2
ATOM      2  C   UNL     1       4.012   5.703  -0.907  0.00  0.00    +0.340 C 
ATOM      3  O   UNL     1       4.894   4.960  -1.290  0.00  0.00    -0.245 OA
BRANCH   2  11
ATOM      4  C   UNL     1      -1.740   2.228  -1.353  0.00  0.00    +0.029 C 
ATOM      5  C   UNL     1      -1.329   1.894   0.082  0.00  0.00    +0.134 C 
ATOM      6  C   UNL     1       0.008   1.205   0.075  0.00  0.00    +0.230 C 
ATOM      7  O   UNL     1       0.028  -0.007   0.078  0.00  0.00    -0.274 OA
ATOM      8  N   UNL     1       1.171   1.852   0.062  0.00  0.00    -0.284 N 
ATOM      9  C   UNL     1       1.346   3.234   0.048  0.00  0.00    +0.048 A 
ATOM     10  C   UNL     1       2.543   3.762  -0.405  0.00  0.00    +0.039 A 
ATOM     11  C   UNL     1       2.737   5.146  -0.423  0.00  0.00    +0.061 A 
ATOM     12  C   UNL     1       1.723   6.003   0.016  0.00  0.00    +0.016 A 
ATOM     13  C   UNL     1       0.532   5.478   0.466  0.00  0.00    +0.017 A 
ATOM     14  C   UNL     1       0.339   4.103   0.483  0.00  0.00    +0.030 A 
ATOM     15  S   UNL     1      -1.189   3.428   1.054  0.00  0.00    -0.111 S 
ATOM     16  H   UNL     1       1.974   1.309   0.062  0.00  0.00    +0.155 HD
ENDBRANCH   2  11
ENDBRANCH   1   2
BRANCH   1  17
ATOM     17  C   UNL     1       5.481   7.516  -1.415  0.00  0.00    +0.328 C 
BRANCH  17  18
ATOM     18  C   UNL     1       5.508   9.022  -1.362  0.00  0.00    +0.255 C 
ATOM     19  O   UNL     1       4.544   9.632  -0.952  0.00  0.00    -0.272 OA
ATOM     20  N   UNL     1       6.605   9.691  -1.770  0.00  0.00    -0.282 N 
ATOM     21  H   UNL     1       7.400   9.203  -2.036  0.00  0.00    +0.155 HD
BRANCH  20  22
ATOM     22  C   UNL     1       6.597  11.090  -1.810  0.00  0.00    +0.048 A 
ATOM     23  C   UNL     1       5.889  11.809  -0.856  0.00  0.00    +0.026 A 
ATOM     24  C   UNL     1       5.883  13.189  -0.898  0.00  0.00    +0.034 A 
ATOM     25  C   UNL     1       6.581  13.856  -1.889  0.00  0.00    +0.127 A 
ATOM     26  C   UNL     1       7.287  13.143  -2.840  0.00  0.00    +0.049 A 
ATOM     27  C   UNL     1       7.302  11.762  -2.801  0.00  0.00    +0.041 A 
ATOM     28 BR   UNL     1       8.274  10.788  -4.098  0.00  0.00    -0.048 Br
BRANCH  25  29
ATOM     29  N   UNL     1       6.572  15.336  -1.930  0.00  0.00    +0.056 N 
ATOM     30  O   UNL     1       5.951  15.965  -1.092  0.00  0.00    -0.126 OA
ATOM     31  O   UNL     1       7.186  15.924  -2.802  0.00  0.00    -0.126 OA
ENDBRANCH  25  29
ENDBRANCH  20  22
ENDBRANCH  17  18
ENDBRANCH   1  17
TORSDOF 6
