REMARK  Name = ZINC13059551
REMARK  9 active torsions:
REMARK  status: ('A' for Active; 'I' for Inactive)
REMARK    1  A    between atoms: C_1  and  C_2
REMARK    2  A    between atoms: C_2  and  C_3
REMARK    3  A    between atoms: C_3  and  C_5
REMARK    4  A    between atoms: C_3  and  N_6
REMARK    5  A    between atoms: C_7  and  C_9
REMARK    6  A    between atoms: C_14  and  N_15
REMARK    7  A    between atoms: N_15  and  S_16
REMARK    8  A    between atoms: S_16  and  C_19
REMARK    9  A    between atoms: C_21  and  C_26
REMARK                            x       y       z     vdW  Elec       q    Type
REMARK                         _______ _______ _______ _____ _____    ______ ____
ROOT
ATOM      1  N   UNL     1      -1.516   3.076   1.446  0.00  0.00    -0.215 N 
ATOM      2  H   UNL     1      -2.083   2.803   2.185  0.00  0.00    +0.174 HD
ENDROOT
BRANCH   1   8
ATOM      3  C   UNL     1       0.049   4.287   2.839  0.00  0.00    +0.059 A 
ATOM      4  C   UNL     1       0.958   5.338   2.993  0.00  0.00    +0.015 A 
ATOM      5  C   UNL     1       1.198   6.198   1.944  0.00  0.00    +0.001 A 
ATOM      6  C   UNL     1       0.544   6.026   0.734  0.00  0.00    +0.002 A 
ATOM      7  C   UNL     1      -0.352   4.991   0.565  0.00  0.00    +0.025 A 
ATOM      8  C   UNL     1      -0.612   4.117   1.613  0.00  0.00    +0.060 A 
BRANCH   3  10
ATOM      9  N   UNL     1       0.424   3.531   5.134  0.00  0.00    -0.309 N 
ATOM     10  C   UNL     1      -0.213   3.364   3.958  0.00  0.00    +0.246 C 
ATOM     11  O   UNL     1      -1.004   2.451   3.820  0.00  0.00    -0.270 OA
ATOM     12  H   UNL     1       1.055   4.260   5.244  0.00  0.00    +0.149 HD
BRANCH   9  13
ATOM     13  C   UNL     1       0.163   2.614   6.246  0.00  0.00    +0.070 C 
ATOM     14  C   UNL     1       1.054   1.378   6.107  0.00  0.00    +0.028 C 
BRANCH  13  16
ATOM     15  C   UNL     1      -0.506   4.479   7.767  0.00  0.00    +0.005 C 
ATOM     16  C   UNL     1       0.469   3.317   7.570  0.00  0.00    +0.018 C 
ENDBRANCH  13  16
ENDBRANCH   9  13
ENDBRANCH   3  10
ENDBRANCH   1   8
BRANCH   1  17
ATOM     17  S   UNL     1      -1.627   2.301  -0.013  0.00  0.00    +0.073 S 
ATOM     18  O   UNL     1      -2.601   1.278   0.144  0.00  0.00    -0.150 OA
ATOM     19  O   UNL     1      -0.296   2.028  -0.430  0.00  0.00    -0.150 OA
BRANCH  17  20
ATOM     20  C   UNL     1      -2.290   3.455  -1.167  0.00  0.00    +0.123 A 
ATOM     21  C   UNL     1      -1.536   3.855  -2.250  0.00  0.00    +0.045 A 
ATOM     22  C   UNL     1      -2.065   4.766  -3.167  0.00  0.00    +0.065 A 
ATOM     23  C   UNL     1      -3.356   5.266  -2.981  0.00  0.00    +0.016 A 
ATOM     24  C   UNL     1      -4.100   4.858  -1.894  0.00  0.00    +0.018 A 
ATOM     25  C   UNL     1      -3.569   3.954  -0.988  0.00  0.00    +0.044 A 
ATOM     26 BR   UNL     1      -4.596   3.400   0.500  0.00  0.00    -0.048 Br
BRANCH  22  27
ATOM     27  C   UNL     1      -1.263   5.198  -4.330  0.00  0.00    +0.387 C 
ATOM     28  O   UNL     1      -0.141   4.762  -4.489  0.00  0.00    -0.241 OA
ATOM     29  O   UNL     1      -1.777   6.077  -5.213  0.00  0.00    -0.241 OA
ENDBRANCH  22  27
ENDBRANCH  17  20
ENDBRANCH   1  17
TORSDOF 7
