REMARK  Name = ZINC06174068
REMARK  11 active torsions:
REMARK  status: ('A' for Active; 'I' for Inactive)
REMARK    1  A    between atoms: C_1  and  C_2
REMARK    2  A    between atoms: C_3  and  C_33
REMARK    3  A    between atoms: C_5  and  C_6
REMARK    4  A    between atoms: C_9  and  C_11
REMARK    5  A    between atoms: C_11  and  N_12
REMARK    6  A    between atoms: N_12  and  S_13
REMARK    7  A    between atoms: S_13  and  C_16
REMARK    8  A    between atoms: N_25  and  C_26
REMARK    9  A    between atoms: C_26  and  C_27
REMARK   10  A    between atoms: C_33  and  O_35
REMARK   11  A    between atoms: O_35  and  C_36
REMARK                            x       y       z     vdW  Elec       q    Type
REMARK                         _______ _______ _______ _____ _____    ______ ____
ROOT
ATOM      1  C   UNL     1      -0.018   1.503   0.010  0.00  0.00    +0.062 C 
ATOM      2  C   UNL     1       0.002  -0.004   0.002  0.00  0.00    +0.025 C 
ATOM      3  C   UNL     1       0.008  -0.770  -1.122  0.00  0.00    +0.088 C 
ATOM      4  C   UNL     1       0.029  -2.181  -0.662  0.00  0.00    +0.056 C 
ATOM      5  C   UNL     1       0.042  -3.325  -1.440  0.00  0.00    +0.060 C 
ATOM      6  C   UNL     1       0.034  -2.091   0.804  0.00  0.00    +0.252 C 
ATOM      7  O   UNL     1       0.050  -3.023   1.587  0.00  0.00    -0.270 OA
ATOM      8  N   UNL     1       0.023  -0.782   1.117  0.00  0.00    -0.268 N 
ENDROOT
BRANCH   5   9
ATOM      9  C   UNL     1       0.061  -4.593  -0.827  0.00  0.00    +0.129 A 
ATOM     10  C   UNL     1       0.082  -5.814  -1.478  0.00  0.00    +0.049 A 
ATOM     11  C   UNL     1       0.097  -6.798  -0.480  0.00  0.00    +0.046 A 
ATOM     12  C   UNL     1       0.086  -6.159   0.713  0.00  0.00    +0.121 A 
ATOM     13  O   UNL     1       0.070  -4.836   0.501  0.00  0.00    -0.459 OA
BRANCH  12  14
ATOM     14  C   UNL     1       0.097  -6.828   2.063  0.00  0.00    +0.180 C 
BRANCH  14  15
ATOM     15  N   UNL     1       1.481  -7.022   2.501  0.00  0.00    -0.183 NA
ATOM     16  H   UNL     1       2.208  -6.938   1.864  0.00  0.00    +0.148 HD
BRANCH  15  17
ATOM     17  S   UNL     1       1.806  -7.388   4.083  0.00  0.00    +0.059 S 
ATOM     18  O   UNL     1       3.215  -7.539   4.184  0.00  0.00    -0.153 OA
ATOM     19  O   UNL     1       1.081  -6.454   4.872  0.00  0.00    -0.153 OA
BRANCH  17  20
ATOM     20  C   UNL     1       1.105  -8.971   4.407  0.00  0.00    +0.105 A 
ATOM     21  C   UNL     1      -0.198  -9.071   4.859  0.00  0.00    +0.030 A 
ATOM     22  C   UNL     1      -0.749 -10.313   5.113  0.00  0.00    +0.022 A 
ATOM     23  C   UNL     1       0.004 -11.457   4.915  0.00  0.00    +0.041 A 
ATOM     24  C   UNL     1       1.308 -11.356   4.462  0.00  0.00    +0.022 A 
ATOM     25  C   UNL     1       1.855 -10.114   4.203  0.00  0.00    +0.030 A 
ATOM     26 CL   UNL     1      -0.686 -13.017   5.234  0.00  0.00    -0.084 Cl
ENDBRANCH  17  20
ENDBRANCH  15  17
ENDBRANCH  14  15
ENDBRANCH  12  14
ENDBRANCH   5   9
BRANCH   3  27
ATOM     27  C   UNL     1      -0.005  -0.297  -2.511  0.00  0.00    +0.341 C 
ATOM     28  O   UNL     1      -0.023   0.896  -2.746  0.00  0.00    -0.245 OA
BRANCH  27  29
ATOM     29  O   UNL     1       0.003  -1.184  -3.526  0.00  0.00    -0.464 OA
ATOM     30  C   UNL     1      -0.011  -0.653  -4.852  0.00  0.00    +0.280 C 
ENDBRANCH  27  29
ENDBRANCH   3  27
BRANCH   8  31
ATOM     31  C   UNL     1       0.029  -0.262   2.486  0.00  0.00    +0.145 C 
BRANCH  31  32
ATOM     32  C   UNL     1      -1.411  -0.100   2.977  0.00  0.00    +0.136 C 
ATOM     33  C   UNL     1      -1.418   0.561   4.372  0.00  0.00    +0.035 C 
ATOM     34  C   UNL     1      -2.554  -0.212   5.097  0.00  0.00    +0.031 C 
ATOM     35  C   UNL     1      -2.395  -1.622   4.473  0.00  0.00    +0.160 C 
ATOM     36  O   UNL     1      -2.029  -1.386   3.102  0.00  0.00    -0.375 OA
ENDBRANCH  31  32
ENDBRANCH   8  31
TORSDOF 9
