REMARK  Name = ZINC12209078
REMARK  9 active torsions:
REMARK  status: ('A' for Active; 'I' for Inactive)
REMARK    1  A    between atoms: C_1  and  O_2
REMARK    2  A    between atoms: O_2  and  C_3
REMARK    3  A    between atoms: C_5  and  C_12
REMARK    4  A    between atoms: C_12  and  N_65
REMARK    5  A    between atoms: C_15  and  C_18
REMARK    6  A    between atoms: C_18  and  C_25
REMARK    7  A    between atoms: C_25  and  C_26
REMARK    8  A    between atoms: C_26  and  C_27
REMARK    9  A    between atoms: C_27  and  C_28
REMARK                            x       y       z     vdW  Elec       q    Type
REMARK                         _______ _______ _______ _____ _____    ______ ____
ROOT
ATOM      1  C   UNL     1      -0.553  -0.719  -3.740  0.00  0.00    -0.078 C 
ATOM      2  C   UNL     1       0.106  -0.124  -2.493  0.00  0.00    -0.013 C 
ATOM      3  C   UNL     1      -0.686  -0.545  -1.253  0.00  0.00    +0.018 C 
ATOM      4  C   UNL     1      -0.744  -2.074  -1.186  0.00  0.00    -0.013 C 
ATOM      5  C   UNL     1      -1.377  -2.612  -2.471  0.00  0.00    -0.078 C 
ATOM      6  N   UNL     1      -0.554  -2.193  -3.625  0.00  0.00    +0.382 N 
ATOM      7  H   UNL     1       0.410  -2.516  -3.482  0.00  0.00    -0.081 HD
ENDROOT
BRANCH   3   8
ATOM      8  C   UNL     1       0.002  -0.004   0.002  0.00  0.00    +0.115 C 
ATOM      9  C   UNL     1       1.480  -0.340  -0.014  0.00  0.00    +0.244 C 
ATOM     10  O   UNL     1       1.980  -1.445  -0.024  0.00  0.00    -0.273 OA
ATOM     11  N   UNL     1       2.123   0.844  -0.014  0.00  0.00    -0.238 N 
ATOM     12  C   UNL     1       1.266   1.871   0.000  0.00  0.00    +0.307 C 
ATOM     13  O   UNL     1       1.608   3.037   0.003  0.00  0.00    -0.252 OA
ATOM     14  N   UNL     1      -0.018   1.469   0.010  0.00  0.00    -0.285 N 
ATOM     15  H   UNL     1       3.088   0.940  -0.023  0.00  0.00    +0.159 HD
ATOM     16  H   UNL     1      -0.803   2.038   0.017  0.00  0.00    +0.151 HD
BRANCH   8  17
ATOM     17  C   UNL     1      -0.666  -0.558   1.262  0.00  0.00    +0.036 C 
BRANCH  17  18
ATOM     18  C   UNL     1      -0.006   0.052   2.500  0.00  0.00    +0.007 C 
BRANCH  18  19
ATOM     19  C   UNL     1      -0.674  -0.502   3.760  0.00  0.00    +0.035 C 
BRANCH  19  20
ATOM     20  C   UNL     1      -0.024   0.100   4.979  0.00  0.00    -0.047 A 
ATOM     21  C   UNL     1       1.060  -0.527   5.564  0.00  0.00    +0.003 A 
ATOM     22  C   UNL     1       1.659   0.027   6.680  0.00  0.00    +0.000 A 
ATOM     23  C   UNL     1       1.168   1.203   7.216  0.00  0.00    +0.000 A 
ATOM     24  C   UNL     1       0.081   1.827   6.634  0.00  0.00    +0.000 A 
ATOM     25  C   UNL     1      -0.515   1.275   5.515  0.00  0.00    +0.003 A 
ENDBRANCH  19  20
ENDBRANCH  18  19
ENDBRANCH  17  18
ENDBRANCH   8  17
ENDBRANCH   3   8
BRANCH   6  26
ATOM     26  C   UNL     1      -1.081  -2.795  -4.867  0.00  0.00    -0.043 C 
BRANCH  26  29
ATOM     27  C   UNL     1      -1.659  -6.475  -4.232  0.00  0.00    +0.166 A 
ATOM     28  C   UNL     1      -1.851  -5.103  -4.284  0.00  0.00    +0.051 A 
ATOM     29  C   UNL     1      -0.869  -4.286  -4.812  0.00  0.00    -0.057 A 
ATOM     30  C   UNL     1       0.305  -4.833  -5.294  0.00  0.00    +0.051 A 
ATOM     31  C   UNL     1       0.508  -6.203  -5.241  0.00  0.00    +0.170 A 
ATOM     32  C   UNL     1      -0.478  -7.029  -4.711  0.00  0.00    +0.208 A 
ATOM     33  O   UNL     1      -0.046  -8.323  -4.776  0.00  0.00    -0.449 OA
ATOM     34  C   UNL     1       1.039  -8.319  -5.722  0.00  0.00    +0.467 C 
ATOM     35  O   UNL     1       1.559  -6.978  -5.639  0.00  0.00    -0.452 OA
BRANCH  27  37
ATOM     36  C   UNL     1      -3.813  -6.640  -3.238  0.00  0.00    +0.277 C 
ATOM     37  O   UNL     1      -2.626  -7.278  -3.712  0.00  0.00    -0.491 OA
ENDBRANCH  27  37
ENDBRANCH  26  29
ENDBRANCH   6  26
TORSDOF 8
