REMARK  Name = ZINC04939832
REMARK  7 active torsions:
REMARK  status: ('A' for Active; 'I' for Inactive)
REMARK    1  A    between atoms: C_1  and  C_2
REMARK    2  A    between atoms: C_11  and  C_13
REMARK    3  A    between atoms: N_15  and  C_16
REMARK    4  A    between atoms: C_16  and  C_17
REMARK    5  A    between atoms: C_17  and  N_54
REMARK    6  A    between atoms: C_18  and  N_54
REMARK    7  A    between atoms: C_19  and  N_54
REMARK                            x       y       z     vdW  Elec       q    Type
REMARK                         _______ _______ _______ _____ _____    ______ ____
ROOT
ATOM      1  C   UNL     1      -0.804  13.342   2.304  0.00  0.00    +0.044 C 
ATOM      2  C   UNL     1      -1.656  12.846   1.165  0.00  0.00    -0.050 A 
ATOM      3  C   UNL     1      -2.348  13.751   0.375  0.00  0.00    +0.007 A 
ATOM      4  C   UNL     1      -3.132  13.311  -0.671  0.00  0.00    +0.047 A 
ATOM      5  C   UNL     1      -3.235  11.954  -0.943  0.00  0.00    +0.140 A 
ATOM      6  C   UNL     1      -2.535  11.034  -0.143  0.00  0.00    +0.032 A 
ATOM      7  C   UNL     1      -1.745  11.495   0.913  0.00  0.00    +0.016 A 
ATOM      8  C   UNL     1      -2.652   9.612  -0.440  0.00  0.00    +0.038 A 
ATOM      9  C   UNL     1      -3.452   9.166  -1.508  0.00  0.00    +0.075 A 
ATOM     10  C   UNL     1      -3.483   7.781  -1.700  0.00  0.00    +0.036 A 
ATOM     11  C   UNL     1      -2.763   6.987  -0.854  0.00  0.00    +0.075 A 
ATOM     12  S   UNL     1      -2.002   8.171   0.242  0.00  0.00    -0.083 S 
ATOM     13  C   UNL     1      -4.142  10.225  -2.280  0.00  0.00    +0.346 A 
ATOM     14  O   UNL     1      -4.851   9.914  -3.219  0.00  0.00    -0.244 OA
ATOM     15  O   UNL     1      -4.000  11.517  -1.966  0.00  0.00    -0.422 OA
ENDROOT
BRANCH  11  16
ATOM     16  C   UNL     1      -2.641   5.525  -0.851  0.00  0.00    +0.251 C 
ATOM     17  O   UNL     1      -3.236   4.863  -1.680  0.00  0.00    -0.270 OA
ATOM     18  N   UNL     1      -1.870   4.915   0.071  0.00  0.00    -0.313 N 
ATOM     19  H   UNL     1      -1.396   5.443   0.733  0.00  0.00    +0.149 HD
BRANCH  18  20
ATOM     20  C   UNL     1      -1.748   3.455   0.075  0.00  0.00    +0.086 C 
BRANCH  20  21
ATOM     21  C   UNL     1      -0.822   3.023   1.213  0.00  0.00    -0.060 C 
BRANCH  21  23
ATOM     22  C   UNL     1      -0.013   1.086   0.008  0.00  0.00    -0.096 C 
ATOM     23  N   UNL     1      -0.727   1.548   1.217  0.00  0.00    +0.381 N 
ATOM     24  H   UNL     1      -1.674   1.153   1.216  0.00  0.00    -0.082 HD
BRANCH  23  25
ATOM     25  C   UNL     1      -0.016   1.091   2.429  0.00  0.00    -0.069 C 
ATOM     26  C   UNL     1       1.427   1.599   2.429  0.00  0.00    -0.015 C 
ATOM     27  C   UNL     1       2.139   1.111   3.692  0.00  0.00    -0.002 C 
ATOM     28  C   UNL     1       2.137  -0.419   3.720  0.00  0.00    -0.000 C 
ATOM     29  C   UNL     1       0.694  -0.926   3.720  0.00  0.00    -0.002 C 
ATOM     30  C   UNL     1      -0.018  -0.439   2.457  0.00  0.00    -0.015 C 
ENDBRANCH  23  25
ENDBRANCH  21  23
ENDBRANCH  20  21
ENDBRANCH  18  20
ENDBRANCH  11  16
TORSDOF 5
