REMARK  Name = ZINC01309574
REMARK  5 active torsions:
REMARK  status: ('A' for Active; 'I' for Inactive)
REMARK    1  A    between atoms: C_1  and  C_2
REMARK    2  A    between atoms: C_3  and  C_19
REMARK    3  A    between atoms: C_4  and  C_10
REMARK    4  A    between atoms: C_13  and  N_16
REMARK    5  A    between atoms: N_21  and  C_22
REMARK                            x       y       z     vdW  Elec       q    Type
REMARK                         _______ _______ _______ _____ _____    ______ ____
ROOT
ATOM      1  C   UNL     1      -4.608   2.928   2.578  0.00  0.00    +0.061 C 
ATOM      2  C   UNL     1      -3.919   3.075   1.246  0.00  0.00    +0.017 C 
ATOM      3  C   UNL     1      -2.758   3.760   1.171  0.00  0.00    +0.056 C 
ATOM      4  C   UNL     1      -2.100   3.884  -0.188  0.00  0.00    +0.139 C 
ATOM      5  N   UNL     1      -2.786   3.244  -1.323  0.00  0.00    -0.315 N 
ATOM      6  C   UNL     1      -3.942   2.594  -1.089  0.00  0.00    +0.135 C 
ATOM      7  S   UNL     1      -4.750   1.843  -2.399  0.00  0.00    -0.019 S 
ATOM      8  N   UNL     1      -4.480   2.515   0.134  0.00  0.00    -0.300 N 
ATOM      9  H   UNL     1      -2.352   3.304  -2.333  0.00  0.00    +0.149 HD
ATOM     10  H   UNL     1      -5.427   1.961   0.216  0.00  0.00    +0.154 HD
ENDROOT
BRANCH   4  11
ATOM     11  C   UNL     1      -0.716   3.296  -0.090  0.00  0.00    -0.023 A 
ATOM     12  C   UNL     1      -0.506   1.966  -0.403  0.00  0.00    +0.008 A 
ATOM     13  C   UNL     1       0.762   1.425  -0.308  0.00  0.00    +0.033 A 
ATOM     14  C   UNL     1       1.823   2.217   0.090  0.00  0.00    +0.126 A 
ATOM     15  C   UNL     1       1.615   3.548   0.398  0.00  0.00    +0.033 A 
ATOM     16  C   UNL     1       0.345   4.088   0.308  0.00  0.00    +0.008 A 
BRANCH  14  17
ATOM     17  N   UNL     1       3.183   1.639   0.186  0.00  0.00    +0.056 N 
ATOM     18  O   UNL     1       3.366   0.466  -0.086  0.00  0.00    -0.126 OA
ATOM     19  O   UNL     1       4.117   2.336   0.537  0.00  0.00    -0.126 OA
ENDBRANCH  14  17
ENDBRANCH   4  11
BRANCH   3  20
ATOM     20  C   UNL     1      -2.175   4.341   2.323  0.00  0.00    +0.248 C 
ATOM     21  O   UNL     1      -2.033   5.548   2.390  0.00  0.00    -0.270 OA
ATOM     22  N   UNL     1      -1.777   3.558   3.345  0.00  0.00    -0.282 N 
ATOM     23  H   UNL     1      -2.017   2.484   3.341  0.00  0.00    +0.155 HD
BRANCH  22  24
ATOM     24  C   UNL     1      -1.060   4.110   4.411  0.00  0.00    +0.034 A 
ATOM     25  C   UNL     1      -1.237   5.445   4.751  0.00  0.00    +0.023 A 
ATOM     26  C   UNL     1      -0.530   5.986   5.807  0.00  0.00    +0.002 A 
ATOM     27  C   UNL     1       0.360   5.203   6.520  0.00  0.00    +0.000 A 
ATOM     28  C   UNL     1       0.542   3.874   6.180  0.00  0.00    +0.002 A 
ATOM     29  C   UNL     1      -0.165   3.326   5.128  0.00  0.00    +0.023 A 
ENDBRANCH  22  24
ENDBRANCH   3  20
TORSDOF 4
