REMARK  Name = ZINC47133552
REMARK  9 active torsions:
REMARK  status: ('A' for Active; 'I' for Inactive)
REMARK    1  A    between atoms: C_1  and  C_2
REMARK    2  A    between atoms: C_2  and  C_3
REMARK    3  A    between atoms: C_6  and  C_28
REMARK    4  A    between atoms: C_7  and  C_9
REMARK    5  A    between atoms: C_15  and  C_17
REMARK    6  A    between atoms: C_17  and  C_19
REMARK    7  A    between atoms: C_17  and  O_20
REMARK    8  A    between atoms: O_20  and  C_21
REMARK    9  A    between atoms: C_28  and  C_29
REMARK                            x       y       z     vdW  Elec       q    Type
REMARK                         _______ _______ _______ _____ _____    ______ ____
ROOT
ATOM      1  C   UNL     1       4.672  -1.041  -2.642  0.00  0.00    +0.156 A 
ATOM      2  C   UNL     1       5.441  -0.893  -1.402  0.00  0.00    +0.197 A 
ATOM      3  N   UNL     1       6.628  -1.398  -1.593  0.00  0.00    -0.033 NA
ATOM      4  O   UNL     1       6.687  -1.883  -2.922  0.00  0.00    -0.240 OA
ATOM      5  N   UNL     1       5.430  -1.635  -3.526  0.00  0.00    -0.047 NA
ATOM      6  N   UNL     1       4.982  -0.312  -0.221  0.00  0.00    -0.263 N 
ATOM      7  C   UNL     1       5.827  -0.129   0.813  0.00  0.00    +0.259 C 
ATOM      8  O   UNL     1       6.987  -0.470   0.716  0.00  0.00    -0.271 OA
ATOM      9  H   UNL     1       4.055  -0.040  -0.143  0.00  0.00    +0.156 HD
ENDROOT
BRANCH   1  14
ATOM     10  C   UNL     1       1.581   1.099  -2.696  0.00  0.00    -0.047 A 
ATOM     11  C   UNL     1       0.660   0.229  -3.251  0.00  0.00    +0.004 A 
ATOM     12  C   UNL     1       1.039  -1.052  -3.608  0.00  0.00    +0.004 A 
ATOM     13  C   UNL     1       2.340  -1.470  -3.413  0.00  0.00    -0.038 A 
ATOM     14  C   UNL     1       3.272  -0.598  -2.855  0.00  0.00    +0.011 A 
ATOM     15  C   UNL     1       2.886   0.694  -2.501  0.00  0.00    +0.014 A 
BRANCH  10  17
ATOM     16  C   UNL     1       1.361   3.435  -3.497  0.00  0.00    +0.009 C 
ATOM     17  C   UNL     1       1.161   2.494  -2.308  0.00  0.00    +0.032 C 
ENDBRANCH  10  17
BRANCH  13  18
ATOM     18  C   UNL     1       2.751  -2.866  -3.803  0.00  0.00    +0.032 C 
ATOM     19  C   UNL     1       2.660  -3.784  -2.583  0.00  0.00    +0.009 C 
ENDBRANCH  13  18
ENDBRANCH   1  14
BRANCH   7  20
ATOM     20  C   UNL     1       5.331   0.499   2.090  0.00  0.00    +0.256 C 
ATOM     21  C   UNL     1       4.297  -0.420   2.742  0.00  0.00    +0.062 C 
BRANCH  20  22
ATOM     22  O   UNL     1       6.429   0.692   2.984  0.00  0.00    -0.480 OA
BRANCH  22  23
ATOM     23  C   UNL     1       6.298   1.669   3.920  0.00  0.00    +0.122 A 
ATOM     24  C   UNL     1       7.369   1.991   4.741  0.00  0.00    +0.048 A 
ATOM     25  C   UNL     1       7.235   2.985   5.692  0.00  0.00    +0.042 A 
ATOM     26  C   UNL     1       6.033   3.659   5.825  0.00  0.00    +0.124 A 
ATOM     27  C   UNL     1       4.964   3.338   5.006  0.00  0.00    +0.042 A 
ATOM     28  C   UNL     1       5.097   2.350   4.050  0.00  0.00    +0.048 A 
ATOM     29  F   UNL     1       5.903   4.630   6.755  0.00  0.00    -0.205 F 
ENDBRANCH  22  23
ENDBRANCH  20  22
ENDBRANCH   7  20
TORSDOF 6
