REMARK  Name = ZINC36024234
REMARK  10 active torsions:
REMARK  status: ('A' for Active; 'I' for Inactive)
REMARK    1  A    between atoms: C_1  and  C_2
REMARK    2  A    between atoms: C_2  and  C_4
REMARK    3  A    between atoms: C_2  and  N_10
REMARK    4  A    between atoms: C_13  and  C_29
REMARK    5  A    between atoms: N_24  and  C_25
REMARK    6  A    between atoms: C_25  and  C_26
REMARK    7  A    between atoms: C_25  and  C_27
REMARK    8  A    between atoms: C_25  and  C_28
REMARK    9  A    between atoms: C_29  and  C_30
REMARK   10  A    between atoms: C_29  and  C_31
REMARK                            x       y       z     vdW  Elec       q    Type
REMARK                         _______ _______ _______ _____ _____    ______ ____
ROOT
ATOM      1  N   UNL     1      -0.006  -0.641   0.355  0.00  0.00    -0.307 N 
ATOM      2  C   UNL     1      -0.024  -1.976   0.159  0.00  0.00    +0.201 C 
ATOM      3  O   UNL     1       0.847  -2.624  -0.382  0.00  0.00    -0.277 OA
ATOM      4  C   UNL     1      -1.313  -2.527   0.728  0.00  0.00    +0.022 C 
ATOM      5  N   UNL     1      -1.823  -1.456   1.618  0.00  0.00    +0.401 N 
ATOM      6  C   UNL     1      -1.234  -0.231   1.041  0.00  0.00    +0.007 C 
ATOM      7  C   UNL     1      -2.214   0.388   0.046  0.00  0.00    +0.025 C 
ATOM      8  C   UNL     1      -1.584   1.638  -0.578  0.00  0.00    +0.109 C 
ATOM      9  N   UNL     1      -1.156   2.539   0.501  0.00  0.00    -0.286 N 
ATOM     10  C   UNL     1      -0.271   2.016   1.550  0.00  0.00    +0.109 C 
ATOM     11  C   UNL     1      -0.911   0.762   2.156  0.00  0.00    +0.025 C 
ATOM     12  C   UNL     1      -1.568   3.822   0.527  0.00  0.00    +0.303 C 
ATOM     13  O   UNL     1      -1.170   4.571   1.399  0.00  0.00    -0.253 OA
ATOM     14  N   UNL     1      -2.421   4.275  -0.413  0.00  0.00    -0.294 N 
ATOM     15  H   UNL     1      -2.831  -1.418   1.589  0.00  0.00    -0.082 HD
ATOM     16  H   UNL     1      -2.688   3.697  -1.145  0.00  0.00    +0.151 HD
ATOM     17  H   UNL     1      -1.497  -1.593   2.563  0.00  0.00    -0.082 HD
ENDROOT
BRANCH  14  18
ATOM     18  C   UNL     1      -2.945   5.641  -0.329  0.00  0.00    +0.028 C 
ATOM     19  C   UNL     1      -1.783   6.636  -0.373  0.00  0.00    +0.031 C 
ATOM     20  C   UNL     1      -3.883   5.900  -1.509  0.00  0.00    +0.031 C 
ATOM     21  C   UNL     1      -3.714   5.813   0.982  0.00  0.00    +0.031 C 
ENDBRANCH  14  18
BRANCH   4  22
ATOM     22  C   UNL     1      -1.040  -3.803   1.528  0.00  0.00    -0.023 C 
ATOM     23  C   UNL     1      -0.442  -4.866   0.605  0.00  0.00    +0.006 C 
ATOM     24  C   UNL     1      -0.053  -3.495   2.657  0.00  0.00    +0.006 C 
ENDBRANCH   4  22
BRANCH   1  26
ATOM     25  C   UNL     1       2.146   0.294   1.045  0.00  0.00    +0.033 C 
ATOM     26  C   UNL     1       1.077   0.259  -0.049  0.00  0.00    +0.101 C 
BRANCH  26  27
ATOM     27  C   UNL     1       1.689  -0.238  -1.334  0.00  0.00    -0.027 A 
ATOM     28  C   UNL     1       3.050  -0.116  -1.544  0.00  0.00    +0.005 A 
ATOM     29  C   UNL     1       3.611  -0.571  -2.722  0.00  0.00    +0.000 A 
ATOM     30  C   UNL     1       2.812  -1.149  -3.690  0.00  0.00    +0.000 A 
ATOM     31  C   UNL     1       1.451  -1.272  -3.480  0.00  0.00    +0.000 A 
ATOM     32  C   UNL     1       0.890  -0.820  -2.300  0.00  0.00    +0.005 A 
ENDBRANCH  26  27
ENDBRANCH   1  26
TORSDOF 4
