REMARK  Name = ZINC29075798
REMARK  12 active torsions:
REMARK  status: ('A' for Active; 'I' for Inactive)
REMARK    1  A    between atoms: C_1  and  C_2
REMARK    2  A    between atoms: C_7  and  C_8
REMARK    3  A    between atoms: C_8  and  C_10
REMARK    4  A    between atoms: C_8  and  N_11
REMARK    5  A    between atoms: N_11  and  C_12
REMARK    6  A    between atoms: C_15  and  C_21
REMARK    7  A    between atoms: C_17  and  N_18
REMARK    8  A    between atoms: N_23  and  C_24
REMARK    9  A    between atoms: C_24  and  C_26
REMARK   10  A    between atoms: C_24  and  C_27
REMARK   11  A    between atoms: C_27  and  O_29
REMARK   12  A    between atoms: O_29  and  C_30
REMARK                            x       y       z     vdW  Elec       q    Type
REMARK                         _______ _______ _______ _____ _____    ______ ____
ROOT
ATOM      1  C   UNL     1       2.291   0.282   0.030  0.00  0.00    +0.058 A 
ATOM      2  C   UNL     1       2.014   1.637   0.193  0.00  0.00    +0.026 A 
ATOM      3  C   UNL     1       0.711   2.072   0.260  0.00  0.00    +0.015 A 
ATOM      4  C   UNL     1      -0.337   1.151   0.164  0.00  0.00    +0.039 A 
ATOM      5  C   UNL     1      -0.057  -0.208   0.001  0.00  0.00    +0.047 A 
ATOM      6  C   UNL     1       1.250  -0.637  -0.066  0.00  0.00    +0.148 A 
ENDROOT
BRANCH   4   7
ATOM      7  C   UNL     1      -1.736   1.614   0.229  0.00  0.00    +0.245 C 
ATOM      8  O   UNL     1      -2.647   0.813   0.141  0.00  0.00    -0.270 OA
ATOM      9  N   UNL     1      -2.005   2.925   0.387  0.00  0.00    -0.299 N 
ATOM     10  H   UNL     1      -1.182   3.650   0.467  0.00  0.00    +0.150 HD
BRANCH   9  11
ATOM     11  C   UNL     1      -3.395   3.385   0.452  0.00  0.00    +0.179 C 
ATOM     12  C   UNL     1      -3.908   3.258   1.888  0.00  0.00    +0.040 C 
BRANCH  11  13
ATOM     13  C   UNL     1      -3.467   4.827   0.019  0.00  0.00    +0.327 C 
ATOM     14  O   UNL     1      -2.462   5.410  -0.310  0.00  0.00    -0.249 OA
BRANCH  13  15
ATOM     15  O   UNL     1      -4.649   5.463  -0.001  0.00  0.00    -0.467 OA
ATOM     16  C   UNL     1      -4.644   6.851  -0.429  0.00  0.00    +0.280 C 
ENDBRANCH  13  15
ENDBRANCH  11  13
ENDBRANCH   9  11
ENDBRANCH   4   7
BRANCH   6  17
ATOM     17  N   UNL     1       1.548  -2.076  -0.238  0.00  0.00    +0.058 N 
ATOM     18  O   UNL     1       0.646  -2.894  -0.202  0.00  0.00    -0.126 OA
ATOM     19  O   UNL     1       2.695  -2.443  -0.417  0.00  0.00    -0.126 OA
ENDBRANCH   6  17
BRANCH   1  20
ATOM     20  N   UNL     1       3.610  -0.154  -0.037  0.00  0.00    -0.336 N 
ATOM     21  H   UNL     1       3.829  -1.209  -0.256  0.00  0.00    +0.147 HD
BRANCH  20  22
ATOM     22  C   UNL     1       4.706   0.792   0.185  0.00  0.00    +0.098 C 
ATOM     23  C   UNL     1       5.035   0.851   1.678  0.00  0.00    +0.033 C 
BRANCH  22  30
ATOM     24  C   UNL     1       6.674   2.725  -0.674  0.00  0.00    +0.044 C 
ATOM     25  C   UNL     1       6.864   1.264  -0.991  0.00  0.00    -0.046 A 
ATOM     26  C   UNL     1       7.982   0.848  -1.690  0.00  0.00    +0.004 A 
ATOM     27  C   UNL     1       8.154  -0.491  -1.985  0.00  0.00    +0.000 A 
ATOM     28  C   UNL     1       7.210  -1.415  -1.578  0.00  0.00    +0.000 A 
ATOM     29  C   UNL     1       6.094  -1.000  -0.876  0.00  0.00    +0.006 A 
ATOM     30  C   UNL     1       5.923   0.340  -0.580  0.00  0.00    -0.025 A 
ENDBRANCH  22  30
ENDBRANCH  20  22
ENDBRANCH   1  20
TORSDOF 8
