REMARK  Name = ZINC44166834
REMARK  7 active torsions:
REMARK  status: ('A' for Active; 'I' for Inactive)
REMARK    1  A    between atoms: C_1  and  C_2
REMARK    2  A    between atoms: C_3  and  C_13
REMARK    3  A    between atoms: C_5  and  C_7
REMARK    4  A    between atoms: C_18  and  C_21
REMARK    5  A    between atoms: N_23  and  C_24
REMARK    6  A    between atoms: C_24  and  C_26
REMARK    7  A    between atoms: C_24  and  C_27
REMARK                            x       y       z     vdW  Elec       q    Type
REMARK                         _______ _______ _______ _____ _____    ______ ____
ROOT
ATOM      1  C   UNL     1       1.658  -1.756  -5.399  0.00  0.00    -0.021 C 
ATOM      2  C   UNL     1       2.499  -0.616  -5.984  0.00  0.00    +0.058 C 
ATOM      3  S   UNL     1       1.508   0.910  -5.929  0.00  0.00    -0.163 S 
ATOM      4  C   UNL     1      -0.067   0.390  -6.679  0.00  0.00    +0.062 C 
ATOM      5  C   UNL     1      -0.524  -0.901  -5.989  0.00  0.00    +0.027 C 
ATOM      6  N   UNL     1       0.462  -1.961  -6.217  0.00  0.00    +0.393 N 
ATOM      7  H   UNL     1       0.724  -1.966  -7.191  0.00  0.00    -0.084 HD
ATOM      8  H   UNL     1       0.049  -2.851  -5.983  0.00  0.00    -0.084 HD
ENDROOT
BRANCH   1  11
ATOM      9  C   UNL     1       2.964  -3.086  -2.944  0.00  0.00    +0.066 C 
ATOM     10  C   UNL     1       3.074  -3.655  -4.335  0.00  0.00    +0.048 A 
ATOM     11  C   UNL     1       2.475  -3.022  -5.380  0.00  0.00    -0.000 A 
ATOM     12  S   UNL     1       2.926  -4.110  -6.727  0.00  0.00    -0.072 S 
ATOM     13  C   UNL     1       3.860  -5.285  -5.754  0.00  0.00    +0.128 A 
ATOM     14  N   UNL     1       3.751  -4.759  -4.541  0.00  0.00    -0.242 NA
BRANCH  13  15
ATOM     15  C   UNL     1       4.566  -6.509  -6.185  0.00  0.00    +0.114 A 
ATOM     16  C   UNL     1       5.238  -7.298  -5.249  0.00  0.00    +0.141 A 
ATOM     17  N   UNL     1       5.866  -8.390  -5.640  0.00  0.00    -0.260 NA
ATOM     18  C   UNL     1       5.860  -8.738  -6.916  0.00  0.00    +0.130 A 
ATOM     19  C   UNL     1       5.196  -7.959  -7.848  0.00  0.00    +0.131 A 
ATOM     20  N   UNL     1       4.559  -6.867  -7.467  0.00  0.00    -0.250 NA
ENDBRANCH  13  15
ENDBRANCH   1  11
BRANCH   5  21
ATOM     21  C   UNL     1      -1.854  -1.327  -6.554  0.00  0.00    +0.200 C 
ATOM     22  O   UNL     1      -1.966  -2.405  -7.098  0.00  0.00    -0.278 OA
ATOM     23  N   UNL     1      -2.921  -0.509  -6.456  0.00  0.00    -0.310 N 
ATOM     24  H   UNL     1      -2.832   0.354  -6.021  0.00  0.00    +0.149 HD
BRANCH  23  25
ATOM     25  C   UNL     1      -4.215  -0.922  -7.005  0.00  0.00    +0.101 C 
ATOM     26  C   UNL     1      -5.338  -0.184  -6.275  0.00  0.00    +0.033 C 
BRANCH  25  27
ATOM     27  C   UNL     1      -4.266  -0.589  -8.474  0.00  0.00    -0.020 A 
ATOM     28  C   UNL     1      -3.463   0.385  -8.983  0.00  0.00    +0.006 A 
ATOM     29  C   UNL     1      -3.497   0.707 -10.338  0.00  0.00    +0.001 A 
ATOM     30  C   UNL     1      -4.335   0.057 -11.193  0.00  0.00    +0.008 A 
ATOM     31  C   UNL     1      -5.178  -0.954 -10.704  0.00  0.00    -0.018 A 
ATOM     32  C   UNL     1      -5.139  -1.286  -9.326  0.00  0.00    -0.013 A 
ATOM     33  C   UNL     1      -5.979  -2.302  -8.838  0.00  0.00    +0.009 A 
ATOM     34  C   UNL     1      -6.812  -2.956  -9.693  0.00  0.00    +0.001 A 
ATOM     35  C   UNL     1      -6.845  -2.634 -11.049  0.00  0.00    +0.001 A 
ATOM     36  C   UNL     1      -6.056  -1.647 -11.555  0.00  0.00    +0.008 A 
ENDBRANCH  25  27
ENDBRANCH  23  25
ENDBRANCH   5  21
TORSDOF 5
