REMARK  Name = ZINC08834635
REMARK  10 active torsions:
REMARK  status: ('A' for Active; 'I' for Inactive)
REMARK    1  A    between atoms: C_1  and  C_2
REMARK    2  A    between atoms: C_2  and  C_3
REMARK    3  A    between atoms: C_6  and  S_9
REMARK    4  A    between atoms: S_9  and  N_12
REMARK    5  A    between atoms: N_12  and  C_13
REMARK    6  A    between atoms: C_15  and  S_24
REMARK    7  A    between atoms: C_16  and  O_23
REMARK    8  A    between atoms: S_24  and  C_25
REMARK    9  A    between atoms: C_25  and  C_27
REMARK   10  A    between atoms: C_25  and  C_28
REMARK                            x       y       z     vdW  Elec       q    Type
REMARK                         _______ _______ _______ _____ _____    ______ ____
ROOT
ATOM      1  C   UNL     1       1.831   0.241   3.716  0.00  0.00    +0.057 A 
ATOM      2  C   UNL     1       1.089   0.425   2.571  0.00  0.00    +0.043 A 
ATOM      3  C   UNL     1       0.594  -0.669   1.857  0.00  0.00    +0.052 A 
ATOM      4  C   UNL     1       0.849  -1.961   2.279  0.00  0.00    +0.138 A 
ATOM      5  C   UNL     1       1.608  -2.178   3.442  0.00  0.00    +0.026 A 
ATOM      6  C   UNL     1       2.105  -1.067   4.170  0.00  0.00    +0.008 A 
ATOM      7  C   UNL     1       2.864  -1.288   5.330  0.00  0.00    +0.010 A 
ATOM      8  C   UNL     1       3.112  -2.561   5.742  0.00  0.00    +0.001 A 
ATOM      9  C   UNL     1       2.624  -3.654   5.027  0.00  0.00    +0.001 A 
ATOM     10  C   UNL     1       1.885  -3.479   3.898  0.00  0.00    +0.012 A 
ENDROOT
BRANCH   1  11
ATOM     11  N   UNL     1       2.315   1.344   4.423  0.00  0.00    -0.216 N 
ATOM     12  H   UNL     1       3.182   1.300   4.857  0.00  0.00    +0.174 HD
BRANCH  11  13
ATOM     13  S   UNL     1       1.410   2.727   4.519  0.00  0.00    +0.072 S 
ATOM     14  O   UNL     1       2.097   3.601   5.405  0.00  0.00    -0.150 OA
ATOM     15  O   UNL     1       1.087   3.095   3.185  0.00  0.00    -0.150 OA
BRANCH  13  19
ATOM     16  C   UNL     1      -2.490   1.637   6.541  0.00  0.00    -0.048 A 
ATOM     17  C   UNL     1      -1.409   2.046   7.300  0.00  0.00    +0.005 A 
ATOM     18  C   UNL     1      -0.218   2.379   6.682  0.00  0.00    +0.029 A 
ATOM     19  C   UNL     1      -0.108   2.303   5.306  0.00  0.00    +0.109 A 
ATOM     20  C   UNL     1      -1.190   1.899   4.548  0.00  0.00    +0.029 A 
ATOM     21  C   UNL     1      -2.380   1.561   5.165  0.00  0.00    +0.005 A 
BRANCH  16  23
ATOM     22  C   UNL     1      -4.669   2.518   7.332  0.00  0.00    +0.009 C 
ATOM     23  C   UNL     1      -3.788   1.272   7.215  0.00  0.00    +0.032 C 
ENDBRANCH  16  23
ENDBRANCH  13  19
ENDBRANCH  11  13
ENDBRANCH   1  11
BRANCH   4  24
ATOM     24  O   UNL     1       0.365  -3.019   1.571  0.00  0.00    -0.505 OA
ATOM     25  H   UNL     1       0.964  -3.338   0.882  0.00  0.00    +0.292 HD
ENDBRANCH   4  24
BRANCH   3  26
ATOM     26  S   UNL     1      -0.357  -0.400   0.399  0.00  0.00    -0.107 S 
BRANCH  26  27
ATOM     27  C   UNL     1      -0.265   1.393   0.139  0.00  0.00    +0.161 C 
ATOM     28  C   UNL     1       1.153   1.773  -0.293  0.00  0.00    +0.031 C 
BRANCH  27  29
ATOM     29  C   UNL     1      -1.242   1.796  -0.935  0.00  0.00    +0.369 C 
ATOM     30  O   UNL     1      -1.659   0.970  -1.713  0.00  0.00    -0.245 OA
ATOM     31  O   UNL     1      -1.649   3.071  -1.028  0.00  0.00    -0.245 OA
ENDBRANCH  27  29
ENDBRANCH  26  27
ENDBRANCH   3  26
TORSDOF 8
