REMARK  Name = ZINC30823915
REMARK  6 active torsions:
REMARK  status: ('A' for Active; 'I' for Inactive)
REMARK    1  A    between atoms: C_1  and  C_2
REMARK    2  A    between atoms: C_2  and  C_3
REMARK    3  A    between atoms: C_3  and  C_5
REMARK    4  A    between atoms: C_3  and  O_17
REMARK    5  A    between atoms: C_8  and  C_10
REMARK    6  A    between atoms: O_17  and  C_18
REMARK                            x       y       z     vdW  Elec       q    Type
REMARK                         _______ _______ _______ _____ _____    ______ ____
ROOT
ATOM      1  C   UNL     1       3.723   5.595   0.203  0.00  0.00    +0.258 A 
ATOM      2  N   UNL     1       4.248   4.406   0.300  0.00  0.00    -0.108 NA
ATOM      3  N   UNL     1       3.313   3.533   0.439  0.00  0.00    -0.107 NA
ATOM      4  C   UNL     1       2.149   4.140   0.425  0.00  0.00    +0.250 A 
ATOM      5  O   UNL     1       2.388   5.459   0.280  0.00  0.00    -0.416 OA
ENDROOT
BRANCH   4   6
ATOM      6  C   UNL     1       0.824   3.498   0.553  0.00  0.00    +0.057 A 
ATOM      7  C   UNL     1       0.727   2.113   0.699  0.00  0.00    +0.015 A 
ATOM      8  C   UNL     1      -0.513   1.520   0.818  0.00  0.00    +0.001 A 
ATOM      9  C   UNL     1      -1.660   2.294   0.788  0.00  0.00    +0.001 A 
ATOM     10  C   UNL     1      -1.572   3.667   0.649  0.00  0.00    +0.021 A 
ATOM     11  C   UNL     1      -0.337   4.274   0.529  0.00  0.00    +0.053 A 
ATOM     12 CL   UNL     1      -0.228   5.997   0.347  0.00  0.00    -0.083 Cl
ENDBRANCH   4   6
BRANCH   1  13
ATOM     13  C   UNL     1       4.477   6.889   0.035  0.00  0.00    +0.260 C 
BRANCH  13  15
ATOM     14  C   UNL     1       5.647   8.365  -1.608  0.00  0.00    +0.008 C 
ATOM     15  C   UNL     1       4.990   6.998  -1.402  0.00  0.00    +0.051 C 
ENDBRANCH  13  15
BRANCH  13  16
ATOM     16  O   UNL     1       5.583   6.917   0.939  0.00  0.00    -0.479 OA
BRANCH  16  17
ATOM     17  C   UNL     1       5.928   8.126   1.456  0.00  0.00    +0.122 A 
ATOM     18  C   UNL     1       7.022   8.234   2.301  0.00  0.00    +0.045 A 
ATOM     19  C   UNL     1       7.373   9.464   2.821  0.00  0.00    +0.004 A 
ATOM     20  C   UNL     1       6.628  10.586   2.509  0.00  0.00    +0.000 A 
ATOM     21  C   UNL     1       5.533  10.480   1.671  0.00  0.00    +0.004 A 
ATOM     22  C   UNL     1       5.181   9.253   1.144  0.00  0.00    +0.045 A 
ENDBRANCH  16  17
ENDBRANCH  13  16
ENDBRANCH   1  13
TORSDOF 5
