REMARK  Name = ZINC36558708
REMARK  11 active torsions:
REMARK  status: ('A' for Active; 'I' for Inactive)
REMARK    1  A    between atoms: C_1  and  C_2
REMARK    2  A    between atoms: C_2  and  C_3
REMARK    3  A    between atoms: C_3  and  C_5
REMARK    4  A    between atoms: C_3  and  C_11
REMARK    5  A    between atoms: N_13  and  C_14
REMARK    6  A    between atoms: N_13  and  C_21
REMARK    7  A    between atoms: C_14  and  C_15
REMARK    8  A    between atoms: C_18  and  C_20
REMARK    9  A    between atoms: C_21  and  C_23
REMARK   10  A    between atoms: C_21  and  C_32
REMARK   11  A    between atoms: N_34  and  C_35
REMARK                            x       y       z     vdW  Elec       q    Type
REMARK                         _______ _______ _______ _____ _____    ______ ____
ROOT
ATOM      1  C   UNL     1      -1.315  -4.530   1.072  0.00  0.00    +0.193 C 
ENDROOT
BRANCH   1   2
ATOM      2  C   UNL     1      -2.619  -4.845   1.761  0.00  0.00    -0.015 A 
ATOM      3  C   UNL     1      -2.986  -4.145   2.895  0.00  0.00    +0.010 A 
ATOM      4  C   UNL     1      -4.181  -4.430   3.530  0.00  0.00    +0.050 A 
ATOM      5  C   UNL     1      -5.013  -5.419   3.030  0.00  0.00    +0.166 A 
ATOM      6  C   UNL     1      -4.643  -6.124   1.887  0.00  0.00    +0.167 A 
ATOM      7  C   UNL     1      -3.447  -5.829   1.253  0.00  0.00    +0.055 A 
ATOM      8  O   UNL     1      -5.619  -7.033   1.600  0.00  0.00    -0.453 OA
ATOM      9  C   UNL     1      -6.394  -7.159   2.807  0.00  0.00    +0.466 C 
ATOM     10  O   UNL     1      -6.221  -5.887   3.458  0.00  0.00    -0.453 OA
ENDBRANCH   1   2
BRANCH   1  11
ATOM     11  C   UNL     1      -0.307  -4.069   2.093  0.00  0.00    +0.238 C 
ATOM     12  O   UNL     1       0.185  -2.965   2.003  0.00  0.00    -0.273 OA
ATOM     13  N   UNL     1       0.048  -4.885   3.105  0.00  0.00    -0.311 N 
ATOM     14  H   UNL     1      -0.345  -5.769   3.177  0.00  0.00    +0.149 HD
BRANCH  13  15
ATOM     15  C   UNL     1       1.029  -4.437   4.097  0.00  0.00    +0.073 C 
ATOM     16  C   UNL     1       2.442  -4.709   3.577  0.00  0.00    +0.022 C 
ATOM     17  C   UNL     1       3.466  -4.242   4.613  0.00  0.00    +0.002 C 
ATOM     18  C   UNL     1       3.250  -5.002   5.923  0.00  0.00    +0.000 C 
ATOM     19  C   UNL     1       1.837  -4.730   6.443  0.00  0.00    +0.002 C 
ATOM     20  C   UNL     1       0.813  -5.198   5.407  0.00  0.00    +0.022 C 
ENDBRANCH  13  15
ENDBRANCH   1  11
BRANCH   1  23
ATOM     21  C   UNL     1      -1.320  -3.717  -1.225  0.00  0.00    +0.224 C 
ATOM     22  O   UNL     1      -1.003  -4.830  -1.589  0.00  0.00    -0.275 OA
ATOM     23  N   UNL     1      -1.529  -3.470   0.084  0.00  0.00    -0.278 N 
BRANCH  21  24
ATOM     24  C   UNL     1      -1.481  -2.611  -2.235  0.00  0.00    +0.105 C 
BRANCH  24  25
ATOM     25  C   UNL     1      -2.088  -3.168  -3.497  0.00  0.00    -0.036 A 
ATOM     26  C   UNL     1      -1.438  -4.170  -4.193  0.00  0.00    +0.004 A 
ATOM     27  C   UNL     1      -1.994  -4.681  -5.351  0.00  0.00    +0.000 A 
ATOM     28  C   UNL     1      -3.201  -4.190  -5.813  0.00  0.00    +0.000 A 
ATOM     29  C   UNL     1      -3.852  -3.188  -5.117  0.00  0.00    +0.000 A 
ATOM     30  C   UNL     1      -3.297  -2.680  -3.956  0.00  0.00    +0.004 A 
ENDBRANCH  24  25
BRANCH  24  32
ATOM     31  C   UNL     1      -0.289  -0.796  -3.472  0.00  0.00    +0.005 C 
ATOM     32  C   UNL     1      -0.112  -2.006  -2.551  0.00  0.00    +0.014 C 
ENDBRANCH  24  32
ENDBRANCH  21  24
BRANCH  23  33
ATOM     33  C   UNL     1      -1.970  -2.142   0.517  0.00  0.00    +0.183 C 
BRANCH  33  34
ATOM     34  C   UNL     1      -3.475  -2.079   0.492  0.00  0.00    +0.122 A 
ATOM     35  C   UNL     1      -4.288  -2.285   1.544  0.00  0.00    +0.046 A 
ATOM     36  C   UNL     1      -5.613  -2.129   1.074  0.00  0.00    +0.045 A 
ATOM     37  C   UNL     1      -5.529  -1.836  -0.236  0.00  0.00    +0.102 A 
ATOM     38  O   UNL     1      -4.232  -1.802  -0.582  0.00  0.00    -0.463 OA
ATOM     39  C   UNL     1      -6.694  -1.585  -1.159  0.00  0.00    +0.086 C 
ENDBRANCH  33  34
ENDBRANCH  23  33
ENDBRANCH   1  23
TORSDOF 9
