REMARK  Name = ZINC13041757
REMARK  13 active torsions:
REMARK  status: ('A' for Active; 'I' for Inactive)
REMARK    1  A    between atoms: C_1  and  C_2
REMARK    2  A    between atoms: C_2  and  C_3
REMARK    3  A    between atoms: C_3  and  C_4
REMARK    4  A    between atoms: C_4  and  C_32
REMARK    5  A    between atoms: N_7  and  C_11
REMARK    6  A    between atoms: C_11  and  C_12
REMARK    7  A    between atoms: N_14  and  C_15
REMARK    8  A    between atoms: C_17  and  S_23
REMARK    9  A    between atoms: C_20  and  O_21
REMARK   10  A    between atoms: O_21  and  C_22
REMARK   11  A    between atoms: S_23  and  N_26
REMARK   12  A    between atoms: C_32  and  C_33
REMARK   13  A    between atoms: C_33  and  C_34
REMARK                            x       y       z     vdW  Elec       q    Type
REMARK                         _______ _______ _______ _____ _____    ______ ____
ROOT
ATOM      1  C   UNL     1       6.586   1.331  -2.113  0.00  0.00    +0.235 C 
ATOM      2  O   UNL     1       6.200   1.602  -0.995  0.00  0.00    -0.274 OA
ATOM      3  N   UNL     1       6.218   0.169  -2.689  0.00  0.00    -0.281 N 
ATOM      4  H   UNL     1       6.590  -0.085  -3.548  0.00  0.00    +0.155 HD
ENDROOT
BRANCH   3   5
ATOM      5  C   UNL     1       5.300  -0.672  -2.046  0.00  0.00    +0.077 A 
ATOM      6  C   UNL     1       4.395  -0.146  -1.135  0.00  0.00    +0.055 A 
ATOM      7  C   UNL     1       3.490  -0.977  -0.503  0.00  0.00    +0.107 A 
ATOM      8  C   UNL     1       3.486  -2.334  -0.772  0.00  0.00    +0.032 A 
ATOM      9  C   UNL     1       4.381  -2.864  -1.683  0.00  0.00    +0.049 A 
ATOM     10  C   UNL     1       5.292  -2.037  -2.321  0.00  0.00    +0.141 A 
BRANCH   7  11
ATOM     11  S   UNL     1       2.342  -0.308   0.654  0.00  0.00    +0.061 S 
ATOM     12  O   UNL     1       2.913   0.898   1.142  0.00  0.00    -0.153 OA
ATOM     13  O   UNL     1       1.964  -1.374   1.515  0.00  0.00    -0.153 OA
BRANCH  11  14
ATOM     14  N   UNL     1       0.985   0.119  -0.193  0.00  0.00    -0.177 NA
ATOM     15  C   UNL     1      -0.110  -0.841  -0.387  0.00  0.00    +0.109 C 
ATOM     16  C   UNL     1      -0.417  -0.942  -1.885  0.00  0.00    +0.017 C 
ATOM     17  C   UNL     1      -0.701   0.456  -2.439  0.00  0.00    +0.003 C 
ATOM     18  C   UNL     1       0.535   1.339  -2.258  0.00  0.00    +0.017 C 
ATOM     19  C   UNL     1       0.853   1.466  -0.765  0.00  0.00    +0.109 C 
ENDBRANCH  11  14
ENDBRANCH   7  11
BRANCH  10  20
ATOM     20  O   UNL     1       6.176  -2.558  -3.214  0.00  0.00    -0.493 OA
ATOM     21  C   UNL     1       6.109  -3.966  -3.446  0.00  0.00    +0.277 C 
ENDBRANCH  10  20
ENDBRANCH   3   5
BRANCH   1  22
ATOM     22  C   UNL     1       7.476   2.292  -2.857  0.00  0.00    +0.214 C 
BRANCH  22  26
ATOM     23  C   UNL     1       7.595   5.518  -1.019  0.00  0.00    +0.113 C 
ATOM     24  C   UNL     1       6.962   4.579  -2.027  0.00  0.00    +0.247 C 
ATOM     25  O   UNL     1       5.972   4.782  -2.696  0.00  0.00    -0.273 OA
ATOM     26  N   UNL     1       7.728   3.470  -2.023  0.00  0.00    -0.215 N 
ATOM     27  C   UNL     1       8.751   3.580  -1.167  0.00  0.00    +0.310 C 
ATOM     28  O   UNL     1       9.581   2.709  -0.991  0.00  0.00    -0.252 OA
ATOM     29  N   UNL     1       8.757   4.761  -0.523  0.00  0.00    -0.285 N 
ATOM     30  H   UNL     1       9.402   5.056   0.139  0.00  0.00    +0.151 HD
BRANCH  23  31
ATOM     31  C   UNL     1       6.624   5.822   0.123  0.00  0.00    +0.035 C 
BRANCH  31  33
ATOM     32  C   UNL     1       5.274   4.825   1.973  0.00  0.00    +0.004 C 
ATOM     33  C   UNL     1       6.245   4.520   0.831  0.00  0.00    -0.001 C 
ENDBRANCH  31  33
ENDBRANCH  23  31
BRANCH  23  34
ATOM     34  C   UNL     1       8.046   6.810  -1.703  0.00  0.00    +0.035 C 
BRANCH  34  35
ATOM     35  C   UNL     1       8.971   6.471  -2.874  0.00  0.00    -0.001 C 
ATOM     36  C   UNL     1       9.422   7.763  -3.558  0.00  0.00    +0.004 C 
ENDBRANCH  34  35
ENDBRANCH  23  34
ENDBRANCH  22  26
ENDBRANCH   1  22
TORSDOF 10
