REMARK  Name = ZINC14980096
REMARK  8 active torsions:
REMARK  status: ('A' for Active; 'I' for Inactive)
REMARK    1  A    between atoms: C_1  and  C_2
REMARK    2  A    between atoms: C_2  and  C_30
REMARK    3  A    between atoms: C_3  and  C_4
REMARK    4  A    between atoms: N_6  and  C_7
REMARK    5  A    between atoms: N_6  and  C_14
REMARK    6  A    between atoms: C_7  and  C_8
REMARK    7  A    between atoms: C_14  and  C_15
REMARK    8  A    between atoms: N_18  and  C_21
REMARK                            x       y       z     vdW  Elec       q    Type
REMARK                         _______ _______ _______ _____ _____    ______ ____
ROOT
ATOM      1  C   UNL     1       3.090  -2.576   2.339  0.00  0.00    +0.003 C 
ATOM      2  C   UNL     1       4.342  -2.142   3.106  0.00  0.00    -0.014 C 
ATOM      3  C   UNL     1       5.582  -2.704   2.407  0.00  0.00    -0.078 C 
ATOM      4  N   UNL     1       5.509  -4.169   2.377  0.00  0.00    +0.382 N 
ATOM      5  C   UNL     1       4.351  -4.594   1.583  0.00  0.00    -0.078 C 
ATOM      6  C   UNL     1       3.063  -4.105   2.249  0.00  0.00    -0.014 C 
ATOM      7  H   UNL     1       5.417  -4.520   3.319  0.00  0.00    -0.081 HD
ENDROOT
BRANCH   4   8
ATOM      8  C   UNL     1       6.737  -4.707   1.776  0.00  0.00    -0.060 C 
ATOM      9  C   UNL     1       7.969  -4.357   2.637  0.00  0.00    +0.020 C 
ATOM     10  C   UNL     1       8.139  -5.529   3.580  0.00  0.00    -0.046 A 
ATOM     11  C   UNL     1       8.857  -5.635   4.759  0.00  0.00    +0.004 A 
ATOM     12  C   UNL     1       8.868  -6.824   5.462  0.00  0.00    +0.000 A 
ATOM     13  C   UNL     1       8.159  -7.912   4.987  0.00  0.00    +0.000 A 
ATOM     14  C   UNL     1       7.442  -7.808   3.812  0.00  0.00    +0.004 A 
ATOM     15  C   UNL     1       7.431  -6.617   3.105  0.00  0.00    -0.046 A 
ATOM     16  C   UNL     1       6.736  -6.250   1.812  0.00  0.00    +0.020 C 
ENDBRANCH   4   8
BRANCH   1  17
ATOM     17  C   UNL     1       1.842  -2.085   3.076  0.00  0.00    +0.111 C 
BRANCH  17  20
ATOM     18  C   UNL     1       1.192   0.026   2.047  0.00  0.00    +0.239 C 
ATOM     19  O   UNL     1       1.164   1.242   2.031  0.00  0.00    -0.271 OA
ATOM     20  N   UNL     1       1.809  -0.621   3.056  0.00  0.00    -0.295 N 
BRANCH  18  23
ATOM     21  C   UNL     1      -0.090   1.406  -0.050  0.00  0.00    +0.039 C 
ATOM     22  C   UNL     1      -0.056  -0.101  -0.030  0.00  0.00    -0.071 C 
ATOM     23  C   UNL     1       0.553  -0.739   0.966  0.00  0.00    +0.066 C 
ATOM     24  C   UNL     1      -0.711  -0.884  -1.138  0.00  0.00    +0.039 C 
ENDBRANCH  18  23
BRANCH  20  25
ATOM     25  C   UNL     1       2.446   0.141   4.133  0.00  0.00    +0.139 C 
BRANCH  25  26
ATOM     26  C   UNL     1       1.432   0.388   5.252  0.00  0.00    +0.136 C 
ATOM     27  C   UNL     1       2.057   1.292   6.336  0.00  0.00    +0.035 C 
ATOM     28  C   UNL     1       1.510   0.663   7.646  0.00  0.00    +0.031 C 
ATOM     29  C   UNL     1       1.468  -0.837   7.257  0.00  0.00    +0.160 C 
ATOM     30  O   UNL     1       1.080  -0.855   5.872  0.00  0.00    -0.375 OA
ENDBRANCH  25  26
ENDBRANCH  20  25
ENDBRANCH  17  20
ENDBRANCH   1  17
TORSDOF 6
