REMARK  Name = ZINC63234610
REMARK  9 active torsions:
REMARK  status: ('A' for Active; 'I' for Inactive)
REMARK    1  A    between atoms: C_1  and  C_2
REMARK    2  A    between atoms: C_6  and  N_8
REMARK    3  A    between atoms: C_9  and  C_29
REMARK    4  A    between atoms: C_12  and  S_13
REMARK    5  A    between atoms: S_13  and  C_14
REMARK    6  A    between atoms: C_14  and  C_15
REMARK    7  A    between atoms: C_18  and  N_28
REMARK    8  A    between atoms: N_20  and  C_27
REMARK    9  A    between atoms: N_23  and  C_26
REMARK                            x       y       z     vdW  Elec       q    Type
REMARK                         _______ _______ _______ _____ _____    ______ ____
ROOT
ATOM      1  N   UNL     1      -0.131  -3.490   3.357  0.00  0.00    -0.270 N 
ATOM      2  C   UNL     1      -0.869  -4.459   4.018  0.00  0.00    +0.168 A 
ATOM      3  N   UNL     1      -0.159  -4.832   5.073  0.00  0.00    -0.128 NA
ATOM      4  N   UNL     1       0.945  -4.174   5.109  0.00  0.00    -0.122 NA
ATOM      5  C   UNL     1       1.015  -3.344   4.080  0.00  0.00    +0.197 A 
ENDROOT
BRANCH   2   6
ATOM      6  C   UNL     1      -2.128  -4.952   3.642  0.00  0.00    +0.025 C 
ATOM      7  C   UNL     1      -2.885  -5.921   4.300  0.00  0.00    +0.006 A 
ATOM      8  C   UNL     1      -2.658  -6.675   5.471  0.00  0.00    +0.010 A 
ATOM      9  C   UNL     1      -3.591  -7.570   5.888  0.00  0.00    +0.001 A 
ATOM     10  C   UNL     1      -4.780  -7.768   5.183  0.00  0.00    +0.002 A 
ATOM     11  C   UNL     1      -5.064  -7.079   4.050  0.00  0.00    +0.026 A 
ATOM     12  C   UNL     1      -4.138  -6.126   3.554  0.00  0.00    +0.043 A 
ATOM     13  N   UNL     1      -4.176  -5.341   2.494  0.00  0.00    -0.380 N 
ATOM     14  C   UNL     1      -2.952  -4.537   2.443  0.00  0.00    +0.152 C 
ATOM     15  H   UNL     1      -4.902  -5.301   1.853  0.00  0.00    +0.160 HD
ENDBRANCH   2   6
BRANCH   1  21
ATOM     16  C   UNL     1      -1.285   0.722   1.096  0.00  0.00    +0.044 C 
ATOM     17  C   UNL     1      -1.052  -0.767   1.062  0.00  0.00    -0.048 A 
ATOM     18  C   UNL     1      -1.190  -1.461  -0.126  0.00  0.00    +0.003 A 
ATOM     19  C   UNL     1      -0.976  -2.826  -0.161  0.00  0.00    +0.002 A 
ATOM     20  C   UNL     1      -0.626  -3.502   0.992  0.00  0.00    +0.026 A 
ATOM     21  C   UNL     1      -0.487  -2.808   2.186  0.00  0.00    +0.051 A 
ATOM     22  C   UNL     1      -0.696  -1.435   2.217  0.00  0.00    +0.029 A 
ENDBRANCH   1  21
BRANCH   5  23
ATOM     23  S   UNL     1       2.345  -2.247   3.713  0.00  0.00    -0.078 S 
BRANCH  23  24
ATOM     24  C   UNL     1       3.538  -2.543   5.048  0.00  0.00    +0.157 C 
BRANCH  24  25
ATOM     25  C   UNL     1       4.740  -1.656   4.853  0.00  0.00    +0.177 C 
ATOM     26  O   UNL     1       5.679  -1.984   3.942  0.00  0.00    -0.291 OA
ATOM     27  C   UNL     1       4.878  -0.538   5.588  0.00  0.00    +0.093 C 
ATOM     28  C   UNL     1       6.167   0.263   5.579  0.00  0.00    +0.182 C 
ATOM     29  N   UNL     1       6.200   1.469   6.423  0.00  0.00    -0.268 N 
ATOM     30  C   UNL     1       5.109   1.791   7.142  0.00  0.00    +0.312 C 
ATOM     31  O   UNL     1       5.146   2.788   7.835  0.00  0.00    -0.252 OA
ATOM     32  N   UNL     1       3.986   1.065   7.130  0.00  0.00    -0.225 N 
ATOM     33  C   UNL     1       3.820  -0.050   6.403  0.00  0.00    +0.256 C 
ATOM     34  O   UNL     1       2.762  -0.650   6.445  0.00  0.00    -0.270 OA
ATOM     35  C   UNL     1       2.865   1.520   7.957  0.00  0.00    +0.143 C 
ATOM     36  C   UNL     1       7.401   2.305   6.479  0.00  0.00    +0.135 C 
BRANCH  28  37
ATOM     37  N   UNL     1       7.255  -0.624   6.012  0.00  0.00    -0.309 NA
ATOM     38  H   UNL     1       8.137  -0.134   6.022  0.00  0.00    +0.120 HD
ATOM     39  H   UNL     1       7.055  -1.028   6.914  0.00  0.00    +0.120 HD
ENDBRANCH  28  37
ENDBRANCH  24  25
ENDBRANCH  23  24
ENDBRANCH   5  23
TORSDOF 6
