REMARK  Name = ZINC39683321
REMARK  14 active torsions:
REMARK  status: ('A' for Active; 'I' for Inactive)
REMARK    1  A    between atoms: C_1  and  C_2
REMARK    2  A    between atoms: C_2  and  C_3
REMARK    3  A    between atoms: C_2  and  C_4
REMARK    4  A    between atoms: C_4  and  O_5
REMARK    5  A    between atoms: O_5  and  C_6
REMARK    6  A    between atoms: C_6  and  C_7
REMARK    7  A    between atoms: C_7  and  C_8
REMARK    8  A    between atoms: C_8  and  N_9
REMARK    9  A    between atoms: C_10  and  C_12
REMARK   10  A    between atoms: C_23  and  C_25
REMARK   11  A    between atoms: C_27  and  O_33
REMARK   12  A    between atoms: C_30  and  O_31
REMARK   13  A    between atoms: O_31  and  C_32
REMARK   14  A    between atoms: O_33  and  C_34
REMARK                            x       y       z     vdW  Elec       q    Type
REMARK                         _______ _______ _______ _____ _____    ______ ____
ROOT
ATOM      1  C   UNL     1      -4.793  -8.434  -0.550  0.00  0.00    +0.100 C 
ATOM      2  C   UNL     1      -4.263  -8.802  -1.954  0.00  0.00    +0.121 C 
ATOM      3  N   UNL     1      -4.984 -10.046  -2.312  0.00  0.00    -0.296 N 
ATOM      4  C   UNL     1      -6.362  -9.832  -1.807  0.00  0.00    +0.115 C 
ATOM      5  C   UNL     1      -6.170  -9.112  -0.457  0.00  0.00    -0.004 C 
ATOM      6  C   UNL     1      -7.262  -8.065  -0.260  0.00  0.00    -0.010 C 
ATOM      7  C   UNL     1      -8.615  -8.766  -0.112  0.00  0.00    -0.082 C 
ATOM      8  N   UNL     1      -8.572  -9.680   1.036  0.00  0.00    +0.379 N 
ATOM      9  C   UNL     1      -7.584 -10.738   0.796  0.00  0.00    -0.082 C 
ATOM     10  C   UNL     1      -6.188 -10.120   0.687  0.00  0.00    -0.010 C 
ATOM     11  C   UNL     1      -4.498 -11.127  -2.953  0.00  0.00    +0.250 C 
ATOM     12  O   UNL     1      -3.313 -11.193  -3.220  0.00  0.00    -0.270 OA
ATOM     13  H   UNL     1      -8.317  -9.165   1.865  0.00  0.00    -0.086 HD
ATOM     14  H   UNL     1      -9.483 -10.095   1.168  0.00  0.00    -0.086 HD
ENDROOT
BRANCH  11  15
ATOM     15  C   UNL     1      -5.402 -12.230  -3.329  0.00  0.00    +0.082 A 
ATOM     16  C   UNL     1      -6.715 -11.959  -3.721  0.00  0.00    +0.062 A 
ATOM     17  C   UNL     1      -7.557 -12.998  -4.072  0.00  0.00    +0.121 A 
ATOM     18  C   UNL     1      -7.100 -14.310  -4.037  0.00  0.00    +0.049 A 
ATOM     19  C   UNL     1      -5.804 -14.587  -3.651  0.00  0.00    +0.050 A 
ATOM     20  C   UNL     1      -4.946 -13.555  -3.301  0.00  0.00    +0.132 A 
BRANCH  20  21
ATOM     21  O   UNL     1      -3.670 -13.828  -2.927  0.00  0.00    -0.494 OA
ATOM     22  C   UNL     1      -3.275 -15.201  -2.923  0.00  0.00    +0.277 C 
ENDBRANCH  20  21
BRANCH  17  23
ATOM     23  O   UNL     1      -8.836 -12.735  -4.454  0.00  0.00    -0.495 OA
ATOM     24  C   UNL     1      -9.651 -13.855  -4.804  0.00  0.00    +0.277 C 
ENDBRANCH  17  23
ENDBRANCH  11  15
BRANCH   1  26
ATOM     25  N   UNL     1      -4.972  -6.373   0.806  0.00  0.00    -0.315 N 
ATOM     26  C   UNL     1      -4.933  -6.940  -0.416  0.00  0.00    +0.218 C 
ATOM     27  O   UNL     1      -5.012  -6.247  -1.409  0.00  0.00    -0.275 OA
ATOM     28  H   UNL     1      -4.909  -6.927   1.600  0.00  0.00    +0.149 HD
BRANCH  25  29
ATOM     29  C   UNL     1      -5.108  -4.920   0.935  0.00  0.00    +0.106 C 
BRANCH  29  30
ATOM     30  C   UNL     1      -5.125  -4.540   2.417  0.00  0.00    +0.047 C 
BRANCH  30  31
ATOM     31  C   UNL     1      -5.268  -3.022   2.553  0.00  0.00    +0.161 C 
BRANCH  31  32
ATOM     32  O   UNL     1      -5.284  -2.667   3.937  0.00  0.00    -0.379 OA
BRANCH  32  33
ATOM     33  C   UNL     1      -5.415  -1.264   4.175  0.00  0.00    +0.162 C 
BRANCH  33  35
ATOM     34  C   UNL     1      -5.434   0.507   5.937  0.00  0.00    +0.009 C 
ATOM     35  C   UNL     1      -5.420  -1.001   5.683  0.00  0.00    +0.009 C 
ATOM     36  C   UNL     1      -6.666  -1.635   6.306  0.00  0.00    +0.009 C 
ENDBRANCH  33  35
ENDBRANCH  32  33
ENDBRANCH  31  32
ENDBRANCH  30  31
ENDBRANCH  29  30
ENDBRANCH  25  29
ENDBRANCH   1  26
TORSDOF 10
