REMARK  Name = ZINC36613783
REMARK  6 active torsions:
REMARK  status: ('A' for Active; 'I' for Inactive)
REMARK    1  A    between atoms: C_1  and  C_2
REMARK    2  A    between atoms: C_2  and  N_3
REMARK    3  A    between atoms: C_4  and  C_8
REMARK    4  A    between atoms: C_8  and  N_9
REMARK    5  A    between atoms: C_12  and  C_19
REMARK    6  A    between atoms: C_14  and  C_16
REMARK                            x       y       z     vdW  Elec       q    Type
REMARK                         _______ _______ _______ _____ _____    ______ ____
ROOT
ATOM      1  N   UNL     1      -0.937  -1.829   2.962  0.00  0.00    -0.308 N 
ATOM      2  C   UNL     1      -0.429  -1.915   4.246  0.00  0.00    +0.216 A 
ATOM      3  N   UNL     1       0.230  -3.005   4.607  0.00  0.00    -0.214 NA
ATOM      4  C   UNL     1       0.731  -3.118   5.835  0.00  0.00    +0.076 A 
ATOM      5  C   UNL     1       0.551  -2.068   6.740  0.00  0.00    +0.057 A 
ATOM      6  C   UNL     1      -0.144  -0.948   6.320  0.00  0.00    +0.112 A 
ATOM      7  N   UNL     1      -0.610  -0.902   5.081  0.00  0.00    -0.214 NA
ATOM      8  H   UNL     1      -0.812  -2.563   2.340  0.00  0.00    +0.149 HD
ENDROOT
BRANCH   4   9
ATOM      9  C   UNL     1       1.468  -4.340   6.238  0.00  0.00    +0.001 A 
ATOM     10  C   UNL     1       1.984  -4.453   7.528  0.00  0.00    +0.011 A 
ATOM     11  C   UNL     1       2.669  -5.592   7.897  0.00  0.00    +0.016 A 
ATOM     12  C   UNL     1       2.844  -6.622   6.989  0.00  0.00    +0.018 A 
ATOM     13  C   UNL     1       2.334  -6.515   5.707  0.00  0.00    +0.016 A 
ATOM     14  C   UNL     1       1.643  -5.383   5.329  0.00  0.00    +0.011 A 
ATOM     15 BR   UNL     1       3.784  -8.181   7.503  0.00  0.00    -0.050 Br
ENDBRANCH   4   9
BRANCH   6  16
ATOM     16  C   UNL     1      -0.364   0.209   7.260  0.00  0.00    +0.390 C 
ATOM     17  F   UNL     1      -1.563   0.852   6.936  0.00  0.00    -0.202 F 
ATOM     18  F   UNL     1      -0.428  -0.264   8.575  0.00  0.00    -0.202 F 
ENDBRANCH   6  16
BRANCH   1  19
ATOM     19  C   UNL     1      -1.664  -0.628   2.541  0.00  0.00    +0.159 C 
BRANCH  19  21
ATOM     20  N   UNL     1      -1.372  -0.511   0.012  0.00  0.00    -0.267 N 
ATOM     21  C   UNL     1      -2.109  -0.787   1.109  0.00  0.00    +0.056 A 
ATOM     22  C   UNL     1      -3.317  -1.231   0.694  0.00  0.00    +0.046 A 
ATOM     23  C   UNL     1      -3.320  -1.227  -0.705  0.00  0.00    +0.134 A 
ATOM     24  N   UNL     1      -2.156  -0.790  -1.114  0.00  0.00    -0.179 NA
BRANCH  20  26
ATOM     25  C   UNL     1      -0.019   1.526   0.010  0.00  0.00    +0.029 C 
ATOM     26  C   UNL     1       0.002  -0.004   0.002  0.00  0.00    +0.140 C 
ENDBRANCH  20  26
ENDBRANCH  19  21
ENDBRANCH   1  19
TORSDOF 5
