REMARK  Name = ZINC09361479
REMARK  10 active torsions:
REMARK  status: ('A' for Active; 'I' for Inactive)
REMARK    1  A    between atoms: C_3  and  S_8
REMARK    2  A    between atoms: S_8  and  N_11
REMARK    3  A    between atoms: N_11  and  C_12
REMARK    4  A    between atoms: C_12  and  C_13
REMARK    5  A    between atoms: C_13  and  C_14
REMARK    6  A    between atoms: C_14  and  O_16
REMARK    7  A    between atoms: O_16  and  C_17
REMARK    8  A    between atoms: C_17  and  C_18
REMARK    9  A    between atoms: N_20  and  C_21
REMARK   10  A    between atoms: C_22  and  C_31
REMARK                            x       y       z     vdW  Elec       q    Type
REMARK                         _______ _______ _______ _____ _____    ______ ____
ROOT
ATOM      1  O   UNL     1      -0.715   1.567  -1.168  0.00  0.00    -0.455 OA
ENDROOT
BRANCH   1   2
ATOM      2  C   UNL     1      -0.211   1.220  -2.363  0.00  0.00    +0.309 C 
ATOM      3  O   UNL     1       0.783   0.536  -2.424  0.00  0.00    -0.251 OA
BRANCH   2   4
ATOM      4  C   UNL     1      -0.887   1.682  -3.629  0.00  0.00    +0.137 C 
BRANCH   4   5
ATOM      5  C   UNL     1      -0.117   1.152  -4.840  0.00  0.00    +0.117 C 
BRANCH   5   6
ATOM      6  N   UNL     1      -0.774   1.601  -6.070  0.00  0.00    -0.189 NA
ATOM      7  H   UNL     1      -1.675   1.957  -6.037  0.00  0.00    +0.148 HD
BRANCH   6   8
ATOM      8  S   UNL     1       0.024   1.502  -7.518  0.00  0.00    +0.058 S 
ATOM      9  O   UNL     1      -0.873   1.982  -8.510  0.00  0.00    -0.153 OA
ATOM     10  O   UNL     1       1.309   2.072  -7.314  0.00  0.00    -0.153 OA
BRANCH   8  13
ATOM     11  C   UNL     1       1.631  -2.178  -7.679  0.00  0.00    +0.003 A 
ATOM     12  C   UNL     1       1.432  -0.834  -7.418  0.00  0.00    +0.028 A 
ATOM     13  C   UNL     1       0.280  -0.208  -7.856  0.00  0.00    +0.107 A 
ATOM     14  C   UNL     1      -0.669  -0.922  -8.563  0.00  0.00    +0.048 A 
ATOM     15  C   UNL     1      -0.468  -2.265  -8.829  0.00  0.00    +0.043 A 
ATOM     16  C   UNL     1       0.683  -2.893  -8.386  0.00  0.00    +0.020 A 
ATOM     17 CL   UNL     1      -1.659  -3.162  -9.718  0.00  0.00    -0.083 Cl
ENDBRANCH   8  13
ENDBRANCH   6   8
ENDBRANCH   5   6
ENDBRANCH   4   5
ENDBRANCH   2   4
ENDBRANCH   1   2
BRANCH   1  18
ATOM     18  C   UNL     1      -0.013   1.086   0.008  0.00  0.00    +0.328 C 
BRANCH  18  19
ATOM     19  C   UNL     1      -0.718   1.572   1.248  0.00  0.00    +0.255 C 
ATOM     20  O   UNL     1      -1.715   2.256   1.150  0.00  0.00    -0.272 OA
ATOM     21  N   UNL     1      -0.242   1.246   2.466  0.00  0.00    -0.276 N 
ATOM     22  H   UNL     1       0.555   0.699   2.544  0.00  0.00    +0.155 HD
BRANCH  21  23
ATOM     23  C   UNL     1      -0.891   1.694   3.608  0.00  0.00    +0.090 A 
ATOM     24  C   UNL     1      -0.561   1.462   4.933  0.00  0.00    +0.084 A 
ATOM     25  C   UNL     1      -1.409   2.055   5.957  0.00  0.00    -0.018 A 
ATOM     26  C   UNL     1      -2.456   2.768   5.486  0.00  0.00    -0.004 A 
ATOM     27  S   UNL     1      -2.316   2.672   3.722  0.00  0.00    -0.077 S 
ATOM     28  C   UNL     1      -3.513   3.473   6.278  0.00  0.00    +0.043 C 
ATOM     29  C   UNL     1      -2.847   4.325   7.367  0.00  0.00    +0.005 C 
ATOM     30  C   UNL     1      -2.687   3.468   8.619  0.00  0.00    +0.001 C 
ATOM     31  C   UNL     1      -2.437   2.012   8.231  0.00  0.00    +0.005 C 
ATOM     32  C   UNL     1      -1.136   1.886   7.446  0.00  0.00    +0.037 C 
BRANCH  24  33
ATOM     33  C   UNL     1       0.578   0.668   5.284  0.00  0.00    +0.102 C 
ATOM     34  N   UNL     1       1.481   0.038   5.562  0.00  0.00    -0.191 NA
ENDBRANCH  24  33
ENDBRANCH  21  23
ENDBRANCH  18  19
ENDBRANCH   1  18
TORSDOF 10
