REMARK  Name = ZINC09646890
REMARK  10 active torsions:
REMARK  status: ('A' for Active; 'I' for Inactive)
REMARK    1  A    between atoms: C_1  and  C_2
REMARK    2  A    between atoms: C_5  and  S_27
REMARK    3  A    between atoms: C_7  and  C_8
REMARK    4  A    between atoms: N_10  and  C_11
REMARK    5  A    between atoms: C_11  and  C_12
REMARK    6  A    between atoms: C_12  and  C_14
REMARK    7  A    between atoms: C_12  and  N_69
REMARK    8  A    between atoms: C_17  and  O_20
REMARK    9  A    between atoms: O_20  and  C_21
REMARK   10  A    between atoms: S_27  and  N_30
REMARK                            x       y       z     vdW  Elec       q    Type
REMARK                         _______ _______ _______ _____ _____    ______ ____
ROOT
ATOM      1  C   UNL     1      -3.358   2.589   4.530  0.00  0.00    +0.244 C 
ATOM      2  O   UNL     1      -2.991   3.368   5.388  0.00  0.00    -0.270 OA
ATOM      3  N   UNL     1      -2.452   1.985   3.736  0.00  0.00    -0.313 N 
ATOM      4  H   UNL     1      -2.745   1.364   3.051  0.00  0.00    +0.149 HD
ENDROOT
BRANCH   1  11
ATOM      5  C   UNL     1      -5.299   4.005   6.143  0.00  0.00    +0.044 C 
ATOM      6  C   UNL     1      -5.744   2.980   5.131  0.00  0.00    -0.038 A 
ATOM      7  C   UNL     1      -7.087   2.712   4.963  0.00  0.00    +0.006 A 
ATOM      8  C   UNL     1      -7.497   1.767   4.039  0.00  0.00    +0.029 A 
ATOM      9  C   UNL     1      -6.564   1.089   3.274  0.00  0.00    +0.106 A 
ATOM     10  C   UNL     1      -5.219   1.352   3.428  0.00  0.00    +0.041 A 
ATOM     11  C   UNL     1      -4.799   2.303   4.359  0.00  0.00    +0.041 A 
BRANCH   9  12
ATOM     12  S   UNL     1      -7.096  -0.111   2.099  0.00  0.00    +0.061 S 
ATOM     13  O   UNL     1      -8.436   0.219   1.759  0.00  0.00    -0.153 OA
ATOM     14  O   UNL     1      -6.066  -0.212   1.126  0.00  0.00    -0.153 OA
BRANCH  12  15
ATOM     15  N   UNL     1      -7.153  -1.570   2.881  0.00  0.00    -0.177 NA
ATOM     16  C   UNL     1      -6.047  -2.534   2.977  0.00  0.00    +0.109 C 
ATOM     17  C   UNL     1      -6.566  -3.749   3.774  0.00  0.00    +0.018 C 
ATOM     18  C   UNL     1      -8.104  -3.653   3.588  0.00  0.00    +0.018 C 
ATOM     19  C   UNL     1      -8.322  -2.119   3.592  0.00  0.00    +0.109 C 
ENDBRANCH  12  15
ENDBRANCH   9  12
ENDBRANCH   1  11
BRANCH   3  20
ATOM     20  C   UNL     1      -1.025   2.268   3.905  0.00  0.00    +0.094 C 
BRANCH  20  21
ATOM     21  C   UNL     1      -0.220   1.460   2.886  0.00  0.00    -0.020 C 
BRANCH  21  27
ATOM     22  C   UNL     1       0.323   1.494   0.527  0.00  0.00    -0.078 C 
ATOM     23  C   UNL     1      -0.270   1.660  -0.874  0.00  0.00    -0.019 C 
ATOM     24  C   UNL     1      -0.821   3.081  -1.025  0.00  0.00    -0.004 C 
ATOM     25  C   UNL     1      -1.867   3.333   0.065  0.00  0.00    -0.019 C 
ATOM     26  C   UNL     1      -1.227   3.119   1.438  0.00  0.00    -0.078 C 
ATOM     27  N   UNL     1      -0.740   1.726   1.528  0.00  0.00    +0.385 N 
ATOM     28  H   UNL     1      -1.520   1.087   1.339  0.00  0.00    -0.081 HD
ENDBRANCH  21  27
BRANCH  21  29
ATOM     29  C   UNL     1       1.235   1.843   2.977  0.00  0.00    -0.059 A 
ATOM     30  C   UNL     1       1.627   3.138   2.694  0.00  0.00    +0.005 A 
ATOM     31  C   UNL     1       2.959   3.492   2.783  0.00  0.00    +0.046 A 
ATOM     32  C   UNL     1       3.905   2.544   3.145  0.00  0.00    +0.120 A 
ATOM     33  C   UNL     1       3.510   1.244   3.423  0.00  0.00    +0.046 A 
ATOM     34  C   UNL     1       2.176   0.896   3.339  0.00  0.00    +0.005 A 
BRANCH  32  35
ATOM     35  O   UNL     1       5.218   2.889   3.227  0.00  0.00    -0.495 OA
ATOM     36  C   UNL     1       5.552   4.245   2.927  0.00  0.00    +0.277 C 
ENDBRANCH  32  35
ENDBRANCH  21  29
ENDBRANCH  20  21
ENDBRANCH   3  20
TORSDOF 8
