REMARK  Name = ZINC36056960
REMARK  8 active torsions:
REMARK  status: ('A' for Active; 'I' for Inactive)
REMARK    1  A    between atoms: C_1  and  C_2
REMARK    2  A    between atoms: C_2  and  C_3
REMARK    3  A    between atoms: C_2  and  C_4
REMARK    4  A    between atoms: C_2  and  C_5
REMARK    5  A    between atoms: C_15  and  C_16
REMARK    6  A    between atoms: C_15  and  O_20
REMARK    7  A    between atoms: C_23  and  C_26
REMARK    8  A    between atoms: C_26  and  N_28
REMARK                            x       y       z     vdW  Elec       q    Type
REMARK                         _______ _______ _______ _____ _____    ______ ____
ROOT
ATOM      1  C   UNL     1       0.761  -0.858  -1.750  0.00  0.00    +0.041 C 
ATOM      2  C   UNL     1       0.183  -0.399  -3.099  0.00  0.00    +0.010 C 
ATOM      3  C   UNL     1       1.208  -0.605  -4.211  0.00  0.00    +0.001 C 
ATOM      4  C   UNL     1       2.454   0.257  -3.984  0.00  0.00    +0.014 C 
ATOM      5  C   UNL     1       3.145  -0.221  -2.705  0.00  0.00    +0.097 C 
ATOM      6  C   UNL     1       2.101  -0.169  -1.597  0.00  0.00    +0.049 C 
ATOM      7  N   UNL     1       2.539   0.518  -0.635  0.00  0.00    -0.183 NA
ATOM      8  N   UNL     1       3.784   1.105  -0.864  0.00  0.00    -0.160 N 
ATOM      9  C   UNL     1       4.236   0.753  -2.244  0.00  0.00    +0.258 C 
ATOM     10  C   UNL     1       4.489   1.883   0.039  0.00  0.00    +0.184 A 
ATOM     11  N   UNL     1       4.166   2.229   1.269  0.00  0.00    -0.221 NA
ATOM     12  C   UNL     1       4.974   2.993   2.007  0.00  0.00    +0.101 A 
ATOM     13  C   UNL     1       6.161   3.422   1.467  0.00  0.00    +0.078 A 
ATOM     14  S   UNL     1       6.079   2.675  -0.155  0.00  0.00    -0.058 S 
ENDROOT
BRANCH   1  16
ATOM     15  C   UNL     1      -0.352   1.074  -0.623  0.00  0.00    +0.011 C 
ATOM     16  C   UNL     1      -0.173  -0.445  -0.611  0.00  0.00    -0.030 C 
ATOM     17  C   UNL     1       0.432  -0.877   0.727  0.00  0.00    +0.011 C 
ATOM     18  C   UNL     1      -1.533  -1.121  -0.797  0.00  0.00    +0.011 C 
ENDBRANCH   1  16
BRANCH   9  19
ATOM     19  C   UNL     1       4.272   1.989  -3.144  0.00  0.00    +0.438 C 
ATOM     20  F   UNL     1       3.077   2.703  -3.006  0.00  0.00    -0.166 F 
ATOM     21  F   UNL     1       5.348   2.804  -2.775  0.00  0.00    -0.166 F 
ATOM     22  F   UNL     1       4.426   1.591  -4.477  0.00  0.00    -0.166 F 
ENDBRANCH   9  19
BRANCH   9  23
ATOM     23  O   UNL     1       5.511   0.108  -2.217  0.00  0.00    -0.363 OA
ATOM     24  H   UNL     1       6.236   0.681  -1.932  0.00  0.00    +0.212 HD
ENDBRANCH   9  23
BRANCH  12  25
ATOM     25  C   UNL     1       4.598   3.369   3.378  0.00  0.00    +0.096 C 
ATOM     26  S   UNL     1       3.114   2.828   4.038  0.00  0.00    -0.034 S 
BRANCH  25  27
ATOM     27  N   UNL     1       5.421   4.141   4.114  0.00  0.00    -0.351 N 
ATOM     28  H   UNL     1       6.262   4.449   3.740  0.00  0.00    +0.143 HD
ATOM     29  H   UNL     1       5.173   4.390   5.019  0.00  0.00    +0.143 HD
ENDBRANCH  25  27
ENDBRANCH  12  25
TORSDOF 5
