REMARK  Name = ZINC27683527
REMARK  9 active torsions:
REMARK  status: ('A' for Active; 'I' for Inactive)
REMARK    1  A    between atoms: C_1  and  C_2
REMARK    2  A    between atoms: C_5  and  S_8
REMARK    3  A    between atoms: S_8  and  N_11
REMARK    4  A    between atoms: N_11  and  C_12
REMARK    5  A    between atoms: C_12  and  C_14
REMARK    6  A    between atoms: C_12  and  C_15
REMARK    7  A    between atoms: C_15  and  C_16
REMARK    8  A    between atoms: N_19  and  C_26
REMARK    9  A    between atoms: C_26  and  C_27
REMARK                            x       y       z     vdW  Elec       q    Type
REMARK                         _______ _______ _______ _____ _____    ______ ____
ROOT
ATOM      1  C   UNL     1       0.177   1.832   2.794  0.00  0.00    +0.074 C 
ATOM      2  C   UNL     1       1.113   2.950   3.260  0.00  0.00    +0.025 C 
ENDROOT
BRANCH   1   3
ATOM      3  N   UNL     1      -0.408   2.192   1.500  0.00  0.00    -0.187 NA
ATOM      4  H   UNL     1      -1.395   2.677   1.459  0.00  0.00    +0.148 HD
BRANCH   3   5
ATOM      5  S   UNL     1       0.288   1.653   0.098  0.00  0.00    +0.059 S 
ATOM      6  O   UNL     1       1.677   1.939   0.198  0.00  0.00    -0.153 OA
ATOM      7  O   UNL     1      -0.515   2.141  -0.968  0.00  0.00    -0.153 OA
BRANCH   5  12
ATOM      8  C   UNL     1      -0.235  -4.358   0.041  0.00  0.00    +0.044 C 
ATOM      9  C   UNL     1      -0.104  -2.857   0.055  0.00  0.00    -0.050 A 
ATOM     10  C   UNL     1      -1.097  -2.071  -0.499  0.00  0.00    +0.005 A 
ATOM     11  C   UNL     1      -0.978  -0.694  -0.485  0.00  0.00    +0.029 A 
ATOM     12  C   UNL     1       0.136  -0.102   0.082  0.00  0.00    +0.105 A 
ATOM     13  C   UNL     1       1.132  -0.888   0.630  0.00  0.00    +0.029 A 
ATOM     14  C   UNL     1       1.010  -2.265   0.622  0.00  0.00    +0.005 A 
ENDBRANCH   5  12
ENDBRANCH   3   5
ENDBRANCH   1   3
BRANCH   1  15
ATOM     15  C   UNL     1      -0.939   1.640   3.823  0.00  0.00    +0.030 C 
BRANCH  15  16
ATOM     16  C   UNL     1      -1.792   0.432   3.431  0.00  0.00    +0.040 C 
ATOM     17  C   UNL     1      -2.566   0.710   2.122  0.00  0.00    +0.113 C 
ATOM     18  N   UNL     1      -3.852   0.015   2.353  0.00  0.00    -0.325 N 
ATOM     19  C   UNL     1      -4.079  -0.022   3.734  0.00  0.00    +0.033 A 
ATOM     20  C   UNL     1      -2.903   0.209   4.438  0.00  0.00    -0.022 A 
ATOM     21  C   UNL     1      -2.901   0.207   5.817  0.00  0.00    +0.006 A 
ATOM     22  C   UNL     1      -4.075  -0.022   6.512  0.00  0.00    +0.000 A 
ATOM     23  C   UNL     1      -5.251  -0.248   5.821  0.00  0.00    +0.002 A 
ATOM     24  C   UNL     1      -5.258  -0.249   4.441  0.00  0.00    +0.023 A 
BRANCH  18  25
ATOM     25  C   UNL     1      -4.951   0.697   1.657  0.00  0.00    +0.131 C 
BRANCH  25  26
ATOM     26  C   UNL     1      -6.188  -0.162   1.708  0.00  0.00    -0.016 C 
ATOM     27  C   UNL     1      -7.304   0.324   2.192  0.00  0.00    +0.005 C 
ENDBRANCH  25  26
ENDBRANCH  18  25
ENDBRANCH  15  16
ENDBRANCH   1  15
TORSDOF 7
