REMARK  Name = ZINC36303337
REMARK  16 active torsions:
REMARK  status: ('A' for Active; 'I' for Inactive)
REMARK    1  A    between atoms: C_1  and  C_2
REMARK    2  A    between atoms: C_2  and  C_3
REMARK    3  A    between atoms: C_4  and  C_22
REMARK    4  A    between atoms: C_5  and  O_14
REMARK    5  A    between atoms: N_6  and  C_8
REMARK    6  A    between atoms: O_14  and  C_15
REMARK    7  A    between atoms: C_22  and  N_23
REMARK    8  A    between atoms: N_23  and  C_24
REMARK    9  A    between atoms: N_23  and  C_31
REMARK   10  A    between atoms: C_24  and  C_25
REMARK   11  A    between atoms: C_31  and  C_32
REMARK   12  A    between atoms: C_32  and  C_34
REMARK   13  A    between atoms: C_32  and  O_39
REMARK   14  A    between atoms: C_34  and  O_35
REMARK   15  A    between atoms: O_35  and  C_36
REMARK   16  A    between atoms: C_36  and  C_37
REMARK                            x       y       z     vdW  Elec       q    Type
REMARK                         _______ _______ _______ _____ _____    ______ ____
ROOT
ATOM      1  C   UNL     1      -1.770  -0.643   0.230  0.00  0.00    +0.068 A 
ATOM      2  C   UNL     1      -2.271  -0.721   1.532  0.00  0.00    +0.021 A 
ATOM      3  C   UNL     1      -3.468  -1.363   1.482  0.00  0.00    +0.225 A 
ATOM      4  N   UNL     1      -3.708  -1.679   0.181  0.00  0.00    -0.200 N 
ATOM      5  N   UNL     1      -2.628  -1.210  -0.579  0.00  0.00    -0.168 NA
ENDROOT
BRANCH   4   6
ATOM      6  C   UNL     1      -4.836  -2.349  -0.313  0.00  0.00    +0.069 A 
ATOM      7  C   UNL     1      -5.350  -3.442   0.373  0.00  0.00    +0.028 A 
ATOM      8  C   UNL     1      -6.462  -4.100  -0.116  0.00  0.00    +0.002 A 
ATOM      9  C   UNL     1      -7.062  -3.673  -1.286  0.00  0.00    +0.000 A 
ATOM     10  C   UNL     1      -6.551  -2.585  -1.971  0.00  0.00    +0.002 A 
ATOM     11  C   UNL     1      -5.444  -1.919  -1.484  0.00  0.00    +0.028 A 
ENDBRANCH   4   6
BRANCH   1  13
ATOM     12  C   UNL     1      -0.692   1.472  -0.489  0.00  0.00    +0.010 C 
ATOM     13  C   UNL     1      -0.464  -0.009  -0.176  0.00  0.00    +0.054 C 
ENDBRANCH   1  13
BRANCH   3  14
ATOM     14  O   UNL     1      -4.276  -1.640   2.537  0.00  0.00    -0.438 OA
BRANCH  14  15
ATOM     15  C   UNL     1      -4.036  -2.776   3.244  0.00  0.00    +0.131 A 
ATOM     16  C   UNL     1      -3.044  -3.654   2.831  0.00  0.00    +0.049 A 
ATOM     17  C   UNL     1      -2.801  -4.808   3.551  0.00  0.00    +0.042 A 
ATOM     18  C   UNL     1      -3.547  -5.088   4.684  0.00  0.00    +0.124 A 
ATOM     19  C   UNL     1      -4.537  -4.213   5.096  0.00  0.00    +0.042 A 
ATOM     20  C   UNL     1      -4.779  -3.055   4.382  0.00  0.00    +0.049 A 
ATOM     21  F   UNL     1      -3.308  -6.217   5.386  0.00  0.00    -0.205 F 
ENDBRANCH  14  15
ENDBRANCH   3  14
BRANCH   2  22
ATOM     22  C   UNL     1      -1.602  -0.187   2.773  0.00  0.00    -0.036 C 
BRANCH  22  23
ATOM     23  N   UNL     1      -1.661   1.280   2.768  0.00  0.00    +0.386 N 
ATOM     24  H   UNL     1      -1.445   1.623   1.844  0.00  0.00    -0.081 HD
BRANCH  23  25
ATOM     25  C   UNL     1      -3.010   1.718   3.150  0.00  0.00    -0.046 C 
BRANCH  25  26
ATOM     26  C   UNL     1      -3.968   1.499   1.977  0.00  0.00    +0.102 C 
ATOM     27  C   UNL     1      -5.325   2.193   2.255  0.00  0.00    +0.032 C 
ATOM     28  C   UNL     1      -5.844   2.414   0.808  0.00  0.00    +0.030 C 
ATOM     29  C   UNL     1      -4.538   2.681   0.029  0.00  0.00    +0.160 C 
ATOM     30  O   UNL     1      -3.457   2.130   0.792  0.00  0.00    -0.378 OA
ENDBRANCH  25  26
ENDBRANCH  23  25
BRANCH  23  31
ATOM     31  C   UNL     1      -0.683   1.813   3.728  0.00  0.00    -0.044 C 
BRANCH  31  32
ATOM     32  C   UNL     1      -0.611   3.335   3.590  0.00  0.00    +0.124 C 
BRANCH  32  33
ATOM     33  O   UNL     1      -0.197   3.674   2.264  0.00  0.00    -0.391 OA
ATOM     34  H   UNL     1       0.670   3.323   2.021  0.00  0.00    +0.210 HD
ENDBRANCH  32  33
BRANCH  32  35
ATOM     35  C   UNL     1       0.399   3.890   4.596  0.00  0.00    +0.190 C 
BRANCH  35  36
ATOM     36  O   UNL     1       0.383   5.318   4.549  0.00  0.00    -0.365 OA
BRANCH  36  37
ATOM     37  C   UNL     1       1.295   5.940   5.456  0.00  0.00    +0.248 C 
BRANCH  37  38
ATOM     38  C   UNL     1       1.196   7.403   5.325  0.00  0.00    -0.077 C 
ATOM     39  C   UNL     1       1.118   8.570   5.221  0.00  0.00    +0.006 C 
ENDBRANCH  37  38
ENDBRANCH  36  37
ENDBRANCH  35  36
ENDBRANCH  32  35
ENDBRANCH  31  32
ENDBRANCH  23  31
ENDBRANCH  22  23
ENDBRANCH   2  22
TORSDOF 15
