REMARK  Name = ZINC33023151
REMARK  9 active torsions:
REMARK  status: ('A' for Active; 'I' for Inactive)
REMARK    1  A    between atoms: C_1  and  C_2
REMARK    2  A    between atoms: C_2  and  C_3
REMARK    3  A    between atoms: C_3  and  C_5
REMARK    4  A    between atoms: C_3  and  N_6
REMARK    5  A    between atoms: C_10  and  S_15
REMARK    6  A    between atoms: S_15  and  N_18
REMARK    7  A    between atoms: C_21  and  C_24
REMARK    8  A    between atoms: N_26  and  C_27
REMARK    9  A    between atoms: C_32  and  C_33
REMARK                            x       y       z     vdW  Elec       q    Type
REMARK                         _______ _______ _______ _____ _____    ______ ____
ROOT
ATOM      1  N   UNL     1       1.095   6.236  -1.548  0.00  0.00    -0.177 NA
ATOM      2  C   UNL     1       2.370   6.189  -2.276  0.00  0.00    +0.110 C 
ATOM      3  C   UNL     1       2.161   5.402  -3.578  0.00  0.00    +0.030 C 
ATOM      4  C   UNL     1       1.010   6.029  -4.367  0.00  0.00    +0.078 C 
ATOM      5  C   UNL     1      -0.278   5.950  -3.545  0.00  0.00    +0.030 C 
ATOM      6  C   UNL     1      -0.098   6.739  -2.244  0.00  0.00    +0.110 C 
ENDROOT
BRANCH   4   7
ATOM      7  C   UNL     1       0.824   5.283  -5.663  0.00  0.00    +0.220 C 
ATOM      8  O   UNL     1      -0.234   4.741  -5.905  0.00  0.00    -0.275 OA
ATOM      9  N   UNL     1       1.834   5.218  -6.554  0.00  0.00    -0.285 N 
ATOM     10  H   UNL     1       2.760   5.784  -6.377  0.00  0.00    +0.155 HD
BRANCH   9  11
ATOM     11  C   UNL     1       1.703   4.430  -7.703  0.00  0.00    +0.036 A 
ATOM     12  C   UNL     1       0.829   3.350  -7.711  0.00  0.00    +0.023 A 
ATOM     13  C   UNL     1       0.703   2.575  -8.847  0.00  0.00    +0.002 A 
ATOM     14  C   UNL     1       1.445   2.873  -9.976  0.00  0.00    +0.000 A 
ATOM     15  C   UNL     1       2.315   3.947  -9.971  0.00  0.00    +0.005 A 
ATOM     16  C   UNL     1       2.442   4.730  -8.840  0.00  0.00    -0.029 A 
ATOM     17  C   UNL     1       3.387   5.904  -8.837  0.00  0.00    +0.045 C 
ENDBRANCH   9  11
ENDBRANCH   4   7
BRANCH   1  18
ATOM     18  S   UNL     1       1.005   5.739   0.029  0.00  0.00    +0.061 S 
ATOM     19  O   UNL     1      -0.115   6.401   0.601  0.00  0.00    -0.153 OA
ATOM     20  O   UNL     1       2.315   5.855   0.567  0.00  0.00    -0.153 OA
BRANCH  18  25
ATOM     21  N   UNL     1      -0.010  -0.044  -0.033  0.00  0.00    -0.241 N 
ATOM     22  C   UNL     1      -0.024   1.331  -0.016  0.00  0.00    +0.089 A 
ATOM     23  C   UNL     1      -1.033   2.287   0.012  0.00  0.00    +0.031 A 
ATOM     24  C   UNL     1      -0.711   3.615   0.021  0.00  0.00    +0.031 A 
ATOM     25  C   UNL     1       0.618   4.020   0.012  0.00  0.00    +0.108 A 
ATOM     26  C   UNL     1       1.627   3.102  -0.011  0.00  0.00    +0.060 A 
ATOM     27  C   UNL     1       1.323   1.734  -0.025  0.00  0.00    +0.115 A 
ATOM     28  N   UNL     1       2.083   0.621  -0.047  0.00  0.00    -0.129 NA
ATOM     29  N   UNL     1       1.339  -0.428  -0.052  0.00  0.00    -0.064 NA
BRANCH  21  30
ATOM     30  C   UNL     1      -1.175  -0.932  -0.032  0.00  0.00    +0.106 C 
ATOM     31  C   UNL     1      -1.130  -1.830   1.206  0.00  0.00    +0.032 C 
BRANCH  30  33
ATOM     32  C   UNL     1      -2.436  -2.637  -1.353  0.00  0.00    +0.006 C 
ATOM     33  C   UNL     1      -1.157  -1.799  -1.292  0.00  0.00    +0.023 C 
ENDBRANCH  30  33
ENDBRANCH  21  30
ENDBRANCH  18  25
ENDBRANCH   1  18
TORSDOF 6
