REMARK  Name = ZINC58952774
REMARK  9 active torsions:
REMARK  status: ('A' for Active; 'I' for Inactive)
REMARK    1  A    between atoms: C_1  and  C_2
REMARK    2  A    between atoms: C_2  and  C_3
REMARK    3  A    between atoms: C_3  and  C_4
REMARK    4  A    between atoms: C_4  and  C_5
REMARK    5  A    between atoms: C_5  and  N_6
REMARK    6  A    between atoms: C_15  and  C_17
REMARK    7  A    between atoms: N_19  and  C_20
REMARK    8  A    between atoms: C_20  and  C_21
REMARK    9  A    between atoms: C_31  and  C_34
REMARK                            x       y       z     vdW  Elec       q    Type
REMARK                         _______ _______ _______ _____ _____    ______ ____
ROOT
ATOM      1  C   UNL     1      -0.712  -6.572   3.742  0.00  0.00    +0.265 C 
ATOM      2  O   UNL     1      -0.790  -7.783   3.811  0.00  0.00    -0.268 OA
ATOM      3  N   UNL     1      -1.666  -5.802   4.302  0.00  0.00    -0.306 N 
ATOM      4  H   UNL     1      -1.604  -4.836   4.247  0.00  0.00    +0.149 HD
ENDROOT
BRANCH   1  14
ATOM      5  N   UNL     1       1.473  -4.019   2.379  0.00  0.00    -0.228 N 
ATOM      6  C   UNL     1       2.503  -4.641   1.770  0.00  0.00    +0.275 A 
ATOM      7  O   UNL     1       3.385  -4.000   1.228  0.00  0.00    -0.266 OA
ATOM      8  C   UNL     1       2.537  -6.110   1.777  0.00  0.00    +0.050 A 
ATOM      9  C   UNL     1       3.554  -6.845   1.177  0.00  0.00    +0.014 A 
ATOM     10  C   UNL     1       3.512  -8.222   1.227  0.00  0.00    +0.001 A 
ATOM     11  C   UNL     1       2.468  -8.878   1.868  0.00  0.00    +0.001 A 
ATOM     12  C   UNL     1       1.450  -8.167   2.467  0.00  0.00    +0.011 A 
ATOM     13  C   UNL     1       1.474  -6.777   2.429  0.00  0.00    +0.020 A 
ATOM     14  C   UNL     1       0.427  -5.944   3.044  0.00  0.00    +0.154 A 
ATOM     15  N   UNL     1       0.522  -4.639   2.969  0.00  0.00    -0.163 NA
BRANCH   5  16
ATOM     16  C   UNL     1       1.444  -2.554   2.370  0.00  0.00    +0.147 C 
BRANCH  16  17
ATOM     17  C   UNL     1       0.685  -2.066   1.135  0.00  0.00    +0.023 C 
BRANCH  17  18
ATOM     18  C   UNL     1       0.655  -0.537   1.125  0.00  0.00    +0.002 C 
BRANCH  18  20
ATOM     19  C   UNL     1      -0.135   1.481  -0.119  0.00  0.00    +0.004 C 
ATOM     20  C   UNL     1      -0.105  -0.049  -0.110  0.00  0.00    -0.003 C 
ENDBRANCH  18  20
ENDBRANCH  17  18
ENDBRANCH  16  17
ENDBRANCH   5  16
ENDBRANCH   1  14
BRANCH   3  21
ATOM     21  C   UNL     1      -2.797  -6.425   4.995  0.00  0.00    +0.141 C 
BRANCH  21  22
ATOM     22  C   UNL     1      -3.713  -5.352   5.526  0.00  0.00    -0.014 A 
ATOM     23  C   UNL     1      -3.517  -4.830   6.798  0.00  0.00    +0.010 A 
ATOM     24  C   UNL     1      -4.380  -3.848   7.248  0.00  0.00    +0.042 A 
ATOM     25  C   UNL     1      -5.409  -3.417   6.416  0.00  0.00    +0.099 A 
ATOM     26  N   UNL     1      -5.562  -3.940   5.209  0.00  0.00    -0.349 N 
ATOM     27  C   UNL     1      -4.751  -4.875   4.752  0.00  0.00    +0.089 A 
ATOM     28  N   UNL     1      -6.283  -2.431   6.856  0.00  0.00    -0.312 N 
ATOM     29  C   UNL     1      -7.301  -1.865   5.956  0.00  0.00    +0.134 C 
ATOM     30  C   UNL     1      -8.658  -1.918   6.667  0.00  0.00    +0.179 C 
ATOM     31  O   UNL     1      -8.539  -1.308   7.955  0.00  0.00    -0.374 OA
ATOM     32  C   UNL     1      -7.629  -1.972   8.835  0.00  0.00    +0.132 C 
ATOM     33  C   UNL     1      -6.223  -1.925   8.236  0.00  0.00    +0.137 C 
ATOM     34  C   UNL     1      -7.631  -1.271  10.195  0.00  0.00    +0.039 C 
ATOM     35  H   UNL     1      -6.287  -3.625   4.646  0.00  0.00    +0.167 HD
ENDBRANCH  21  22
ENDBRANCH   3  21
TORSDOF 7
