REMARK  Name = ZINC02036997
REMARK  3 active torsions:
REMARK  status: ('A' for Active; 'I' for Inactive)
REMARK    1  A    between atoms: C_4  and  C_7
REMARK    2  A    between atoms: C_7  and  C_20
REMARK    3  A    between atoms: C_10  and  C_13
REMARK                            x       y       z     vdW  Elec       q    Type
REMARK                         _______ _______ _______ _____ _____    ______ ____
ROOT
ATOM      1  C   UNL     1      -5.359  -0.754   1.074  0.00  0.00    +0.176 C 
ATOM      2  O   UNL     1      -5.983   0.400   1.663  0.00  0.00    -0.346 OA
ATOM      3  C   UNL     1      -4.989   1.448   1.566  0.00  0.00    +0.193 C 
ATOM      4  C   UNL     1      -4.325   1.126   0.203  0.00  0.00    +0.133 C 
ATOM      5  O   UNL     1      -4.342  -0.315   0.165  0.00  0.00    -0.344 OA
ENDROOT
BRANCH   4   6
ATOM      6  C   UNL     1      -2.889   1.651   0.165  0.00  0.00    -0.040 C 
ATOM      7  C   UNL     1      -2.291   1.399  -1.222  0.00  0.00    -0.013 C 
ATOM      8  C   UNL     1      -0.847   1.908  -1.250  0.00  0.00    -0.003 C 
ATOM      9  C   UNL     1      -0.044   1.203  -0.152  0.00  0.00    -0.019 C 
ATOM     10  C   UNL     1      -0.706   1.461   1.203  0.00  0.00    -0.082 C 
ATOM     11  N   UNL     1      -2.086   0.956   1.179  0.00  0.00    +0.383 N 
ATOM     12  H   UNL     1      -2.534   1.113   2.171  0.00  0.00    -0.085 HD
ATOM     13  H   UNL     1      -2.062  -0.120   0.953  0.00  0.00    -0.085 HD
ENDBRANCH   4   6
BRANCH   1  17
ATOM     14  C   UNL     1      -4.215  -2.161   5.003  0.00  0.00    +0.000 C 
ATOM     15  C   UNL     1      -3.117  -1.633   4.078  0.00  0.00    +0.000 C 
ATOM     16  C   UNL     1      -3.745  -0.771   2.981  0.00  0.00    +0.009 C 
ATOM     17  C   UNL     1      -4.731  -1.615   2.171  0.00  0.00    +0.049 C 
ATOM     18  C   UNL     1      -5.829  -2.144   3.096  0.00  0.00    +0.009 C 
ATOM     19  C   UNL     1      -5.201  -3.006   4.193  0.00  0.00    +0.000 C 
ENDBRANCH   1  17
BRANCH   1  20
ATOM     20  C   UNL     1      -6.407  -1.573   0.318  0.00  0.00    +0.049 C 
ATOM     21  C   UNL     1      -5.736  -2.791  -0.323  0.00  0.00    +0.009 C 
ATOM     22  C   UNL     1      -6.783  -3.610  -1.079  0.00  0.00    +0.000 C 
ATOM     23  C   UNL     1      -7.418  -2.745  -2.170  0.00  0.00    +0.000 C 
ATOM     24  C   UNL     1      -8.088  -1.528  -1.530  0.00  0.00    +0.000 C 
ATOM     25  C   UNL     1      -7.041  -0.708  -0.773  0.00  0.00    +0.009 C 
ENDBRANCH   1  20
TORSDOF 3
