REMARK  Name = ZINC20616432
REMARK  5 active torsions:
REMARK  status: ('A' for Active; 'I' for Inactive)
REMARK    1  A    between atoms: C_1  and  C_2
REMARK    2  A    between atoms: C_5  and  C_7
REMARK    3  A    between atoms: N_9  and  N_23
REMARK    4  A    between atoms: N_15  and  C_16
REMARK    5  A    between atoms: C_24  and  C_25
REMARK                            x       y       z     vdW  Elec       q    Type
REMARK                         _______ _______ _______ _____ _____    ______ ____
ROOT
ATOM      1  C   UNL     1       6.213   5.674   0.003  0.00  0.00    +0.099 A 
ATOM      2  C   UNL     1       4.881   5.403   0.018  0.00  0.00    +0.144 A 
ATOM      3  N   UNL     1       4.753   4.034   0.014  0.00  0.00    -0.207 N 
ATOM      4  C   UNL     1       6.013   3.509  -0.011  0.00  0.00    +0.224 A 
ATOM      5  N   UNL     1       6.880   4.492  -0.018  0.00  0.00    -0.212 NA
ATOM      6  N   UNL     1       6.324   2.156  -0.028  0.00  0.00    -0.238 N 
ATOM      7  C   UNL     1       7.613   1.762  -0.052  0.00  0.00    +0.310 C 
ATOM      8  O   UNL     1       8.502   2.590  -0.060  0.00  0.00    -0.252 OA
ATOM      9  N   UNL     1       7.915   0.448  -0.069  0.00  0.00    -0.268 N 
ATOM     10  H   UNL     1       5.519   1.406  -0.021  0.00  0.00    +0.159 HD
ATOM     11  H   UNL     1       7.114  -0.302   0.013  0.00  0.00    +0.156 HD
ENDROOT
BRANCH   9  12
ATOM     12  C   UNL     1       9.248   0.038  -0.189  0.00  0.00    +0.053 A 
ATOM     13  C   UNL     1      10.261   0.785   0.397  0.00  0.00    +0.025 A 
ATOM     14  C   UNL     1      11.575   0.377   0.280  0.00  0.00    +0.002 A 
ATOM     15  C   UNL     1      11.884  -0.771  -0.427  0.00  0.00    +0.002 A 
ATOM     16  C   UNL     1      10.879  -1.515  -1.016  0.00  0.00    +0.022 A 
ATOM     17  C   UNL     1       9.561  -1.114  -0.899  0.00  0.00    +0.062 A 
ATOM     18 CL   UNL     1       8.299  -2.048  -1.640  0.00  0.00    -0.082 Cl
ENDBRANCH   9  12
BRANCH   1  23
ATOM     19  C   UNL     1       7.621  11.132   0.026  0.00  0.00    +0.051 C 
ATOM     20  C   UNL     1       7.505   9.630   0.015  0.00  0.00    -0.013 A 
ATOM     21  C   UNL     1       8.491   8.698  -0.008  0.00  0.00    +0.011 A 
ATOM     22  C   UNL     1       8.153   7.362  -0.009  0.00  0.00    +0.018 A 
ATOM     23  C   UNL     1       6.828   7.019   0.004  0.00  0.00    +0.039 A 
ATOM     24  S   UNL     1       6.034   8.618   0.030  0.00  0.00    -0.092 S 
ENDBRANCH   1  23
BRANCH   3  25
ATOM     25  N   UNL     1       3.553   3.312   0.027  0.00  0.00    -0.172 NA
ATOM     26  C   UNL     1       2.418   3.941   0.051  0.00  0.00    +0.142 C 
BRANCH  26  27
ATOM     27  C   UNL     1       1.155   3.181   0.066  0.00  0.00    +0.013 A 
ATOM     28  C   UNL     1      -0.069   3.855   0.092  0.00  0.00    +0.012 A 
ATOM     29  C   UNL     1      -1.247   3.138   0.105  0.00  0.00    +0.021 A 
ATOM     30  C   UNL     1      -1.220   1.753   0.087  0.00  0.00    +0.042 A 
ATOM     31  C   UNL     1      -0.012   1.079   0.067  0.00  0.00    +0.040 A 
ATOM     32  C   UNL     1       1.175   1.783   0.053  0.00  0.00    +0.051 A 
ATOM     33 CL   UNL     1       2.690   0.936   0.021  0.00  0.00    -0.083 Cl
ATOM     34 CL   UNL     1      -2.709   0.860   0.097  0.00  0.00    -0.083 Cl
ENDBRANCH  26  27
ENDBRANCH   3  25
TORSDOF 4
