REMARK  Name = ZINC48249333
REMARK  4 active torsions:
REMARK  status: ('A' for Active; 'I' for Inactive)
REMARK    1  A    between atoms: C_6  and  C_7
REMARK    2  A    between atoms: C_13  and  C_16
REMARK    3  A    between atoms: N_18  and  C_19
REMARK    4  A    between atoms: C_19  and  C_20
REMARK                            x       y       z     vdW  Elec       q    Type
REMARK                         _______ _______ _______ _____ _____    ______ ____
ROOT
ATOM      1  C   UNL     1      -3.733  -4.824   0.738  0.00  0.00    +0.218 C 
ATOM      2  O   UNL     1      -3.600  -6.008   0.512  0.00  0.00    -0.275 OA
ATOM      3  N   UNL     1      -4.967  -4.284   0.797  0.00  0.00    -0.311 N 
ATOM      4  H   UNL     1      -5.073  -3.337   0.978  0.00  0.00    +0.149 HD
ENDROOT
BRANCH   1  11
ATOM      5  C   UNL     1      -1.253  -0.755   0.175  0.00  0.00    +0.247 C 
ATOM      6  O   UNL     1      -2.313  -0.169   0.285  0.00  0.00    -0.270 OA
ATOM      7  N   UNL     1      -1.234  -2.095   0.037  0.00  0.00    -0.297 N 
ATOM      8  C   UNL     1       0.038  -2.829   0.028  0.00  0.00    +0.108 C 
ATOM      9  C   UNL     1      -0.023  -3.936   1.086  0.00  0.00    +0.020 C 
ATOM     10  C   UNL     1      -1.255  -4.809   0.835  0.00  0.00    +0.016 C 
ATOM     11  C   UNL     1      -2.520  -3.956   0.954  0.00  0.00    +0.092 C 
ATOM     12  C   UNL     1      -2.487  -2.851  -0.100  0.00  0.00    +0.120 C 
BRANCH   5  18
ATOM     13  C   UNL     1       1.103  -0.433  -0.568  0.00  0.00    +0.016 A 
ATOM     14  C   UNL     1       2.283   0.278  -0.548  0.00  0.00    +0.039 A 
ATOM     15  C   UNL     1       2.392   1.426   0.223  0.00  0.00    +0.123 A 
ATOM     16  C   UNL     1       1.315   1.863   0.979  0.00  0.00    +0.039 A 
ATOM     17  C   UNL     1       0.130   1.159   0.967  0.00  0.00    +0.016 A 
ATOM     18  C   UNL     1       0.015   0.004   0.192  0.00  0.00    +0.037 A 
ATOM     19  F   UNL     1       3.551   2.119   0.238  0.00  0.00    -0.205 F 
ENDBRANCH   5  18
ENDBRANCH   1  11
BRANCH   3  20
ATOM     20  C   UNL     1      -6.146  -5.127   0.588  0.00  0.00    +0.141 C 
BRANCH  20  21
ATOM     21  C   UNL     1      -7.392  -4.287   0.705  0.00  0.00    -0.014 A 
ATOM     22  C   UNL     1      -8.012  -4.121   1.936  0.00  0.00    +0.010 A 
ATOM     23  C   UNL     1      -9.153  -3.342   2.001  0.00  0.00    +0.042 A 
ATOM     24  C   UNL     1      -9.638  -2.754   0.836  0.00  0.00    +0.099 A 
ATOM     25  N   UNL     1      -9.017  -2.936  -0.319  0.00  0.00    -0.349 N 
ATOM     26  C   UNL     1      -7.924  -3.670  -0.409  0.00  0.00    +0.089 A 
ATOM     27  N   UNL     1     -10.784  -1.969   0.886  0.00  0.00    -0.317 N 
ATOM     28  C   UNL     1     -11.359  -1.664   2.177  0.00  0.00    +0.106 C 
ATOM     29  C   UNL     1     -12.378  -2.764   2.565  0.00  0.00    +0.019 C 
ATOM     30  C   UNL     1     -13.583  -2.662   1.728  0.00  0.00    +0.002 C 
ATOM     31  C   UNL     1     -13.336  -2.884   0.239  0.00  0.00    +0.002 C 
ATOM     32  C   UNL     1     -12.899  -1.587  -0.395  0.00  0.00    +0.019 C 
ATOM     33  C   UNL     1     -11.360  -1.477  -0.381  0.00  0.00    +0.106 C 
ATOM     34  H   UNL     1      -9.373  -2.518  -1.118  0.00  0.00    +0.167 HD
ENDBRANCH  20  21
ENDBRANCH   3  20
TORSDOF 4
