REMARK  Name = ZINC08311876
REMARK  9 active torsions:
REMARK  status: ('A' for Active; 'I' for Inactive)
REMARK    1  A    between atoms: C_1  and  C_2
REMARK    2  A    between atoms: C_2  and  C_3
REMARK    3  A    between atoms: C_2  and  C_4
REMARK    4  A    between atoms: C_2  and  O_5
REMARK    5  A    between atoms: O_5  and  C_6
REMARK    6  A    between atoms: C_6  and  C_8
REMARK    7  A    between atoms: C_12  and  C_16
REMARK    8  A    between atoms: C_16  and  O_18
REMARK    9  A    between atoms: O_18  and  C_19
REMARK                            x       y       z     vdW  Elec       q    Type
REMARK                         _______ _______ _______ _____ _____    ______ ____
ROOT
ATOM      1  C   UNL     1       5.721  -2.283  -5.018  0.00  0.00    +0.314 C 
ATOM      2  O   UNL     1       5.208  -3.015  -5.832  0.00  0.00    -0.250 OA
ENDROOT
BRANCH   1   6
ATOM      3  C   UNL     1       2.713  -0.601  -2.529  0.00  0.00    +0.039 C 
ATOM      4  C   UNL     1       2.814  -2.128  -2.534  0.00  0.00    -0.004 C 
ATOM      5  C   UNL     1       3.596  -2.579  -3.771  0.00  0.00    +0.012 C 
ATOM      6  C   UNL     1       4.972  -1.906  -3.766  0.00  0.00    +0.081 C 
ATOM      7  C   UNL     1       4.791  -0.387  -3.716  0.00  0.00    -0.067 C 
ATOM      8  N   UNL     1       4.060  -0.018  -2.497  0.00  0.00    +0.388 N 
ATOM      9  H   UNL     1       3.990   0.986  -2.440  0.00  0.00    -0.085 HD
ATOM     10  H   UNL     1       4.556  -0.365  -1.690  0.00  0.00    -0.085 HD
BRANCH   3  11
ATOM     11  C   UNL     1       1.944  -0.153  -1.313  0.00  0.00    +0.293 C 
ATOM     12  O   UNL     1       2.466   0.576  -0.503  0.00  0.00    -0.253 OA
BRANCH  11  13
ATOM     13  O   UNL     1       0.679  -0.563  -1.130  0.00  0.00    -0.460 OA
BRANCH  13  15
ATOM     14  C   UNL     1      -0.052   1.429   0.026  0.00  0.00    +0.055 C 
ATOM     15  C   UNL     1       0.010  -0.100   0.045  0.00  0.00    +0.105 C 
ATOM     16  C   UNL     1       0.777  -0.563   1.285  0.00  0.00    +0.055 C 
ATOM     17  C   UNL     1      -1.410  -0.668   0.081  0.00  0.00    +0.055 C 
ENDBRANCH  13  15
ENDBRANCH  11  13
ENDBRANCH   3  11
ENDBRANCH   1   6
BRANCH   1  18
ATOM     18  O   UNL     1       6.958  -1.806  -5.230  0.00  0.00    -0.426 OA
BRANCH  18  19
ATOM     19  C   UNL     1       7.635  -2.252  -6.320  0.00  0.00    +0.135 A 
ATOM     20  C   UNL     1       7.321  -1.750  -7.581  0.00  0.00    +0.047 A 
ATOM     21  C   UNL     1       7.992  -2.187  -8.686  0.00  0.00    +0.015 A 
ATOM     22  C   UNL     1       9.002  -3.147  -8.550  0.00  0.00    +0.021 A 
ATOM     23  C   UNL     1       9.324  -3.656  -7.280  0.00  0.00    +0.143 A 
ATOM     24  C   UNL     1       8.636  -3.197  -6.167  0.00  0.00    +0.093 A 
ATOM     25  O   UNL     1      10.299  -4.581  -7.160  0.00  0.00    -0.422 OA
ATOM     26  C   UNL     1      10.978  -5.021  -8.227  0.00  0.00    +0.341 A 
ATOM     27  O   UNL     1      11.857  -5.849  -8.067  0.00  0.00    -0.245 OA
ATOM     28  C   UNL     1      10.708  -4.554  -9.538  0.00  0.00    +0.041 A 
ATOM     29  C   UNL     1       9.736  -3.635  -9.726  0.00  0.00    -0.027 A 
ATOM     30  C   UNL     1       9.365  -3.095 -11.079  0.00  0.00    +0.036 C 
ATOM     31  C   UNL     1      10.476  -3.368 -12.092  0.00  0.00    +0.005 C 
ATOM     32  C   UNL     1      10.846  -4.854 -12.010  0.00  0.00    +0.005 C 
ATOM     33  C   UNL     1      11.532  -5.107 -10.670  0.00  0.00    +0.042 C 
ENDBRANCH  18  19
ENDBRANCH   1  18
TORSDOF 6
