REMARK  Name = ZINC00866808
REMARK  6 active torsions:
REMARK  status: ('A' for Active; 'I' for Inactive)
REMARK    1  A    between atoms: C_1  and  C_2
REMARK    2  A    between atoms: C_5  and  O_32
REMARK    3  A    between atoms: C_6  and  N_8
REMARK    4  A    between atoms: C_9  and  C_11
REMARK    5  A    between atoms: C_16  and  C_27
REMARK    6  A    between atoms: C_19  and  C_22
REMARK                            x       y       z     vdW  Elec       q    Type
REMARK                         _______ _______ _______ _____ _____    ______ ____
ROOT
ATOM      1  C   UNL     1       0.279  -2.878   4.834  0.00  0.00    +0.163 A 
ATOM      2  C   UNL     1       0.385  -2.312   6.125  0.00  0.00    +0.089 A 
ATOM      3  C   UNL     1       0.483  -3.327   7.007  0.00  0.00    +0.133 A 
ATOM      4  N   UNL     1       0.440  -4.502   6.311  0.00  0.00    -0.237 N 
ATOM      5  N   UNL     1       0.309  -4.194   4.957  0.00  0.00    -0.163 NA
ATOM      6  C   UNL     1       0.515  -5.823   6.941  0.00  0.00    +0.215 C 
ATOM      7  C   UNL     1       0.162  -5.685   8.426  0.00  0.00    +0.066 C 
ATOM      8  C   UNL     1       0.982  -4.553   9.055  0.00  0.00    +0.140 C 
ATOM      9  N   UNL     1       0.610  -3.284   8.399  0.00  0.00    -0.318 N 
ATOM     10 BR   UNL     1       0.388  -0.467   6.539  0.00  0.00    -0.044 Br
ATOM     11  H   UNL     1       0.463  -2.469   8.904  0.00  0.00    +0.148 HD
ENDROOT
BRANCH   8  12
ATOM     12  C   UNL     1       0.683  -4.471  10.530  0.00  0.00    +0.125 A 
ATOM     13  C   UNL     1       1.451  -4.968  11.517  0.00  0.00    +0.046 A 
ATOM     14  C   UNL     1       0.798  -4.668  12.734  0.00  0.00    +0.041 A 
ATOM     15  C   UNL     1      -0.330  -4.006  12.419  0.00  0.00    +0.195 A 
ATOM     16  O   UNL     1      -0.391  -3.884  11.083  0.00  0.00    -0.466 OA
ENDBRANCH   8  12
BRANCH   1  18
ATOM     17  N   UNL     1       0.053  -2.794   2.399  0.00  0.00    -0.277 N 
ATOM     18  C   UNL     1       0.151  -2.130   3.567  0.00  0.00    +0.270 C 
ATOM     19  O   UNL     1       0.135  -0.914   3.578  0.00  0.00    -0.268 OA
ATOM     20  H   UNL     1       0.000  -3.763   2.394  0.00  0.00    +0.155 HD
BRANCH  17  26
ATOM     21  C   UNL     1      -1.306   1.189  -0.143  0.00  0.00    +0.044 C 
ATOM     22  C   UNL     1      -0.626  -0.153  -0.071  0.00  0.00    -0.048 A 
ATOM     23  C   UNL     1      -0.029  -0.685  -1.199  0.00  0.00    +0.007 A 
ATOM     24  C   UNL     1       0.597  -1.917  -1.139  0.00  0.00    +0.047 A 
ATOM     25  C   UNL     1       0.627  -2.622   0.054  0.00  0.00    +0.138 A 
ATOM     26  C   UNL     1       0.025  -2.086   1.190  0.00  0.00    +0.076 A 
ATOM     27  C   UNL     1      -0.596  -0.848   1.124  0.00  0.00    +0.030 A 
BRANCH  25  28
ATOM     28  O   UNL     1       1.241  -3.833   0.114  0.00  0.00    -0.505 OA
ATOM     29  H   UNL     1       2.179  -3.788   0.346  0.00  0.00    +0.292 HD
ENDBRANCH  25  28
ENDBRANCH  17  26
ENDBRANCH   1  18
BRANCH   6  30
ATOM     30  C   UNL     1      -0.474  -6.772   6.262  0.00  0.00    +0.412 C 
ATOM     31  F   UNL     1      -0.156  -6.885   4.905  0.00  0.00    -0.168 F 
ATOM     32  F   UNL     1      -0.400  -8.032   6.865  0.00  0.00    -0.168 F 
ATOM     33  F   UNL     1      -1.772  -6.266   6.396  0.00  0.00    -0.168 F 
ENDBRANCH   6  30
TORSDOF 5
