REMARK  Name = ZINC63386923
REMARK  8 active torsions:
REMARK  status: ('A' for Active; 'I' for Inactive)
REMARK    1  A    between atoms: C_6  and  C_11
REMARK    2  A    between atoms: C_11  and  C_12
REMARK    3  A    between atoms: C_12  and  N_13
REMARK    4  A    between atoms: C_16  and  C_21
REMARK    5  A    between atoms: C_19  and  O_20
REMARK    6  A    between atoms: C_21  and  C_22
REMARK    7  A    between atoms: C_22  and  C_23
REMARK    8  A    between atoms: N_25  and  C_26
REMARK                            x       y       z     vdW  Elec       q    Type
REMARK                         _______ _______ _______ _____ _____    ______ ____
ROOT
ATOM      1  N   UNL     1       5.000  -3.595  -1.503  0.00  0.00    -0.224 N 
ATOM      2  C   UNL     1       6.300  -3.947  -1.415  0.00  0.00    +0.248 C 
ATOM      3  O   UNL     1       7.259  -3.211  -1.314  0.00  0.00    -0.273 OA
ATOM      4  C   UNL     1       6.302  -5.462  -1.470  0.00  0.00    +0.197 C 
ATOM      5  N   UNL     1       4.878  -5.812  -1.594  0.00  0.00    -0.224 NA
ATOM      6  C   UNL     1       4.204  -4.707  -1.599  0.00  0.00    +0.285 C 
ENDROOT
BRANCH   6   7
ATOM      7  O   UNL     1       2.857  -4.655  -1.695  0.00  0.00    -0.481 OA
ATOM      8  H   UNL     1       2.433  -5.522  -1.756  0.00  0.00    +0.295 HD
ENDBRANCH   6   7
BRANCH   1   9
ATOM      9  C   UNL     1       4.508  -2.215  -1.491  0.00  0.00    +0.122 C 
BRANCH   9  10
ATOM     10  C   UNL     1       4.231  -1.785  -0.049  0.00  0.00    +0.052 C 
BRANCH  10  16
ATOM     11  C   UNL     1      -0.017   1.399   0.010  0.00  0.00    +0.022 A 
ATOM     12  C   UNL     1       1.109   2.143   0.003  0.00  0.00    +0.027 A 
ATOM     13  C   UNL     1       2.385   1.516  -0.013  0.00  0.00    +0.043 A 
ATOM     14  N   UNL     1       3.600   2.009  -0.022  0.00  0.00    -0.380 N 
ATOM     15  C   UNL     1       4.557   0.897  -0.038  0.00  0.00    +0.144 C 
ATOM     16  C   UNL     1       3.724  -0.366  -0.036  0.00  0.00    -0.040 C 
ATOM     17  C   UNL     1       2.433   0.036  -0.021  0.00  0.00    +0.000 A 
ATOM     18  C   UNL     1       1.163  -0.699  -0.013  0.00  0.00    +0.030 A 
ATOM     19  C   UNL     1       0.002  -0.004   0.002  0.00  0.00    +0.042 A 
ATOM     20 CL   UNL     1      -1.502  -0.870   0.012  0.00  0.00    -0.084 Cl
ATOM     21  H   UNL     1       3.828   2.952  -0.020  0.00  0.00    +0.160 HD
ENDBRANCH  10  16
ENDBRANCH   9  10
ENDBRANCH   1   9
BRANCH   4  22
ATOM     22  C   UNL     1       6.893  -6.045  -0.185  0.00  0.00    +0.045 C 
BRANCH  22  23
ATOM     23  C   UNL     1       6.998  -7.566  -0.317  0.00  0.00    +0.098 C 
BRANCH  23  24
ATOM     24  C   UNL     1       7.580  -8.141   0.949  0.00  0.00    +0.213 C 
ATOM     25  O   UNL     1       7.881  -7.406   1.866  0.00  0.00    -0.276 OA
ATOM     26  N   UNL     1       7.766  -9.471   1.062  0.00  0.00    -0.312 N 
ATOM     27  H   UNL     1       7.526 -10.058   0.328  0.00  0.00    +0.149 HD
BRANCH  26  28
ATOM     28  C   UNL     1       8.332 -10.029   2.292  0.00  0.00    +0.073 C 
ATOM     29  C   UNL     1       9.859  -9.969   2.225  0.00  0.00    +0.022 C 
ATOM     30  C   UNL     1      10.450 -10.553   3.510  0.00  0.00    +0.002 C 
ATOM     31  C   UNL     1      10.003 -12.008   3.662  0.00  0.00    +0.000 C 
ATOM     32  C   UNL     1       8.476 -12.068   3.729  0.00  0.00    +0.002 C 
ATOM     33  C   UNL     1       7.885 -11.485   2.444  0.00  0.00    +0.022 C 
ENDBRANCH  26  28
ENDBRANCH  23  24
ENDBRANCH  22  23
ENDBRANCH   4  22
TORSDOF 8
