REMARK  Name = ZINC47135933
REMARK  5 active torsions:
REMARK  status: ('A' for Active; 'I' for Inactive)
REMARK    1  A    between atoms: C_1  and  C_2
REMARK    2  A    between atoms: N_7  and  S_9
REMARK    3  A    between atoms: S_9  and  C_12
REMARK    4  A    between atoms: C_15  and  N_18
REMARK    5  A    between atoms: N_18  and  C_19
REMARK                            x       y       z     vdW  Elec       q    Type
REMARK                         _______ _______ _______ _____ _____    ______ ____
ROOT
ATOM      1  C   UNL     1       1.933  -2.866  -0.598  0.00  0.00    +0.106 A 
ATOM      2  C   UNL     1       1.458  -3.964  -1.292  0.00  0.00    +0.030 A 
ATOM      3  C   UNL     1       2.089  -4.378  -2.449  0.00  0.00    +0.025 A 
ATOM      4  C   UNL     1       3.202  -3.689  -2.915  0.00  0.00    +0.030 A 
ATOM      5  C   UNL     1       3.677  -2.587  -2.216  0.00  0.00    +0.025 A 
ATOM      6  C   UNL     1       3.038  -2.175  -1.063  0.00  0.00    +0.030 A 
ENDROOT
BRANCH   1   7
ATOM      7  S   UNL     1       1.126  -2.342   0.877  0.00  0.00    +0.061 S 
ATOM      8  O   UNL     1       2.088  -1.617   1.632  0.00  0.00    -0.153 OA
ATOM      9  O   UNL     1       0.450  -3.479   1.397  0.00  0.00    -0.153 OA
BRANCH   7  15
ATOM     10  C   UNL     1       0.033   2.210  -1.085  0.00  0.00    +0.009 C 
ATOM     11  C   UNL     1      -0.148   0.691  -1.030  0.00  0.00    +0.002 C 
ATOM     12  C   UNL     1      -1.616   0.342  -1.289  0.00  0.00    +0.006 C 
ATOM     13  C   UNL     1      -1.792  -1.178  -1.266  0.00  0.00    +0.017 C 
ATOM     14  C   UNL     1      -1.405  -1.712   0.117  0.00  0.00    +0.109 C 
ATOM     15  N   UNL     1      -0.045  -1.257   0.436  0.00  0.00    -0.176 NA
ATOM     16  C   UNL     1       0.258   0.179   0.356  0.00  0.00    +0.112 C 
ENDBRANCH   7  15
ENDBRANCH   1   7
BRANCH   4  17
ATOM     17  N   UNL     1       3.843  -4.105  -4.085  0.00  0.00    -0.306 N 
ATOM     18  H   UNL     1       4.558  -3.570  -4.463  0.00  0.00    +0.150 HD
BRANCH  17  19
ATOM     19  C   UNL     1       3.435  -5.350  -4.740  0.00  0.00    +0.296 C 
ATOM     20  C   UNL     1       4.617  -5.982  -5.429  0.00  0.00    +0.025 A 
ATOM     21  C   UNL     1       5.830  -6.455  -4.985  0.00  0.00    +0.010 A 
ATOM     22  C   UNL     1       6.733  -6.995  -5.887  0.00  0.00    +0.000 A 
ATOM     23  C   UNL     1       6.420  -7.060  -7.233  0.00  0.00    +0.001 A 
ATOM     24  C   UNL     1       5.205  -6.588  -7.689  0.00  0.00    +0.015 A 
ATOM     25  C   UNL     1       4.291  -6.044  -6.787  0.00  0.00    +0.067 A 
ATOM     26  C   UNL     1       2.944  -5.468  -6.948  0.00  0.00    +0.342 C 
ATOM     27  O   UNL     1       2.352  -5.365  -8.004  0.00  0.00    -0.245 OA
ATOM     28  O   UNL     1       2.466  -5.073  -5.755  0.00  0.00    -0.435 OA
ENDBRANCH  17  19
ENDBRANCH   4  17
TORSDOF 4
