REMARK  Name = ZINC03340878
REMARK  12 active torsions:
REMARK  status: ('A' for Active; 'I' for Inactive)
REMARK    1  A    between atoms: C_1  and  C_2
REMARK    2  A    between atoms: C_2  and  C_3
REMARK    3  A    between atoms: C_2  and  C_4
REMARK    4  A    between atoms: C_9  and  N_10
REMARK    5  A    between atoms: C_11  and  C_30
REMARK    6  A    between atoms: C_14  and  S_15
REMARK    7  A    between atoms: S_15  and  C_16
REMARK    8  A    between atoms: C_16  and  C_17
REMARK    9  A    between atoms: C_17  and  C_19
REMARK   10  A    between atoms: C_20  and  N_29
REMARK   11  A    between atoms: N_21  and  C_28
REMARK   12  A    between atoms: N_24  and  C_27
REMARK                            x       y       z     vdW  Elec       q    Type
REMARK                         _______ _______ _______ _____ _____    ______ ____
ROOT
ATOM      1  N   UNL     1       1.291   1.727  -0.119  0.00  0.00    -0.270 N 
ATOM      2  C   UNL     1      -0.020   1.304  -0.135  0.00  0.00    +0.169 A 
ATOM      3  N   UNL     1      -0.001  -0.008  -0.140  0.00  0.00    -0.128 NA
ATOM      4  N   UNL     1       1.212  -0.431  -0.127  0.00  0.00    -0.122 NA
ATOM      5  C   UNL     1       2.046   0.585  -0.114  0.00  0.00    +0.197 A 
ENDROOT
BRANCH   2   6
ATOM      6  C   UNL     1      -1.221   2.166  -0.152  0.00  0.00    +0.020 A 
ATOM      7  C   UNL     1      -1.105   3.524  -0.452  0.00  0.00    +0.013 A 
ATOM      8  C   UNL     1      -2.229   4.322  -0.472  0.00  0.00    +0.021 A 
ATOM      9  C   UNL     1      -3.471   3.781  -0.182  0.00  0.00    +0.041 A 
ATOM     10  C   UNL     1      -3.592   2.435   0.122  0.00  0.00    +0.021 A 
ATOM     11  C   UNL     1      -2.475   1.626   0.139  0.00  0.00    +0.013 A 
ATOM     12 CL   UNL     1      -4.881   4.793  -0.201  0.00  0.00    -0.084 Cl
ENDBRANCH   2   6
BRANCH   1  18
ATOM     13  C   UNL     1       2.006   3.708  -1.305  0.00  0.00    -0.021 A 
ATOM     14  C   UNL     1       2.459   5.013  -1.292  0.00  0.00    +0.006 A 
ATOM     15  C   UNL     1       2.673   5.660  -0.088  0.00  0.00    +0.000 A 
ATOM     16  C   UNL     1       2.430   5.005   1.105  0.00  0.00    +0.002 A 
ATOM     17  C   UNL     1       1.972   3.702   1.098  0.00  0.00    +0.026 A 
ATOM     18  C   UNL     1       1.756   3.050  -0.108  0.00  0.00    +0.054 A 
BRANCH  13  20
ATOM     19  C   UNL     1       0.735   3.768  -3.433  0.00  0.00    +0.012 C 
ATOM     20  C   UNL     1       1.778   3.002  -2.616  0.00  0.00    +0.015 C 
ATOM     21  C   UNL     1       3.092   2.940  -3.397  0.00  0.00    +0.012 C 
ENDBRANCH  13  20
ENDBRANCH   1  18
BRANCH   5  22
ATOM     22  S   UNL     1       3.805   0.495  -0.095  0.00  0.00    -0.078 S 
BRANCH  22  23
ATOM     23  C   UNL     1       4.027  -1.302  -0.099  0.00  0.00    +0.157 C 
BRANCH  23  24
ATOM     24  C   UNL     1       5.499  -1.626  -0.083  0.00  0.00    +0.182 C 
ATOM     25  O   UNL     1       6.318  -0.729  -0.071  0.00  0.00    -0.291 OA
BRANCH  24  26
ATOM     26  C   UNL     1       5.925  -2.971  -0.083  0.00  0.00    +0.120 A 
ATOM     27  C   UNL     1       7.287  -3.301  -0.193  0.00  0.00    +0.116 A 
ATOM     28  N   UNL     1       7.651  -4.617  -0.183  0.00  0.00    -0.284 N 
ATOM     29  C   UNL     1       6.736  -5.593  -0.082  0.00  0.00    +0.333 A 
ATOM     30  O   UNL     1       7.111  -6.749  -0.083  0.00  0.00    -0.246 OA
ATOM     31  N   UNL     1       5.421  -5.340   0.020  0.00  0.00    -0.263 N 
ATOM     32  C   UNL     1       4.959  -4.072   0.025  0.00  0.00    +0.269 A 
ATOM     33  O   UNL     1       3.767  -3.846   0.116  0.00  0.00    -0.267 OA
ATOM     34  C   UNL     1       4.476  -6.454   0.126  0.00  0.00    +0.157 C 
ATOM     35  C   UNL     1       9.069  -4.970  -0.291  0.00  0.00    +0.155 C 
BRANCH  27  36
ATOM     36  N   UNL     1       8.228  -2.324  -0.301  0.00  0.00    -0.344 N 
ATOM     37  H   UNL     1       7.971  -1.392  -0.223  0.00  0.00    +0.144 HD
ATOM     38  H   UNL     1       9.156  -2.559  -0.457  0.00  0.00    +0.144 HD
ENDBRANCH  27  36
ENDBRANCH  24  26
ENDBRANCH  23  24
ENDBRANCH  22  23
ENDBRANCH   5  22
TORSDOF 8
