REMARK  Name = ZINC52869418
REMARK  8 active torsions:
REMARK  status: ('A' for Active; 'I' for Inactive)
REMARK    1  A    between atoms: C_1  and  N_2
REMARK    2  A    between atoms: N_2  and  C_3
REMARK    3  A    between atoms: C_14  and  C_16
REMARK    4  A    between atoms: C_16  and  N_17
REMARK    5  A    between atoms: N_17  and  C_18
REMARK    6  A    between atoms: N_17  and  C_21
REMARK    7  A    between atoms: C_18  and  C_19
REMARK    8  A    between atoms: C_21  and  C_22
REMARK                            x       y       z     vdW  Elec       q    Type
REMARK                         _______ _______ _______ _____ _____    ______ ____
ROOT
ATOM      1  C   UNL     1      -0.397   1.786  -0.130  0.00  0.00    +0.132 C 
ATOM      2  N   UNL     1      -0.300   0.327  -0.033  0.00  0.00    -0.299 N 
ATOM      3  C   UNL     1      -0.114  -0.411  -1.145  0.00  0.00    +0.199 C 
ATOM      4  O   UNL     1      -0.033  -1.619  -1.065  0.00  0.00    -0.278 OA
ENDROOT
BRANCH   2   5
ATOM      5  C   UNL     1      -0.405  -0.329   1.273  0.00  0.00    +0.106 C 
ATOM      6  C   UNL     1       0.719   0.171   2.179  0.00  0.00    +0.027 C 
ATOM      7  C   UNL     1       0.467  -0.355   3.597  0.00  0.00    +0.007 C 
ATOM      8  C   UNL     1      -0.751   0.368   4.169  0.00  0.00    +0.035 C 
ATOM      9  C   UNL     1      -1.909   0.296   3.208  0.00  0.00    -0.042 A 
ATOM     10  C   UNL     1      -1.749  -0.019   1.878  0.00  0.00    -0.024 A 
ATOM     11  C   UNL     1      -2.858  -0.061   1.044  0.00  0.00    +0.006 A 
ATOM     12  C   UNL     1      -4.118   0.208   1.538  0.00  0.00    +0.000 A 
ATOM     13  C   UNL     1      -4.278   0.522   2.875  0.00  0.00    +0.000 A 
ATOM     14  C   UNL     1      -3.178   0.564   3.704  0.00  0.00    +0.004 A 
ENDBRANCH   2   5
BRANCH   3  15
ATOM     15  C   UNL     1      -0.006   0.263  -2.488  0.00  0.00    +0.020 C 
BRANCH  15  16
ATOM     16  N   UNL     1       0.056  -0.756  -3.545  0.00  0.00    +0.390 N 
ATOM     17  H   UNL     1       0.798  -1.408  -3.339  0.00  0.00    -0.080 HD
BRANCH  16  18
ATOM     18  C   UNL     1      -1.224  -1.474  -3.608  0.00  0.00    -0.051 C 
BRANCH  18  19
ATOM     19  C   UNL     1      -1.119  -2.599  -4.606  0.00  0.00    -0.053 C 
ATOM     20  C   UNL     1      -1.405  -3.825  -4.242  0.00  0.00    +0.002 C 
ENDBRANCH  18  19
ENDBRANCH  16  18
BRANCH  16  21
ATOM     21  C   UNL     1       0.319  -0.107  -4.836  0.00  0.00    -0.051 C 
BRANCH  21  22
ATOM     22  C   UNL     1       1.695   0.506  -4.820  0.00  0.00    -0.053 C 
ATOM     23  C   UNL     1       2.565   0.188  -5.746  0.00  0.00    +0.002 C 
ENDBRANCH  21  22
ENDBRANCH  16  21
ENDBRANCH  15  16
ENDBRANCH   3  15
TORSDOF 7
