REMARK  Name = ZINC20700283
REMARK  2 active torsions:
REMARK  status: ('A' for Active; 'I' for Inactive)
REMARK    1  A    between atoms: C_5  and  C_7
REMARK    2  A    between atoms: C_17  and  N_24
REMARK                            x       y       z     vdW  Elec       q    Type
REMARK                         _______ _______ _______ _____ _____    ______ ____
ROOT
ATOM      1  C   UNL     1       1.392   4.719   0.141  0.00  0.00    +0.106 C 
ATOM      2  C   UNL     1       0.757   3.367   0.388  0.00  0.00    +0.029 C 
ATOM      3  C   UNL     1       1.265   2.174  -0.431  0.00  0.00    +0.033 C 
ATOM      4  C   UNL     1       0.012   1.298  -0.501  0.00  0.00    -0.030 C 
ATOM      5  C   UNL     1      -1.076   2.053  -0.389  0.00  0.00    -0.023 C 
ATOM      6  C   UNL     1      -0.656   3.470  -0.266  0.00  0.00    +0.051 C 
ATOM      7  C   UNL     1      -1.417   4.465   0.519  0.00  0.00    +0.014 A 
ATOM      8  C   UNL     1      -2.783   4.366   0.687  0.00  0.00    +0.132 A 
ATOM      9  C   UNL     1      -3.475   5.331   1.393  0.00  0.00    +0.036 A 
ATOM     10  C   UNL     1      -2.792   6.405   1.935  0.00  0.00    +0.042 A 
ATOM     11  C   UNL     1      -1.426   6.507   1.780  0.00  0.00    +0.145 A 
ATOM     12  C   UNL     1      -0.711   5.534   1.075  0.00  0.00    +0.069 A 
ATOM     13  N   UNL     1       0.671   5.694   0.976  0.00  0.00    -0.334 N 
ATOM     14  F   UNL     1      -0.770   7.560   2.316  0.00  0.00    -0.204 F 
ATOM     15  H   UNL     1       1.223   6.499   1.483  0.00  0.00    +0.147 HD
ENDROOT
BRANCH   1  20
ATOM     16  C   UNL     1       0.074   6.196  -3.074  0.00  0.00    +0.000 A 
ATOM     17  C   UNL     1       1.025   5.771  -3.983  0.00  0.00    +0.001 A 
ATOM     18  C   UNL     1       2.095   5.006  -3.559  0.00  0.00    +0.020 A 
ATOM     19  C   UNL     1       2.217   4.669  -2.222  0.00  0.00    +0.046 A 
ATOM     20  C   UNL     1       1.263   5.090  -1.313  0.00  0.00    -0.009 A 
ATOM     21  C   UNL     1       0.193   5.856  -1.739  0.00  0.00    +0.007 A 
ATOM     22 CL   UNL     1       3.564   3.715  -1.687  0.00  0.00    -0.083 Cl
ENDBRANCH   1  20
BRANCH   8  23
ATOM     23  N   UNL     1      -3.512   3.217   0.106  0.00  0.00    +0.057 N 
ATOM     24  O   UNL     1      -3.372   2.939  -1.071  0.00  0.00    -0.126 OA
ATOM     25  O   UNL     1      -4.253   2.549   0.806  0.00  0.00    -0.126 OA
ENDBRANCH   8  23
TORSDOF 2
