REMARK  Name = ZINC36610169
REMARK  16 active torsions:
REMARK  status: ('A' for Active; 'I' for Inactive)
REMARK    1  A    between atoms: C_1  and  C_2
REMARK    2  A    between atoms: C_2  and  C_3
REMARK    3  A    between atoms: C_2  and  C_4
REMARK    4  A    between atoms: C_2  and  C_5
REMARK    5  A    between atoms: C_5  and  C_6
REMARK    6  A    between atoms: C_6  and  C_7
REMARK    7  A    between atoms: C_6  and  C_8
REMARK    8  A    between atoms: C_6  and  N_9
REMARK    9  A    between atoms: C_10  and  C_12
REMARK   10  A    between atoms: C_12  and  C_14
REMARK   11  A    between atoms: C_12  and  N_23
REMARK   12  A    between atoms: C_17  and  N_20
REMARK   13  A    between atoms: N_23  and  C_24
REMARK   14  A    between atoms: C_30  and  C_32
REMARK   15  A    between atoms: C_33  and  O_39
REMARK   16  A    between atoms: C_37  and  O_38
REMARK                            x       y       z     vdW  Elec       q    Type
REMARK                         _______ _______ _______ _____ _____    ______ ____
ROOT
ATOM      1  C   UNL     1       5.286  -0.430  -4.204  0.00  0.00    +0.197 C 
ENDROOT
BRANCH   1   2
ATOM      2  C   UNL     1       5.190  -1.889  -4.570  0.00  0.00    -0.018 A 
ATOM      3  C   UNL     1       6.002  -2.814  -3.941  0.00  0.00    +0.008 A 
ATOM      4  C   UNL     1       5.914  -4.152  -4.276  0.00  0.00    +0.033 A 
ATOM      5  C   UNL     1       5.013  -4.566  -5.239  0.00  0.00    +0.126 A 
ATOM      6  C   UNL     1       4.200  -3.641  -5.867  0.00  0.00    +0.033 A 
ATOM      7  C   UNL     1       4.285  -2.303  -5.529  0.00  0.00    +0.008 A 
BRANCH   5   8
ATOM      8  N   UNL     1       4.919  -5.999  -5.599  0.00  0.00    +0.056 N 
ATOM      9  O   UNL     1       5.630  -6.807  -5.050  0.00  0.00    -0.126 OA
ATOM     10  O   UNL     1       4.131  -6.360  -6.441  0.00  0.00    -0.126 OA
ENDBRANCH   5   8
ENDBRANCH   1   2
BRANCH   1  12
ATOM     11  N   UNL     1       3.562  -0.576  -2.437  0.00  0.00    -0.308 N 
ATOM     12  C   UNL     1       4.819  -0.236  -2.785  0.00  0.00    +0.239 C 
ATOM     13  O   UNL     1       5.574   0.227  -1.956  0.00  0.00    -0.273 OA
ATOM     14  H   UNL     1       2.959  -0.947  -3.099  0.00  0.00    +0.149 HD
BRANCH  11  15
ATOM     15  C   UNL     1       3.108  -0.387  -1.057  0.00  0.00    +0.030 C 
ATOM     16  C   UNL     1       3.349   1.063  -0.635  0.00  0.00    +0.031 C 
ATOM     17  C   UNL     1       3.887  -1.324  -0.131  0.00  0.00    +0.031 C 
BRANCH  15  18
ATOM     18  C   UNL     1       1.614  -0.705  -0.964  0.00  0.00    +0.031 C 
BRANCH  18  20
ATOM     19  C   UNL     1       1.036  -0.981  -3.378  0.00  0.00    +0.010 C 
ATOM     20  C   UNL     1       0.885  -0.077  -2.153  0.00  0.00    -0.036 C 
ATOM     21  C   UNL     1       1.488   1.296  -2.455  0.00  0.00    +0.010 C 
ATOM     22  C   UNL     1      -0.599   0.080  -1.815  0.00  0.00    +0.010 C 
ENDBRANCH  18  20
ENDBRANCH  15  18
ENDBRANCH  11  15
ENDBRANCH   1  12
BRANCH   1  23
ATOM     23  N   UNL     1       6.678   0.013  -4.325  0.00  0.00    -0.251 N 
ATOM     24  C   UNL     1       6.994   1.306  -4.117  0.00  0.00    +0.259 C 
ATOM     25  O   UNL     1       6.140   2.088  -3.743  0.00  0.00    -0.269 OA
BRANCH  23  26
ATOM     26  C   UNL     1       7.678  -0.907  -4.657  0.00  0.00    +0.038 A 
ATOM     27  C   UNL     1       7.708  -1.475  -5.924  0.00  0.00    +0.023 A 
ATOM     28  C   UNL     1       8.697  -2.383  -6.249  0.00  0.00    +0.002 A 
ATOM     29  C   UNL     1       9.656  -2.726  -5.314  0.00  0.00    +0.000 A 
ATOM     30  C   UNL     1       9.629  -2.163  -4.051  0.00  0.00    +0.002 A 
ATOM     31  C   UNL     1       8.646  -1.250  -3.723  0.00  0.00    +0.023 A 
ENDBRANCH  23  26
BRANCH  24  32
ATOM     32  C   UNL     1       8.372   1.772  -4.342  0.00  0.00    +0.120 A 
ATOM     33  C   UNL     1       8.804   2.100  -5.636  0.00  0.00    +0.133 A 
ATOM     34  C   UNL     1      10.102   2.539  -5.836  0.00  0.00    +0.046 A 
ATOM     35  C   UNL     1      10.972   2.654  -4.767  0.00  0.00    +0.007 A 
ATOM     36  C   UNL     1      10.556   2.333  -3.488  0.00  0.00    +0.046 A 
ATOM     37  C   UNL     1       9.260   1.898  -3.264  0.00  0.00    +0.133 A 
BRANCH  37  38
ATOM     38  O   UNL     1       8.853   1.589  -2.007  0.00  0.00    -0.506 OA
ATOM     39  H   UNL     1       9.075   0.689  -1.732  0.00  0.00    +0.292 HD
ENDBRANCH  37  38
BRANCH  33  40
ATOM     40  O   UNL     1       7.953   1.988  -6.687  0.00  0.00    -0.506 OA
ATOM     41  H   UNL     1       7.444   2.790  -6.868  0.00  0.00    +0.292 HD
ENDBRANCH  33  40
ENDBRANCH  24  32
ENDBRANCH   1  23
TORSDOF 11
