REMARK  Name = ZINC10418465
REMARK  9 active torsions:
REMARK  status: ('A' for Active; 'I' for Inactive)
REMARK    1  A    between atoms: C_1  and  C_2
REMARK    2  A    between atoms: C_2  and  C_3
REMARK    3  A    between atoms: C_9  and  S_16
REMARK    4  A    between atoms: N_10  and  C_13
REMARK    5  A    between atoms: C_13  and  C_14
REMARK    6  A    between atoms: S_16  and  C_17
REMARK    7  A    between atoms: C_17  and  C_18
REMARK    8  A    between atoms: N_23  and  C_24
REMARK    9  A    between atoms: C_30  and  C_32
REMARK                            x       y       z     vdW  Elec       q    Type
REMARK                         _______ _______ _______ _____ _____    ______ ____
ROOT
ATOM      1  S   UNL     1      -7.927   1.119   3.293  0.00  0.00    -0.078 S 
ENDROOT
BRANCH   1   8
ATOM      2  C   UNL     1      -8.574   3.313   9.476  0.00  0.00    -0.008 A 
ATOM      3  C   UNL     1      -9.609   3.107   8.648  0.00  0.00    +0.026 A 
ATOM      4  C   UNL     1      -9.355   2.621   7.302  0.00  0.00    +0.072 A 
ATOM      5  C   UNL     1      -7.998   2.407   6.994  0.00  0.00    +0.116 A 
ATOM      6  S   UNL     1      -7.159   2.860   8.491  0.00  0.00    -0.073 S 
ATOM      7  N   UNL     1      -7.607   1.960   5.807  0.00  0.00    -0.216 NA
ATOM      8  C   UNL     1      -8.485   1.706   4.858  0.00  0.00    +0.173 A 
ATOM      9  N   UNL     1      -9.821   1.886   5.072  0.00  0.00    -0.283 N 
ATOM     10  C   UNL     1     -10.284   2.332   6.254  0.00  0.00    +0.263 A 
ATOM     11  O   UNL     1     -11.481   2.487   6.429  0.00  0.00    -0.267 OA
BRANCH   2  13
ATOM     12  C   UNL     1      -8.718   2.618  11.852  0.00  0.00    +0.009 C 
ATOM     13  C   UNL     1      -8.601   3.809  10.899  0.00  0.00    +0.039 C 
ENDBRANCH   2  13
BRANCH   9  14
ATOM     14  C   UNL     1     -10.768   1.588   3.995  0.00  0.00    +0.154 C 
BRANCH  14  15
ATOM     15  C   UNL     1     -11.199   0.147   4.089  0.00  0.00    -0.013 C 
ATOM     16  C   UNL     1     -12.472  -0.153   4.160  0.00  0.00    +0.005 C 
ENDBRANCH  14  15
ENDBRANCH   9  14
ENDBRANCH   1   8
BRANCH   1  17
ATOM     17  C   UNL     1      -6.142   1.080   3.590  0.00  0.00    +0.173 C 
BRANCH  17  18
ATOM     18  C   UNL     1      -5.436   0.594   2.350  0.00  0.00    +0.231 C 
ATOM     19  O   UNL     1      -6.077   0.303   1.363  0.00  0.00    -0.274 OA
ATOM     20  N   UNL     1      -4.093   0.484   2.339  0.00  0.00    -0.239 N 
ATOM     21  C   UNL     1      -3.462   0.049   1.230  0.00  0.00    +0.306 C 
ATOM     22  O   UNL     1      -4.105  -0.243   0.240  0.00  0.00    -0.252 OA
ATOM     23  N   UNL     1      -2.119  -0.061   1.218  0.00  0.00    -0.296 N 
ATOM     24  H   UNL     1      -3.580   0.717   3.128  0.00  0.00    +0.159 HD
ATOM     25  H   UNL     1      -1.606   0.172   2.008  0.00  0.00    +0.151 HD
BRANCH  23  26
ATOM     26  C   UNL     1      -1.433  -0.534   0.013  0.00  0.00    +0.077 C 
ATOM     27  C   UNL     1      -1.413  -2.063   0.004  0.00  0.00    +0.022 C 
ATOM     28  C   UNL     1      -0.673  -2.570   1.244  0.00  0.00    +0.002 C 
ATOM     29  C   UNL     1       0.763  -2.041   1.233  0.00  0.00    +0.000 C 
ATOM     30  C   UNL     1       0.742  -0.511   1.242  0.00  0.00    +0.005 C 
ATOM     31  C   UNL     1       0.002  -0.004   0.002  0.00  0.00    +0.006 C 
ATOM     32  C   UNL     1      -0.019   1.526   0.010  0.00  0.00    +0.009 C 
ENDBRANCH  23  26
ENDBRANCH  17  18
ENDBRANCH   1  17
TORSDOF 7
