REMARK  Name = ZINC51383809
REMARK  7 active torsions:
REMARK  status: ('A' for Active; 'I' for Inactive)
REMARK    1  A    between atoms: C_4  and  C_7
REMARK    2  A    between atoms: C_7  and  C_8
REMARK    3  A    between atoms: C_8  and  C_9
REMARK    4  A    between atoms: C_8  and  N_12
REMARK    5  A    between atoms: C_13  and  C_15
REMARK    6  A    between atoms: C_18  and  C_20
REMARK    7  A    between atoms: C_23  and  N_26
REMARK                            x       y       z     vdW  Elec       q    Type
REMARK                         _______ _______ _______ _____ _____    ______ ____
ROOT
ATOM      1  N   UNL     1       4.451   0.315   2.057  0.00  0.00    -0.298 N 
ATOM      2  C   UNL     1       4.378   0.412   3.400  0.00  0.00    +0.264 C 
ATOM      3  O   UNL     1       4.079  -0.562   4.064  0.00  0.00    -0.268 OA
ATOM      4  H   UNL     1       4.689   1.092   1.527  0.00  0.00    +0.150 HD
ENDROOT
BRANCH   2   5
ATOM      5  C   UNL     1       4.659   1.698   4.062  0.00  0.00    +0.133 A 
ATOM      6  C   UNL     1       4.592   1.805   5.426  0.00  0.00    +0.080 A 
ATOM      7  S   UNL     1       4.986   3.422   5.682  0.00  0.00    -0.075 S 
ATOM      8  C   UNL     1       5.225   3.898   3.980  0.00  0.00    +0.109 A 
ATOM      9  N   UNL     1       4.986   2.765   3.346  0.00  0.00    -0.234 NA
BRANCH   8  10
ATOM     10  C   UNL     1       5.598   5.217   3.424  0.00  0.00    +0.007 A 
ATOM     11  C   UNL     1       5.729   5.385   2.045  0.00  0.00    +0.013 A 
ATOM     12  C   UNL     1       6.078   6.617   1.533  0.00  0.00    +0.033 A 
ATOM     13  C   UNL     1       6.297   7.686   2.383  0.00  0.00    +0.126 A 
ATOM     14  C   UNL     1       6.169   7.527   3.752  0.00  0.00    +0.033 A 
ATOM     15  C   UNL     1       5.816   6.301   4.276  0.00  0.00    +0.013 A 
BRANCH  13  16
ATOM     16  N   UNL     1       6.671   9.006   1.827  0.00  0.00    +0.056 N 
ATOM     17  O   UNL     1       6.785   9.148   0.632  0.00  0.00    -0.126 OA
ATOM     18  O   UNL     1       6.863   9.942   2.568  0.00  0.00    -0.126 OA
ENDBRANCH  13  16
ENDBRANCH   8  10
ENDBRANCH   2   5
BRANCH   1  19
ATOM     19  C   UNL     1       4.171  -0.963   1.399  0.00  0.00    +0.163 C 
BRANCH  19  20
ATOM     20  C   UNL     1       5.422  -1.804   1.383  0.00  0.00    +0.231 C 
ATOM     21  O   UNL     1       6.446  -1.378   1.874  0.00  0.00    -0.274 OA
ATOM     22  N   UNL     1       5.402  -3.031   0.824  0.00  0.00    -0.328 N 
ATOM     23  H   UNL     1       4.583  -3.372   0.432  0.00  0.00    +0.145 HD
ATOM     24  H   UNL     1       6.207  -3.572   0.814  0.00  0.00    +0.145 HD
ENDBRANCH  19  20
BRANCH  19  25
ATOM     25  C   UNL     1       3.711  -0.707  -0.038  0.00  0.00    +0.067 C 
BRANCH  25  29
ATOM     26  C   UNL     1      -0.017   1.378   0.010  0.00  0.00    +0.000 A 
ATOM     27  C   UNL     1       1.171   2.086   0.002  0.00  0.00    +0.000 A 
ATOM     28  C   UNL     1       2.377   1.411  -0.013  0.00  0.00    +0.004 A 
ATOM     29  C   UNL     1       2.396   0.029  -0.020  0.00  0.00    -0.045 A 
ATOM     30  C   UNL     1       1.208  -0.679  -0.012  0.00  0.00    +0.004 A 
ATOM     31  C   UNL     1       0.002  -0.004   0.002  0.00  0.00    +0.000 A 
ENDBRANCH  25  29
ENDBRANCH  19  25
ENDBRANCH   1  19
TORSDOF 7
