REMARK  Name = ZINC06181398
REMARK  12 active torsions:
REMARK  status: ('A' for Active; 'I' for Inactive)
REMARK    1  A    between atoms: C_1  and  C_2
REMARK    2  A    between atoms: C_2  and  N_3
REMARK    3  A    between atoms: N_3  and  C_4
REMARK    4  A    between atoms: N_3  and  S_6
REMARK    5  A    between atoms: C_4  and  C_5
REMARK    6  A    between atoms: S_6  and  C_9
REMARK    7  A    between atoms: C_17  and  C_21
REMARK    8  A    between atoms: N_23  and  C_24
REMARK    9  A    between atoms: C_24  and  C_25
REMARK   10  A    between atoms: C_25  and  C_26
REMARK   11  A    between atoms: C_26  and  N_27
REMARK   12  A    between atoms: C_32  and  C_34
REMARK                            x       y       z     vdW  Elec       q    Type
REMARK                         _______ _______ _______ _____ _____    ______ ____
ROOT
ATOM      1  C   UNL     1      -0.346   0.579  -3.536  0.00  0.00    +0.106 A 
ATOM      2  C   UNL     1      -1.412   1.442  -3.327  0.00  0.00    +0.030 A 
ATOM      3  C   UNL     1      -1.540   2.595  -4.070  0.00  0.00    +0.028 A 
ATOM      4  C   UNL     1      -0.594   2.903  -5.045  0.00  0.00    +0.050 A 
ATOM      5  C   UNL     1       0.484   2.027  -5.255  0.00  0.00    +0.048 A 
ATOM      6  C   UNL     1       0.604   0.866  -4.491  0.00  0.00    +0.042 A 
ATOM      7  C   UNL     1       1.479   2.365  -6.290  0.00  0.00    +0.202 A 
ATOM      8  O   UNL     1       2.433   1.641  -6.514  0.00  0.00    -0.286 OA
ATOM      9  C   UNL     1       1.270   3.614  -7.040  0.00  0.00    +0.100 A 
ATOM     10  C   UNL     1       0.172   4.394  -6.743  0.00  0.00    +0.100 A 
ATOM     11  N   UNL     1      -0.711   4.053  -5.795  0.00  0.00    -0.360 N 
ATOM     12  H   UNL     1      -1.465   4.640  -5.630  0.00  0.00    +0.165 HD
ENDROOT
BRANCH   9  13
ATOM     13  C   UNL     1       2.217   4.023  -8.089  0.00  0.00    +0.249 C 
ATOM     14  O   UNL     1       1.982   5.002  -8.773  0.00  0.00    -0.270 OA
ATOM     15  N   UNL     1       3.345   3.315  -8.292  0.00  0.00    -0.311 N 
ATOM     16  H   UNL     1       3.498   2.494  -7.799  0.00  0.00    +0.149 HD
BRANCH  15  17
ATOM     17  C   UNL     1       4.341   3.785  -9.258  0.00  0.00    +0.102 C 
BRANCH  17  18
ATOM     18  C   UNL     1       5.516   2.805  -9.297  0.00  0.00    +0.000 C 
BRANCH  18  19
ATOM     19  C   UNL     1       6.556   3.296 -10.306  0.00  0.00    -0.077 C 
BRANCH  19  20
ATOM     20  N   UNL     1       7.684   2.356 -10.343  0.00  0.00    +0.381 N 
ATOM     21  C   UNL     1       8.363   2.357  -9.041  0.00  0.00    -0.078 C 
ATOM     22  C   UNL     1       9.489   1.321  -9.048  0.00  0.00    -0.019 C 
ATOM     23  C   UNL     1      10.493   1.672 -10.149  0.00  0.00    -0.003 C 
ATOM     24  C   UNL     1       9.759   1.741 -11.492  0.00  0.00    -0.016 C 
ATOM     25  C   UNL     1       8.624   2.762 -11.395  0.00  0.00    -0.072 C 
ATOM     26  C   UNL     1       7.888   2.835 -12.735  0.00  0.00    -0.013 C 
ATOM     27  H   UNL     1       7.341   1.428 -10.540  0.00  0.00    -0.081 HD
ENDBRANCH  19  20
ENDBRANCH  18  19
ENDBRANCH  17  18
ENDBRANCH  15  17
ENDBRANCH   9  13
BRANCH   1  28
ATOM     28  S   UNL     1      -0.204  -0.889  -2.571  0.00  0.00    +0.061 S 
ATOM     29  O   UNL     1       0.583  -1.798  -3.329  0.00  0.00    -0.153 OA
ATOM     30  O   UNL     1      -1.514  -1.207  -2.121  0.00  0.00    -0.153 OA
BRANCH  28  31
ATOM     31  N   UNL     1       0.680  -0.506  -1.224  0.00  0.00    -0.177 NA
BRANCH  31  33
ATOM     32  C   UNL     1      -0.005   1.494   0.004  0.00  0.00    +0.022 C 
ATOM     33  C   UNL     1       0.003  -0.035  -0.013  0.00  0.00    +0.106 C 
ENDBRANCH  31  33
BRANCH  31  34
ATOM     34  C   UNL     1       2.139  -0.638  -1.244  0.00  0.00    +0.106 C 
ATOM     35  C   UNL     1       2.536  -1.999  -0.670  0.00  0.00    +0.022 C 
ENDBRANCH  31  34
ENDBRANCH  28  31
ENDBRANCH   1  28
TORSDOF 9
