REMARK  Name = ZINC12705545
REMARK  11 active torsions:
REMARK  status: ('A' for Active; 'I' for Inactive)
REMARK    1  A    between atoms: C_1  and  C_2
REMARK    2  A    between atoms: C_5  and  C_7
REMARK    3  A    between atoms: N_10  and  C_12
REMARK    4  A    between atoms: C_12  and  C_13
REMARK    5  A    between atoms: N_15  and  C_16
REMARK    6  A    between atoms: N_15  and  C_22
REMARK    7  A    between atoms: C_22  and  C_24
REMARK    8  A    between atoms: C_22  and  C_32
REMARK    9  A    between atoms: C_27  and  O_30
REMARK   10  A    between atoms: O_30  and  C_31
REMARK   11  A    between atoms: N_34  and  C_35
REMARK                            x       y       z     vdW  Elec       q    Type
REMARK                         _______ _______ _______ _____ _____    ______ ____
ROOT
ATOM      1  C   UNL     1      -1.378   0.244  -1.889  0.00  0.00    +0.240 C 
ATOM      2  O   UNL     1      -1.907  -0.545  -1.136  0.00  0.00    -0.273 OA
ATOM      3  N   UNL     1      -0.267   0.904  -1.504  0.00  0.00    -0.281 N 
ENDROOT
BRANCH   3   4
ATOM      4  C   UNL     1       0.429   1.781  -2.448  0.00  0.00    +0.077 C 
ATOM      5  C   UNL     1       1.746   2.253  -1.829  0.00  0.00    +0.022 C 
ATOM      6  C   UNL     1       2.474   3.169  -2.815  0.00  0.00    +0.002 C 
ATOM      7  C   UNL     1       1.594   4.381  -3.129  0.00  0.00    +0.000 C 
ATOM      8  C   UNL     1       0.277   3.909  -3.748  0.00  0.00    +0.002 C 
ATOM      9  C   UNL     1      -0.450   2.993  -2.762  0.00  0.00    +0.022 C 
ENDBRANCH   3   4
BRANCH   1  10
ATOM     10  C   UNL     1      -1.962   0.488  -3.257  0.00  0.00    +0.264 C 
BRANCH  10  14
ATOM     11  C   UNL     1      -4.080  -2.205  -4.107  0.00  0.00    +0.239 A 
ATOM     12  N   UNL     1      -4.950  -1.334  -3.573  0.00  0.00    -0.105 NA
ATOM     13  N   UNL     1      -4.280  -0.291  -3.218  0.00  0.00    -0.045 NA
ATOM     14  N   UNL     1      -3.039  -0.473  -3.507  0.00  0.00    -0.154 N 
ATOM     15  N   UNL     1      -2.892  -1.631  -4.054  0.00  0.00    -0.127 NA
BRANCH  11  20
ATOM     16  C   UNL     1      -3.500  -6.722  -6.219  0.00  0.00    +0.086 C 
ATOM     17  C   UNL     1      -4.143  -5.520  -5.577  0.00  0.00    +0.103 A 
ATOM     18  C   UNL     1      -5.454  -5.385  -5.298  0.00  0.00    +0.045 A 
ATOM     19  C   UNL     1      -5.620  -4.120  -4.700  0.00  0.00    +0.053 A 
ATOM     20  C   UNL     1      -4.391  -3.543  -4.653  0.00  0.00    +0.175 A 
ATOM     21  O   UNL     1      -3.503  -4.405  -5.186  0.00  0.00    -0.457 OA
ENDBRANCH  11  20
ENDBRANCH  10  14
ENDBRANCH   1  10
BRANCH   3  22
ATOM     22  C   UNL     1       0.243   0.744  -0.140  0.00  0.00    +0.192 C 
BRANCH  22  23
ATOM     23  C   UNL     1       1.665   0.247  -0.190  0.00  0.00    -0.018 A 
ATOM     24  C   UNL     1       2.631   0.837   0.603  0.00  0.00    +0.009 A 
ATOM     25  C   UNL     1       3.934   0.380   0.563  0.00  0.00    +0.046 A 
ATOM     26  C   UNL     1       4.275  -0.665  -0.284  0.00  0.00    +0.120 A 
ATOM     27  C   UNL     1       3.305  -1.252  -1.083  0.00  0.00    +0.046 A 
ATOM     28  C   UNL     1       2.002  -0.795  -1.035  0.00  0.00    +0.009 A 
BRANCH  26  29
ATOM     29  O   UNL     1       5.557  -1.113  -0.330  0.00  0.00    -0.495 OA
ATOM     30  C   UNL     1       6.503  -0.462   0.520  0.00  0.00    +0.277 C 
ENDBRANCH  26  29
ENDBRANCH  22  23
BRANCH  22  31
ATOM     31  C   UNL     1       0.200   2.071   0.572  0.00  0.00    +0.238 C 
ATOM     32  O   UNL     1      -0.114   3.074  -0.034  0.00  0.00    -0.273 OA
ATOM     33  N   UNL     1       0.510   2.144   1.882  0.00  0.00    -0.311 N 
ATOM     34  H   UNL     1       0.761   1.342   2.366  0.00  0.00    +0.149 HD
BRANCH  33  35
ATOM     35  C   UNL     1       0.468   3.435   2.574  0.00  0.00    +0.073 C 
ATOM     36  C   UNL     1       1.796   4.167   2.369  0.00  0.00    +0.022 C 
ATOM     37  C   UNL     1       1.753   5.514   3.091  0.00  0.00    +0.002 C 
ATOM     38  C   UNL     1       1.522   5.285   4.586  0.00  0.00    +0.000 C 
ATOM     39  C   UNL     1       0.194   4.553   4.791  0.00  0.00    +0.002 C 
ATOM     40  C   UNL     1       0.238   3.205   4.069  0.00  0.00    +0.022 C 
ENDBRANCH  33  35
ENDBRANCH  22  31
ENDBRANCH   3  22
TORSDOF 9
