REMARK  Name = ZINC11815478
REMARK  12 active torsions:
REMARK  status: ('A' for Active; 'I' for Inactive)
REMARK    1  A    between atoms: C_1  and  C_2
REMARK    2  A    between atoms: C_4  and  C_7
REMARK    3  A    between atoms: C_7  and  N_8
REMARK    4  A    between atoms: C_9  and  C_11
REMARK    5  A    between atoms: C_11  and  O_12
REMARK    6  A    between atoms: O_12  and  C_13
REMARK    7  A    between atoms: C_16  and  C_27
REMARK    8  A    between atoms: C_18  and  C_19
REMARK    9  A    between atoms: C_19  and  N_63
REMARK   10  A    between atoms: C_20  and  N_63
REMARK   11  A    between atoms: C_21  and  C_22
REMARK   12  A    between atoms: C_21  and  N_63
REMARK                            x       y       z     vdW  Elec       q    Type
REMARK                         _______ _______ _______ _____ _____    ______ ____
ROOT
ATOM      1  C   UNL     1      -6.716   0.255   4.290  0.00  0.00    +0.123 A 
ATOM      2  C   UNL     1      -5.981   0.452   5.451  0.00  0.00    +0.046 A 
ATOM      3  C   UNL     1      -6.576   0.279   6.683  0.00  0.00    +0.012 A 
ATOM      4  C   UNL     1      -7.915  -0.105   6.761  0.00  0.00    -0.016 A 
ATOM      5  C   UNL     1      -8.648  -0.307   5.593  0.00  0.00    +0.014 A 
ATOM      6  C   UNL     1      -8.048  -0.127   4.364  0.00  0.00    -0.022 A 
ENDROOT
BRANCH   4   7
ATOM      7  C   UNL     1      -8.556  -0.299   8.084  0.00  0.00    -0.003 A 
ATOM      8  C   UNL     1      -9.740   0.292   8.367  0.00  0.00    +0.055 A 
ATOM      9  S   UNL     1     -10.081  -0.238  10.034  0.00  0.00    -0.096 S 
ATOM     10  C   UNL     1      -8.634  -1.225  10.316  0.00  0.00    +0.020 A 
ATOM     11  C   UNL     1      -7.917  -1.126   9.106  0.00  0.00    -0.003 A 
ATOM     12  C   UNL     1      -6.693  -1.828   9.035  0.00  0.00    +0.009 A 
ATOM     13  C   UNL     1      -6.246  -2.557  10.093  0.00  0.00    +0.001 A 
ATOM     14  C   UNL     1      -6.970  -2.638  11.274  0.00  0.00    +0.001 A 
ATOM     15  C   UNL     1      -8.172  -1.967  11.383  0.00  0.00    +0.015 A 
ENDBRANCH   4   7
BRANCH   1  16
ATOM     16  O   UNL     1      -6.127   0.432   3.077  0.00  0.00    -0.483 OA
BRANCH  16  17
ATOM     17  C   UNL     1      -4.754   0.826   3.074  0.00  0.00    +0.324 C 
BRANCH  17  19
ATOM     18  N   UNL     1      -3.004   1.338   1.403  0.00  0.00    -0.305 N 
ATOM     19  C   UNL     1      -4.276   0.972   1.652  0.00  0.00    +0.251 C 
ATOM     20  O   UNL     1      -5.038   0.759   0.732  0.00  0.00    -0.272 OA
ATOM     21  H   UNL     1      -2.395   1.508   2.138  0.00  0.00    +0.149 HD
BRANCH  18  22
ATOM     22  C   UNL     1      -2.540   1.480   0.020  0.00  0.00    +0.181 C 
BRANCH  22  26
ATOM     23  C   UNL     1       2.549   1.586  -0.013  0.00  0.00    +0.069 C 
ATOM     24  C   UNL     1       1.089   1.961   0.002  0.00  0.00    +0.081 A 
ATOM     25  C   UNL     1      -0.013   1.076   0.008  0.00  0.00    +0.072 A 
ATOM     26  C   UNL     1      -1.091   1.895   0.017  0.00  0.00    +0.154 A 
ATOM     27  O   UNL     1      -0.615   3.148   0.024  0.00  0.00    -0.358 OA
ATOM     28  N   UNL     1       0.594   3.165   0.013  0.00  0.00    -0.083 NA
ENDBRANCH  22  26
ENDBRANCH  18  22
ENDBRANCH  17  19
ENDBRANCH  16  17
ENDBRANCH   1  16
BRANCH   6  29
ATOM     29  C   UNL     1      -8.840  -0.345   3.100  0.00  0.00    -0.039 C 
BRANCH  29  31
ATOM     30  C   UNL     1      -7.130  -1.739   2.102  0.00  0.00    -0.095 C 
ATOM     31  N   UNL     1      -8.531  -1.690   2.570  0.00  0.00    +0.383 N 
ATOM     32  H   UNL     1      -8.657  -2.380   3.319  0.00  0.00    -0.081 HD
BRANCH  31  33
ATOM     33  C   UNL     1      -9.447  -2.016   1.457  0.00  0.00    -0.040 C 
BRANCH  33  34
ATOM     34  C   UNL     1      -9.261  -3.464   1.083  0.00  0.00    -0.026 A 
ATOM     35  C   UNL     1      -9.947  -4.571   1.633  0.00  0.00    +0.043 A 
ATOM     36  C   UNL     1      -9.475  -5.668   1.015  0.00  0.00    +0.195 A 
ATOM     37  O   UNL     1      -8.545  -5.287   0.124  0.00  0.00    -0.471 OA
ATOM     38  C   UNL     1      -8.415  -3.950   0.158  0.00  0.00    +0.196 A 
ENDBRANCH  33  34
ENDBRANCH  31  33
ENDBRANCH  29  31
ENDBRANCH   6  29
TORSDOF 10
