REMARK  Name = ZINC39669519
REMARK  5 active torsions:
REMARK  status: ('A' for Active; 'I' for Inactive)
REMARK    1  A    between atoms: C_4  and  C_7
REMARK    2  A    between atoms: C_10  and  C_12
REMARK    3  A    between atoms: C_16  and  C_25
REMARK    4  A    between atoms: N_27  and  C_28
REMARK    5  A    between atoms: C_28  and  C_29
REMARK                            x       y       z     vdW  Elec       q    Type
REMARK                         _______ _______ _______ _____ _____    ______ ____
ROOT
ATOM      1  C   UNL     1       7.124  -0.789  -0.245  0.00  0.00    +0.282 C 
ATOM      2  O   UNL     1       7.907  -1.712  -0.377  0.00  0.00    -0.267 OA
ATOM      3  N   UNL     1       7.571   0.482  -0.263  0.00  0.00    -0.294 N 
ATOM      4  C   UNL     1       6.798   1.720  -0.009  0.00  0.00    +0.121 C 
ATOM      5  C   UNL     1       7.754   2.618   0.808  0.00  0.00    +0.100 C 
ATOM      6  C   UNL     1       9.163   2.113   0.454  0.00  0.00    -0.004 C 
ATOM      7  C   UNL     1       8.949   0.957  -0.533  0.00  0.00    +0.115 C 
ATOM      8  C   UNL     1       9.873   1.606   1.706  0.00  0.00    -0.010 C 
ATOM      9  C   UNL     1      11.292   1.163   1.338  0.00  0.00    -0.082 C 
ATOM     10  N   UNL     1      12.025   2.296   0.760  0.00  0.00    +0.379 N 
ATOM     11  C   UNL     1      11.389   2.718  -0.493  0.00  0.00    -0.082 C 
ATOM     12  C   UNL     1       9.974   3.227  -0.203  0.00  0.00    -0.010 C 
ATOM     13  H   UNL     1      12.023   3.065   1.414  0.00  0.00    -0.086 HD
ATOM     14  H   UNL     1      12.978   2.018   0.576  0.00  0.00    -0.086 HD
ENDROOT
BRANCH   1  18
ATOM     15  C   UNL     1       3.531  -0.752   0.160  0.00  0.00    +0.136 A 
ATOM     16  C   UNL     1       3.744  -2.099   0.217  0.00  0.00    +0.050 A 
ATOM     17  C   UNL     1       5.120  -2.305   0.073  0.00  0.00    +0.055 A 
ATOM     18  C   UNL     1       5.695  -1.061  -0.067  0.00  0.00    +0.190 A 
ATOM     19  O   UNL     1       4.713  -0.137  -0.017  0.00  0.00    -0.450 OA
BRANCH  15  23
ATOM     20  C   UNL     1      -0.240   1.175   0.470  0.00  0.00    +0.000 A 
ATOM     21  C   UNL     1       0.916   1.932   0.395  0.00  0.00    +0.001 A 
ATOM     22  C   UNL     1       2.144   1.313   0.294  0.00  0.00    +0.011 A 
ATOM     23  C   UNL     1       2.220  -0.082   0.268  0.00  0.00    +0.017 A 
ATOM     24  C   UNL     1       1.049  -0.839   0.345  0.00  0.00    +0.011 A 
ATOM     25  C   UNL     1      -0.173  -0.206   0.446  0.00  0.00    +0.001 A 
ENDBRANCH  15  23
ENDBRANCH   1  18
BRANCH   5  26
ATOM     26  C   UNL     1       7.492   2.458   2.283  0.00  0.00    +0.218 C 
ATOM     27  O   UNL     1       6.996   1.434   2.704  0.00  0.00    -0.275 OA
ATOM     28  N   UNL     1       7.809   3.452   3.136  0.00  0.00    -0.315 N 
ATOM     29  H   UNL     1       8.138   4.298   2.793  0.00  0.00    +0.149 HD
BRANCH  28  30
ATOM     30  C   UNL     1       7.657   3.256   4.580  0.00  0.00    +0.109 C 
BRANCH  30  31
ATOM     31  C   UNL     1       7.962   4.566   5.307  0.00  0.00    +0.024 C 
ATOM     32  C   UNL     1       7.933   4.330   6.819  0.00  0.00    +0.008 C 
ATOM     33  C   UNL     1       8.270   5.633   7.548  0.00  0.00    +0.019 C 
ATOM     34  C   UNL     1       7.219   6.693   7.203  0.00  0.00    +0.108 C 
ATOM     35  N   UNL     1       7.139   6.822   5.742  0.00  0.00    -0.299 N 
ATOM     36  C   UNL     1       6.908   5.614   4.937  0.00  0.00    +0.113 C 
ATOM     37  C   UNL     1       7.277   8.058   5.135  0.00  0.00    +0.218 A 
ATOM     38  N   UNL     1       7.094   8.160   3.826  0.00  0.00    -0.223 NA
ATOM     39  C   UNL     1       7.219   9.326   3.215  0.00  0.00    +0.116 A 
ATOM     40  C   UNL     1       7.545  10.448   3.960  0.00  0.00    +0.039 A 
ATOM     41  C   UNL     1       7.730  10.306   5.326  0.00  0.00    +0.116 A 
ATOM     42  N   UNL     1       7.585   9.112   5.876  0.00  0.00    -0.223 NA
ENDBRANCH  30  31
ENDBRANCH  28  30
ENDBRANCH   5  26
TORSDOF 5
