REMARK  Name = ZINC08995646
REMARK  4 active torsions:
REMARK  status: ('A' for Active; 'I' for Inactive)
REMARK    1  A    between atoms: C_1  and  C_2
REMARK    2  A    between atoms: C_2  and  C_3
REMARK    3  A    between atoms: C_2  and  N_4
REMARK    4  A    between atoms: C_19  and  C_22
REMARK                            x       y       z     vdW  Elec       q    Type
REMARK                         _______ _______ _______ _____ _____    ______ ____
ROOT
ATOM      1  N   UNL     1       4.989   2.102   0.724  0.00  0.00    -0.222 N 
ATOM      2  C   UNL     1       3.951   2.891   1.035  0.00  0.00    +0.240 C 
ATOM      3  O   UNL     1       3.887   4.000   0.548  0.00  0.00    -0.274 OA
ATOM      4  C   UNL     1       2.866   2.441   1.970  0.00  0.00    +0.146 C 
ATOM      5  C   UNL     1       2.788   3.401   3.164  0.00  0.00    +0.064 C 
ATOM      6  C   UNL     1       1.443   3.332   3.842  0.00  0.00    -0.025 A 
ATOM      7  C   UNL     1       1.275   4.030   5.029  0.00  0.00    +0.005 A 
ATOM      8  C   UNL     1       0.062   4.021   5.686  0.00  0.00    +0.000 A 
ATOM      9  C   UNL     1      -1.005   3.314   5.162  0.00  0.00    +0.002 A 
ATOM     10  C   UNL     1      -0.850   2.610   3.987  0.00  0.00    +0.023 A 
ATOM     11  C   UNL     1       0.375   2.605   3.326  0.00  0.00    +0.033 A 
ATOM     12  N   UNL     1       0.535   1.859   2.181  0.00  0.00    -0.325 N 
ATOM     13  C   UNL     1       1.514   2.499   1.267  0.00  0.00    +0.098 C 
ATOM     14  C   UNL     1       1.434   1.645  -0.003  0.00  0.00    +0.033 C 
ATOM     15  C   UNL     1      -0.013   1.086   0.008  0.00  0.00    +0.038 C 
ATOM     16  C   UNL     1      -0.634   1.610   1.331  0.00  0.00    +0.113 C 
ATOM     17  C   UNL     1       3.131   1.047   2.462  0.00  0.00    +0.238 C 
ATOM     18  O   UNL     1       2.345   0.534   3.230  0.00  0.00    -0.274 OA
ATOM     19  N   UNL     1       4.212   0.355   2.078  0.00  0.00    -0.239 N 
ATOM     20  C   UNL     1       5.118   0.867   1.231  0.00  0.00    +0.315 C 
ATOM     21  O   UNL     1       6.079   0.194   0.915  0.00  0.00    -0.252 OA
ATOM     22  H   UNL     1       4.377  -0.664   2.458  0.00  0.00    +0.159 HD
ENDROOT
BRANCH  15  23
ATOM     23  C   UNL     1      -0.784   1.605  -1.178  0.00  0.00    -0.043 A 
ATOM     24  C   UNL     1      -0.945   2.966  -1.355  0.00  0.00    +0.004 A 
ATOM     25  C   UNL     1      -1.649   3.443  -2.446  0.00  0.00    +0.000 A 
ATOM     26  C   UNL     1      -2.199   2.558  -3.354  0.00  0.00    +0.000 A 
ATOM     27  C   UNL     1      -2.043   1.196  -3.173  0.00  0.00    +0.000 A 
ATOM     28  C   UNL     1      -1.335   0.720  -2.086  0.00  0.00    +0.004 A 
ENDBRANCH  15  23
BRANCH   1  30
ATOM     29  C   UNL     1       7.370   2.619   0.511  0.00  0.00    +0.028 C 
ATOM     30  C   UNL     1       6.013   2.604  -0.196  0.00  0.00    +0.080 C 
ATOM     31  C   UNL     1       6.087   1.692  -1.423  0.00  0.00    +0.028 C 
ENDBRANCH   1  30
TORSDOF 2
