REMARK  Name = ZINC04222311
REMARK  8 active torsions:
REMARK  status: ('A' for Active; 'I' for Inactive)
REMARK    1  A    between atoms: C_1  and  C_2
REMARK    2  A    between atoms: C_5  and  O_39
REMARK    3  A    between atoms: C_7  and  C_36
REMARK    4  A    between atoms: C_7  and  C_37
REMARK    5  A    between atoms: C_17  and  C_19
REMARK    6  A    between atoms: C_25  and  C_27
REMARK    7  A    between atoms: C_27  and  C_28
REMARK    8  A    between atoms: C_37  and  O_38
REMARK                            x       y       z     vdW  Elec       q    Type
REMARK                         _______ _______ _______ _____ _____    ______ ____
ROOT
ATOM      1  C   UNL     1       1.057   3.294   0.284  0.00  0.00    +0.012 C 
ATOM      2  C   UNL     1       1.101   1.770   0.407  0.00  0.00    -0.019 C 
ATOM      3  C   UNL     1       1.744   1.172  -0.848  0.00  0.00    +0.010 C 
ATOM      4  C   UNL     1       3.192   1.640  -0.978  0.00  0.00    +0.032 C 
ATOM      5  C   UNL     1       3.976   1.165   0.249  0.00  0.00    +0.123 C 
ATOM      6  C   UNL     1       3.365   1.799   1.497  0.00  0.00    +0.021 C 
ATOM      7  C   UNL     1       1.902   1.371   1.650  0.00  0.00    +0.011 C 
ATOM      8  C   UNL     1       1.334   2.119   2.872  0.00  0.00    +0.049 C 
ATOM      9  C   UNL     1      -0.150   2.017   2.857  0.00  0.00    +0.015 A 
ATOM     10  C   UNL     1      -0.945   1.623   1.829  0.00  0.00    +0.058 A 
ATOM     11  N   UNL     1      -2.254   1.620   2.072  0.00  0.00    -0.229 NA
ATOM     12  C   UNL     1      -2.752   1.974   3.238  0.00  0.00    +0.165 A 
ATOM     13  S   UNL     1      -1.320   2.366   4.143  0.00  0.00    -0.057 S 
ATOM     14  N   UNL     1      -4.081   2.022   3.642  0.00  0.00    -0.264 N 
ATOM     15  C   UNL     1      -4.391   2.417   4.893  0.00  0.00    +0.222 C 
ATOM     16  O   UNL     1      -3.511   2.730   5.666  0.00  0.00    -0.275 OA
ATOM     17  C   UNL     1      -0.328   1.219   0.499  0.00  0.00    +0.054 C 
ATOM     18  C   UNL     1       4.154   1.353   2.729  0.00  0.00    +0.016 C 
ATOM     19  H   UNL     1      -4.785   1.772   3.024  0.00  0.00    +0.157 HD
ENDROOT
BRANCH  15  20
ATOM     20  C   UNL     1      -5.832   2.469   5.331  0.00  0.00    +0.075 C 
ATOM     21  C   UNL     1      -6.603   3.441   4.435  0.00  0.00    +0.013 C 
ATOM     22  C   UNL     1      -8.066   3.493   4.880  0.00  0.00    +0.001 C 
ATOM     23  C   UNL     1      -8.141   3.970   6.332  0.00  0.00    +0.000 C 
ATOM     24  C   UNL     1      -7.370   2.998   7.228  0.00  0.00    +0.001 C 
ATOM     25  C   UNL     1      -5.907   2.945   6.783  0.00  0.00    +0.013 C 
ENDBRANCH  15  20
BRANCH   5  26
ATOM     26  O   UNL     1       5.343   1.564   0.129  0.00  0.00    -0.391 OA
ATOM     27  H   UNL     1       5.790   1.206  -0.650  0.00  0.00    +0.210 HD
ENDBRANCH   5  26
BRANCH  17  28
ATOM     28  C   UNL     1      -1.168   1.789  -0.646  0.00  0.00    +0.106 C 
BRANCH  28  29
ATOM     29  C   UNL     1      -2.511   1.106  -0.672  0.00  0.00    +0.216 C 
ATOM     30  O   UNL     1      -2.770   0.248   0.144  0.00  0.00    -0.276 OA
ATOM     31  N   UNL     1      -3.423   1.448  -1.603  0.00  0.00    -0.301 N 
ATOM     32  C   UNL     1      -3.125   2.490  -2.595  0.00  0.00    +0.108 C 
ATOM     33  C   UNL     1      -3.376   1.915  -3.998  0.00  0.00    +0.019 C 
ATOM     34  C   UNL     1      -4.803   1.368  -4.071  0.00  0.00    +0.003 C 
ATOM     35  C   UNL     1      -4.971   0.239  -3.051  0.00  0.00    +0.019 C 
ATOM     36  C   UNL     1      -4.737   0.791  -1.642  0.00  0.00    +0.108 C 
ENDBRANCH  28  29
ENDBRANCH  17  28
BRANCH   6  37
ATOM     37  C   UNL     1       3.437   3.322   1.378  0.00  0.00    +0.165 C 
BRANCH  37  38
ATOM     38  O   UNL     1       4.803   3.739   1.417  0.00  0.00    -0.394 OA
ATOM     39  H   UNL     1       4.925   4.696   1.347  0.00  0.00    +0.209 HD
ENDBRANCH  37  38
ENDBRANCH   6  37
TORSDOF 6
