REMARK  Name = ZINC20532231
REMARK  8 active torsions:
REMARK  status: ('A' for Active; 'I' for Inactive)
REMARK    1  A    between atoms: C_1  and  C_2
REMARK    2  A    between atoms: C_2  and  N_3
REMARK    3  A    between atoms: C_9  and  N_26
REMARK    4  A    between atoms: C_10  and  C_11
REMARK    5  A    between atoms: C_11  and  C_13
REMARK    6  A    between atoms: C_11  and  N_14
REMARK    7  A    between atoms: N_17  and  C_18
REMARK    8  A    between atoms: C_23  and  C_24
REMARK                            x       y       z     vdW  Elec       q    Type
REMARK                         _______ _______ _______ _____ _____    ______ ____
ROOT
ATOM      1  N   UNL     1       0.692  -2.680  -0.943  0.00  0.00    +0.383 N 
ATOM      2  C   UNL     1      -0.318  -1.962  -1.733  0.00  0.00    -0.074 C 
ATOM      3  C   UNL     1      -0.842  -0.755  -0.950  0.00  0.00    +0.018 C 
ATOM      4  C   UNL     1       0.355   0.068  -0.483  0.00  0.00    -0.034 A 
ATOM      5  C   UNL     1       1.593  -0.502  -0.467  0.00  0.00    -0.021 A 
ATOM      6  S   UNL     1       2.648   0.792   0.124  0.00  0.00    -0.077 S 
ATOM      7  C   UNL     1       1.395   2.049   0.331  0.00  0.00    +0.090 A 
ATOM      8  C   UNL     1       0.271   1.393  -0.064  0.00  0.00    +0.007 A 
ATOM      9  C   UNL     1       1.941  -1.899  -0.862  0.00  0.00    -0.035 C 
ATOM     10  H   UNL     1       0.298  -2.811   0.076  0.00  0.00    -0.081 HD
ENDROOT
BRANCH   7  11
ATOM     11  N   UNL     1       1.534   3.367   0.783  0.00  0.00    -0.317 N 
ATOM     12  C   UNL     1       2.715   3.998   1.044  0.00  0.00    +0.092 A 
ATOM     13  C   UNL     1       2.441   5.254   1.454  0.00  0.00    +0.019 A 
ATOM     14  C   UNL     1       1.039   5.401   1.455  0.00  0.00    +0.019 A 
ATOM     15  C   UNL     1       0.509   4.232   1.040  0.00  0.00    +0.092 A 
ENDBRANCH   7  11
BRANCH   1  17
ATOM     16  C   UNL     1       1.385  -3.888  -2.957  0.00  0.00    -0.017 C 
ATOM     17  C   UNL     1       0.942  -4.017  -1.498  0.00  0.00    -0.082 C 
ENDBRANCH   1  17
BRANCH   8  18
ATOM     18  C   UNL     1      -1.060   2.100  -0.055  0.00  0.00    +0.104 C 
ATOM     19  C   UNL     1      -1.526   2.290   1.389  0.00  0.00    +0.033 C 
BRANCH  18  20
ATOM     20  N   UNL     1      -0.923   3.408  -0.701  0.00  0.00    -0.292 N 
ATOM     21  C   UNL     1      -2.020   4.077  -1.107  0.00  0.00    +0.304 C 
ATOM     22  O   UNL     1      -3.123   3.595  -0.937  0.00  0.00    -0.252 OA
ATOM     23  N   UNL     1      -1.894   5.280  -1.700  0.00  0.00    -0.269 N 
ATOM     24  H   UNL     1       0.075   3.844  -0.854  0.00  0.00    +0.151 HD
ATOM     25  H   UNL     1      -0.905   5.756  -1.774  0.00  0.00    +0.156 HD
BRANCH  23  26
ATOM     26  C   UNL     1      -3.021   5.924  -2.224  0.00  0.00    +0.039 A 
ATOM     27  C   UNL     1      -4.133   5.183  -2.600  0.00  0.00    +0.043 A 
ATOM     28  C   UNL     1      -5.247   5.822  -3.112  0.00  0.00    +0.043 A 
ATOM     29  C   UNL     1      -5.249   7.198  -3.260  0.00  0.00    +0.020 A 
ATOM     30  C   UNL     1      -4.141   7.937  -2.891  0.00  0.00    +0.006 A 
ATOM     31  C   UNL     1      -3.027   7.304  -2.373  0.00  0.00    -0.029 A 
ATOM     32  C   UNL     1      -1.820   8.111  -1.971  0.00  0.00    +0.045 C 
ATOM     33 CL   UNL     1      -6.641   4.897  -3.577  0.00  0.00    -0.083 Cl
ENDBRANCH  23  26
ENDBRANCH  18  20
ENDBRANCH   8  18
TORSDOF 5
