REMARK  Name = ZINC66234975
REMARK  8 active torsions:
REMARK  status: ('A' for Active; 'I' for Inactive)
REMARK    1  A    between atoms: C_1  and  C_2
REMARK    2  A    between atoms: C_7  and  N_8
REMARK    3  A    between atoms: C_11  and  C_14
REMARK    4  A    between atoms: C_14  and  N_15
REMARK    5  A    between atoms: N_18  and  C_19
REMARK    6  A    between atoms: C_19  and  C_20
REMARK    7  A    between atoms: C_20  and  C_21
REMARK    8  A    between atoms: N_25  and  C_26
REMARK                            x       y       z     vdW  Elec       q    Type
REMARK                         _______ _______ _______ _____ _____    ______ ____
ROOT
ATOM      1  N   UNL     1       1.162   1.434   6.827  0.00  0.00    -0.299 N 
ATOM      2  C   UNL     1       1.810   1.266   7.997  0.00  0.00    +0.300 C 
ATOM      3  O   UNL     1       2.796   0.558   8.049  0.00  0.00    -0.253 OA
ATOM      4  N   UNL     1       1.364   1.884   9.109  0.00  0.00    -0.299 N 
ATOM      5  H   UNL     1       0.375   2.000   6.785  0.00  0.00    +0.150 HD
ATOM      6  H   UNL     1       0.577   2.450   9.067  0.00  0.00    +0.150 HD
ENDROOT
BRANCH   1   7
ATOM      7  C   UNL     1       1.646   0.763   5.618  0.00  0.00    +0.110 C 
BRANCH   7  11
ATOM      8  N   UNL     1       0.026  -0.016   2.415  0.00  0.00    -0.329 N 
ATOM      9  C   UNL     1      -1.171   0.387   3.177  0.00  0.00    +0.105 C 
ATOM     10  C   UNL     1      -0.681   0.525   4.640  0.00  0.00    +0.025 C 
ATOM     11  C   UNL     1       0.739   1.119   4.439  0.00  0.00    +0.025 C 
ATOM     12  C   UNL     1       1.222   0.423   3.149  0.00  0.00    +0.110 C 
BRANCH   8  19
ATOM     13  C   UNL     1      -0.018   1.503   0.010  0.00  0.00    +0.045 C 
ATOM     14  C   UNL     1       0.002  -0.004   0.002  0.00  0.00    -0.029 A 
ATOM     15  C   UNL     1       0.006  -0.689  -1.198  0.00  0.00    +0.006 A 
ATOM     16  C   UNL     1       0.024  -2.071  -1.207  0.00  0.00    +0.020 A 
ATOM     17  C   UNL     1       0.040  -2.774  -0.014  0.00  0.00    +0.043 A 
ATOM     18  C   UNL     1       0.035  -2.095   1.189  0.00  0.00    +0.043 A 
ATOM     19  C   UNL     1       0.023  -0.706   1.201  0.00  0.00    +0.034 A 
ATOM     20 CL   UNL     1       0.063  -4.509  -0.031  0.00  0.00    -0.083 Cl
ENDBRANCH   8  19
ENDBRANCH   7  11
ENDBRANCH   1   7
BRANCH   4  21
ATOM     21  C   UNL     1       2.068   1.702  10.380  0.00  0.00    +0.113 C 
BRANCH  21  22
ATOM     22  C   UNL     1       1.362   2.505  11.474  0.00  0.00    +0.091 C 
BRANCH  22  23
ATOM     23  C   UNL     1       2.087   2.317  12.782  0.00  0.00    +0.088 A 
ATOM     24  N   UNL     1       3.120   3.005  13.185  0.00  0.00    -0.350 N 
ATOM     25  C   UNL     1       3.500   2.565  14.394  0.00  0.00    +0.101 A 
ATOM     26  C   UNL     1       2.670   1.568  14.754  0.00  0.00    +0.104 A 
ATOM     27  N   UNL     1       1.770   1.414  13.735  0.00  0.00    -0.339 N 
ATOM     28  C   UNL     1       0.671   0.447  13.685  0.00  0.00    +0.150 C 
ATOM     29  H   UNL     1       3.547   3.720  12.688  0.00  0.00    +0.166 HD
ENDBRANCH  22  23
ENDBRANCH  21  22
ENDBRANCH   4  21
TORSDOF 6
