REMARK  Name = ZINC59782739
REMARK  13 active torsions:
REMARK  status: ('A' for Active; 'I' for Inactive)
REMARK    1  A    between atoms: C_1  and  C_2
REMARK    2  A    between atoms: C_3  and  C_11
REMARK    3  A    between atoms: C_4  and  C_10
REMARK    4  A    between atoms: C_6  and  S_8
REMARK    5  A    between atoms: S_8  and  C_9
REMARK    6  A    between atoms: C_11  and  C_12
REMARK    7  A    between atoms: C_12  and  C_13
REMARK    8  A    between atoms: N_15  and  C_16
REMARK    9  A    between atoms: C_16  and  C_17
REMARK   10  A    between atoms: C_17  and  C_19
REMARK   11  A    between atoms: C_17  and  N_27
REMARK   12  A    between atoms: C_24  and  O_25
REMARK   13  A    between atoms: O_25  and  C_26
REMARK                            x       y       z     vdW  Elec       q    Type
REMARK                         _______ _______ _______ _____ _____    ______ ____
ROOT
ATOM      1  C   UNL     1       2.652   1.871  -6.084  0.00  0.00    +0.093 C 
ENDROOT
BRANCH   1   4
ATOM      2  C   UNL     1       0.755   2.784  -4.857  0.00  0.00    +0.213 C 
ATOM      3  O   UNL     1       0.228   1.694  -4.919  0.00  0.00    -0.276 OA
ATOM      4  N   UNL     1       1.969   2.978  -5.410  0.00  0.00    -0.317 N 
ATOM      5  H   UNL     1       2.391   3.850  -5.361  0.00  0.00    +0.149 HD
BRANCH   2   6
ATOM      6  C   UNL     1       0.053   3.923  -4.164  0.00  0.00    +0.100 C 
BRANCH   6   7
ATOM      7  C   UNL     1      -1.298   3.440  -3.630  0.00  0.00    +0.048 C 
BRANCH   7  10
ATOM      8  C   UNL     1      -3.079   5.212  -5.114  0.00  0.00    +0.066 C 
ATOM      9  C   UNL     1      -2.847   5.422  -3.640  0.00  0.00    +0.046 A 
ATOM     10  C   UNL     1      -2.000   4.579  -2.937  0.00  0.00    -0.005 A 
ATOM     11  C   UNL     1      -1.813   4.806  -1.582  0.00  0.00    +0.046 A 
ATOM     12  N   UNL     1      -2.445   5.814  -1.004  0.00  0.00    -0.227 NA
ATOM     13  C   UNL     1      -3.249   6.602  -1.705  0.00  0.00    +0.188 A 
ATOM     14  N   UNL     1      -3.444   6.415  -3.003  0.00  0.00    -0.227 NA
ATOM     15  C   UNL     1      -0.902   3.915  -0.778  0.00  0.00    +0.066 C 
BRANCH  13  16
ATOM     16  S   UNL     1      -4.070   7.933  -0.894  0.00  0.00    -0.089 S 
ATOM     17  C   UNL     1      -5.038   8.719  -2.212  0.00  0.00    +0.093 C 
ENDBRANCH  13  16
ENDBRANCH   7  10
ENDBRANCH   6   7
ENDBRANCH   2   6
ENDBRANCH   1   4
BRANCH   1  18
ATOM     18  C   UNL     1       3.945   2.382  -6.722  0.00  0.00    -0.017 C 
BRANCH  18  19
ATOM     19  N   UNL     1       4.766   3.047  -5.701  0.00  0.00    +0.385 N 
ATOM     20  C   UNL     1       6.055   3.433  -6.287  0.00  0.00    -0.078 C 
ATOM     21  C   UNL     1       6.882   4.198  -5.251  0.00  0.00    -0.019 C 
ATOM     22  C   UNL     1       7.120   3.301  -4.033  0.00  0.00    -0.004 C 
ATOM     23  C   UNL     1       5.769   2.844  -3.475  0.00  0.00    -0.019 C 
ATOM     24  C   UNL     1       4.984   2.129  -4.577  0.00  0.00    -0.078 C 
ATOM     25  H   UNL     1       4.288   3.873  -5.373  0.00  0.00    -0.081 HD
ENDBRANCH  18  19
BRANCH  18  26
ATOM     26  C   UNL     1       3.611   3.363  -7.816  0.00  0.00    -0.018 A 
ATOM     27  C   UNL     1       3.702   4.721  -7.578  0.00  0.00    +0.005 A 
ATOM     28  C   UNL     1       3.395   5.622  -8.581  0.00  0.00    +0.000 A 
ATOM     29  C   UNL     1       2.997   5.167  -9.825  0.00  0.00    +0.004 A 
ATOM     30  C   UNL     1       2.905   3.810 -10.068  0.00  0.00    +0.046 A 
ATOM     31  C   UNL     1       3.217   2.904  -9.064  0.00  0.00    +0.122 A 
BRANCH  31  32
ATOM     32  O   UNL     1       3.133   1.569  -9.303  0.00  0.00    -0.495 OA
ATOM     33  C   UNL     1       2.721   1.168 -10.611  0.00  0.00    +0.277 C 
ENDBRANCH  31  32
ENDBRANCH  18  26
ENDBRANCH   1  18
TORSDOF 9
