REMARK  Name = ZINC35828581
REMARK  3 active torsions:
REMARK  status: ('A' for Active; 'I' for Inactive)
REMARK    1  A    between atoms: C_16  and  C_18
REMARK    2  A    between atoms: C_18  and  C_20
REMARK    3  A    between atoms: N_30  and  C_33
REMARK                            x       y       z     vdW  Elec       q    Type
REMARK                         _______ _______ _______ _____ _____    ______ ____
ROOT
ATOM      1  C   UNL     1      -0.017   1.377   0.010  0.00  0.00    +0.001 A 
ATOM      2  C   UNL     1       1.174   2.082   0.002  0.00  0.00    +0.000 A 
ATOM      3  C   UNL     1       2.386   1.418  -0.011  0.00  0.00    +0.006 A 
ATOM      4  C   UNL     1       2.425   0.036  -0.016  0.00  0.00    -0.021 A 
ATOM      5  C   UNL     1       1.219  -0.673  -0.013  0.00  0.00    -0.019 A 
ATOM      6  C   UNL     1       0.002  -0.004   0.002  0.00  0.00    +0.008 A 
ATOM      7  C   UNL     1       1.297  -2.148  -0.031  0.00  0.00    +0.022 C 
ATOM      8  C   UNL     1       2.455  -2.727  -0.261  0.00  0.00    +0.054 C 
ATOM      9  N   UNL     1       3.660  -2.087  -0.510  0.00  0.00    -0.384 NA
ATOM     10  C   UNL     1       3.718  -0.695  -0.026  0.00  0.00    +0.100 C 
ATOM     11  C   UNL     1       4.492  -0.657   1.263  0.00  0.00    +0.113 C 
ATOM     12  C   UNL     1       4.488  -2.190   1.629  0.00  0.00    +0.116 C 
ATOM     13  C   UNL     1       4.683  -2.842   0.326  0.00  0.00    +0.141 C 
ATOM     14  C   UNL     1       4.941  -2.168   2.992  0.00  0.00    +0.232 C 
ATOM     15  O   UNL     1       5.623  -2.996   3.557  0.00  0.00    -0.274 OA
ATOM     16  N   UNL     1       4.434  -1.002   3.517  0.00  0.00    -0.210 N 
ATOM     17  C   UNL     1       3.909  -0.162   2.551  0.00  0.00    +0.232 C 
ATOM     18  O   UNL     1       3.143   0.765   2.704  0.00  0.00    -0.274 OA
ATOM     19  H   UNL     1       3.893  -2.142  -1.490  0.00  0.00    +0.127 HD
ENDROOT
BRANCH  16  20
ATOM     20  C   UNL     1       4.456  -0.688   4.884  0.00  0.00    +0.044 A 
ATOM     21  C   UNL     1       3.916   0.509   5.331  0.00  0.00    +0.027 A 
ATOM     22  C   UNL     1       3.939   0.817   6.677  0.00  0.00    +0.040 A 
ATOM     23  C   UNL     1       4.501  -0.069   7.581  0.00  0.00    +0.124 A 
ATOM     24  C   UNL     1       5.041  -1.264   7.137  0.00  0.00    +0.040 A 
ATOM     25  C   UNL     1       5.015  -1.577   5.792  0.00  0.00    +0.027 A 
ATOM     26  F   UNL     1       4.524   0.234   8.897  0.00  0.00    -0.205 F 
ENDBRANCH  16  20
BRANCH  13  27
ATOM     27  C   UNL     1       6.081  -2.623  -0.191  0.00  0.00    +0.184 C 
ATOM     28  O   UNL     1       6.318  -1.683  -0.919  0.00  0.00    -0.290 OA
BRANCH  27  29
ATOM     29  C   UNL     1       7.158  -3.549   0.187  0.00  0.00    +0.038 A 
ATOM     30  C   UNL     1       6.888  -4.639   1.022  0.00  0.00    +0.014 A 
ATOM     31  C   UNL     1       7.902  -5.503   1.372  0.00  0.00    +0.021 A 
ATOM     32  C   UNL     1       9.189  -5.296   0.899  0.00  0.00    +0.042 A 
ATOM     33  C   UNL     1       9.466  -4.220   0.072  0.00  0.00    +0.040 A 
ATOM     34  C   UNL     1       8.459  -3.349  -0.292  0.00  0.00    +0.053 A 
ATOM     35 CL   UNL     1       8.806  -2.005  -1.335  0.00  0.00    -0.083 Cl
ATOM     36 CL   UNL     1      10.460  -6.390   1.347  0.00  0.00    -0.083 Cl
ENDBRANCH  27  29
ENDBRANCH  13  27
TORSDOF 3
