REMARK  Name = ZINC00135783
REMARK  2 active torsions:
REMARK  status: ('A' for Active; 'I' for Inactive)
REMARK    1  A    between atoms: C_4  and  C_20
REMARK    2  A    between atoms: C_5  and  C_7
REMARK                            x       y       z     vdW  Elec       q    Type
REMARK                         _______ _______ _______ _____ _____    ______ ____
ROOT
ATOM      1  C   UNL     1       0.007   1.034  -0.060  0.00  0.00    +0.188 C 
ATOM      2  N   UNL     1      -0.770   1.601   1.056  0.00  0.00    -0.322 N 
ATOM      3  C   UNL     1      -1.187   2.930   0.957  0.00  0.00    +0.038 A 
ATOM      4  C   UNL     1      -1.455   3.692   2.069  0.00  0.00    +0.023 A 
ATOM      5  C   UNL     1      -1.873   5.014   1.933  0.00  0.00    +0.002 A 
ATOM      6  C   UNL     1      -2.027   5.587   0.706  0.00  0.00    +0.009 A 
ATOM      7  C   UNL     1      -1.760   4.841  -0.455  0.00  0.00    -0.014 A 
ATOM      8  C   UNL     1      -1.337   3.498  -0.326  0.00  0.00    +0.024 A 
ATOM      9  C   UNL     1      -1.064   2.734  -1.479  0.00  0.00    +0.038 A 
ATOM     10  C   UNL     1      -1.210   3.308  -2.720  0.00  0.00    +0.023 A 
ATOM     11  C   UNL     1      -1.626   4.632  -2.839  0.00  0.00    +0.002 A 
ATOM     12  C   UNL     1      -1.899   5.391  -1.740  0.00  0.00    +0.009 A 
ATOM     13  N   UNL     1      -0.653   1.409  -1.323  0.00  0.00    -0.322 N 
ATOM     14  H   UNL     1      -0.987   1.066   1.836  0.00  0.00    +0.148 HD
ATOM     15  H   UNL     1      -0.797   0.755  -2.025  0.00  0.00    +0.148 HD
ENDROOT
BRANCH   1  20
ATOM     16  C   UNL     1       3.010   3.211  -0.766  0.00  0.00    +0.000 A 
ATOM     17  C   UNL     1       3.980   2.604   0.010  0.00  0.00    +0.001 A 
ATOM     18  C   UNL     1       3.664   1.489   0.763  0.00  0.00    +0.013 A 
ATOM     19  C   UNL     1       2.378   0.981   0.741  0.00  0.00    +0.061 A 
ATOM     20  C   UNL     1       1.409   1.588  -0.035  0.00  0.00    +0.002 A 
ATOM     21  C   UNL     1       1.726   2.700  -0.793  0.00  0.00    +0.007 A 
BRANCH  19  22
ATOM     22  C   UNL     1       2.034  -0.235   1.562  0.00  0.00    +0.418 C 
ATOM     23  F   UNL     1       3.151  -0.625   2.308  0.00  0.00    -0.166 F 
ATOM     24  F   UNL     1       0.978   0.071   2.428  0.00  0.00    -0.166 F 
ATOM     25  F   UNL     1       1.653  -1.279   0.712  0.00  0.00    -0.166 F 
ENDBRANCH  19  22
ENDBRANCH   1  20
TORSDOF 2
