REMARK  Name = ZINC36811815
REMARK  14 active torsions:
REMARK  status: ('A' for Active; 'I' for Inactive)
REMARK    1  A    between atoms: C_1  and  C_2
REMARK    2  A    between atoms: C_2  and  C_3
REMARK    3  A    between atoms: C_4  and  C_29
REMARK    4  A    between atoms: C_6  and  C_8
REMARK    5  A    between atoms: N_10  and  C_11
REMARK    6  A    between atoms: N_10  and  C_15
REMARK    7  A    between atoms: C_11  and  C_12
REMARK    8  A    between atoms: C_12  and  C_13
REMARK    9  A    between atoms: C_12  and  C_14
REMARK   10  A    between atoms: C_16  and  N_28
REMARK   11  A    between atoms: N_17  and  C_24
REMARK   12  A    between atoms: C_24  and  C_25
REMARK   13  A    between atoms: C_25  and  C_26
REMARK   14  A    between atoms: C_25  and  C_27
REMARK                            x       y       z     vdW  Elec       q    Type
REMARK                         _______ _______ _______ _____ _____    ______ ____
ROOT
ATOM      1  C   UNL     1       0.525  -2.776  -6.895  0.00  0.00    +0.140 A 
ATOM      2  C   UNL     1       1.175  -2.361  -8.039  0.00  0.00    +0.127 A 
ATOM      3  N   UNL     1       1.244  -3.212  -9.118  0.00  0.00    -0.280 N 
ATOM      4  C   UNL     1       0.684  -4.434  -9.059  0.00  0.00    +0.331 A 
ATOM      5  O   UNL     1       0.756  -5.171 -10.023  0.00  0.00    -0.246 OA
ATOM      6  N   UNL     1       0.047  -4.855  -7.952  0.00  0.00    -0.273 N 
ATOM      7  H   UNL     1      -0.349  -5.741  -7.934  0.00  0.00    +0.173 HD
ATOM      8  C   UNL     1      -0.044  -4.063  -6.866  0.00  0.00    +0.277 A 
ATOM      9  O   UNL     1      -0.621  -4.457  -5.866  0.00  0.00    -0.266 OA
ENDROOT
BRANCH   1  12
ATOM     10  C   UNL     1       1.560  -1.524  -5.143  0.00  0.00    +0.258 C 
ATOM     11  O   UNL     1       2.651  -1.846  -5.578  0.00  0.00    -0.269 OA
ATOM     12  N   UNL     1       0.438  -1.928  -5.771  0.00  0.00    -0.260 N 
BRANCH  10  16
ATOM     13  C   UNL     1       0.765   0.797  -1.881  0.00  0.00    -0.007 A 
ATOM     14  C   UNL     1       2.079   0.490  -2.017  0.00  0.00    -0.040 A 
ATOM     15  C   UNL     1       2.477  -0.288  -3.078  0.00  0.00    +0.024 A 
ATOM     16  C   UNL     1       1.468  -0.699  -3.935  0.00  0.00    +0.075 A 
ATOM     17  S   UNL     1       0.027   0.035  -3.183  0.00  0.00    -0.088 S 
ATOM     18  C   UNL     1       3.089   0.996  -1.019  0.00  0.00    +0.044 C 
BRANCH  13  20
ATOM     19  C   UNL     1       0.083   3.093  -1.239  0.00  0.00    +0.009 C 
ATOM     20  C   UNL     1       0.115   1.626  -0.804  0.00  0.00    +0.039 C 
ENDBRANCH  13  20
ENDBRANCH  10  16
BRANCH  12  21
ATOM     21  C   UNL     1      -0.872  -1.485  -5.287  0.00  0.00    +0.117 C 
BRANCH  21  22
ATOM     22  C   UNL     1      -1.176  -0.092  -5.842  0.00  0.00    +0.001 C 
ATOM     23  C   UNL     1      -1.313  -0.167  -7.364  0.00  0.00    +0.009 C 
ATOM     24  C   UNL     1      -2.483   0.424  -5.237  0.00  0.00    +0.009 C 
ENDBRANCH  21  22
ENDBRANCH  12  21
ENDBRANCH   1  12
BRANCH   2  25
ATOM     25  N   UNL     1       1.747  -1.113  -8.100  0.00  0.00    -0.343 N 
ATOM     26  H   UNL     1       1.751  -0.543  -7.316  0.00  0.00    +0.144 HD
ATOM     27  H   UNL     1       2.146  -0.802  -8.928  0.00  0.00    +0.144 HD
ENDBRANCH   2  25
BRANCH   3  28
ATOM     28  C   UNL     1       1.931  -2.784 -10.340  0.00  0.00    +0.131 C 
BRANCH  28  29
ATOM     29  C   UNL     1       3.407  -3.177 -10.259  0.00  0.00    +0.003 C 
ATOM     30  C   UNL     1       3.528  -4.702 -10.239  0.00  0.00    +0.009 C 
ATOM     31  C   UNL     1       4.150  -2.622 -11.476  0.00  0.00    +0.009 C 
ENDBRANCH  28  29
ENDBRANCH   3  28
TORSDOF 8
