REMARK  Name = ZINC08933458
REMARK  11 active torsions:
REMARK  status: ('A' for Active; 'I' for Inactive)
REMARK    1  A    between atoms: C_1  and  C_2
REMARK    2  A    between atoms: C_2  and  N_61
REMARK    3  A    between atoms: C_3  and  C_4
REMARK    4  A    between atoms: C_3  and  N_61
REMARK    5  A    between atoms: C_5  and  C_6
REMARK    6  A    between atoms: C_5  and  N_61
REMARK    7  A    between atoms: C_6  and  N_7
REMARK    8  A    between atoms: C_8  and  C_10
REMARK    9  A    between atoms: C_10  and  N_11
REMARK   10  A    between atoms: N_24  and  C_25
REMARK   11  A    between atoms: C_25  and  C_26
REMARK                            x       y       z     vdW  Elec       q    Type
REMARK                         _______ _______ _______ _____ _____    ______ ____
ROOT
ATOM      1  N   UNL     1       4.637   5.471   0.427  0.00  0.00    -0.219 N 
ATOM      2  C   UNL     1       3.469   6.072   0.728  0.00  0.00    +0.292 A 
ATOM      3  O   UNL     1       3.458   7.186   1.226  0.00  0.00    -0.264 OA
ATOM      4  C   UNL     1       2.253   5.399   0.457  0.00  0.00    +0.119 A 
ATOM      5  C   UNL     1       2.309   4.128  -0.113  0.00  0.00    +0.033 A 
ATOM      6  C   UNL     1       3.562   3.548  -0.405  0.00  0.00    +0.143 A 
ATOM      7  N   UNL     1       4.663   4.196  -0.144  0.00  0.00    -0.175 NA
ATOM      8  C   UNL     1       0.919   3.682  -0.277  0.00  0.00    +0.009 A 
ATOM      9  C   UNL     1       0.332   2.521  -0.782  0.00  0.00    +0.010 A 
ATOM     10  C   UNL     1      -1.029   2.400  -0.802  0.00  0.00    +0.001 A 
ATOM     11  C   UNL     1      -1.834   3.424  -0.324  0.00  0.00    +0.002 A 
ATOM     12  C   UNL     1      -1.276   4.578   0.180  0.00  0.00    +0.026 A 
ATOM     13  C   UNL     1       0.110   4.723   0.210  0.00  0.00    +0.051 A 
ATOM     14  N   UNL     1       0.932   5.738   0.649  0.00  0.00    -0.331 N 
ENDROOT
BRANCH   1  15
ATOM     15  C   UNL     1       5.898   6.164   0.705  0.00  0.00    +0.243 C 
BRANCH  15  17
ATOM     16  N   UNL     1       7.510   6.347   2.572  0.00  0.00    -0.316 N 
ATOM     17  C   UNL     1       6.364   5.821   2.096  0.00  0.00    +0.235 C 
ATOM     18  O   UNL     1       5.708   5.072   2.788  0.00  0.00    -0.274 OA
ATOM     19  H   UNL     1       8.035   6.946   2.019  0.00  0.00    +0.149 HD
BRANCH  16  20
ATOM     20  C   UNL     1       7.963   6.014   3.925  0.00  0.00    +0.086 C 
BRANCH  20  21
ATOM     21  C   UNL     1       9.280   6.737   4.215  0.00  0.00    -0.060 C 
BRANCH  21  22
ATOM     22  N   UNL     1       9.712   6.409   5.589  0.00  0.00    +0.380 N 
ATOM     23  H   UNL     1       8.934   6.588   6.235  0.00  0.00    -0.082 HD
BRANCH  22  25
ATOM     24  C   UNL     1      11.222   4.667   4.697  0.00  0.00    -0.017 C 
ATOM     25  C   UNL     1      10.087   4.981   5.673  0.00  0.00    -0.082 C 
ENDBRANCH  22  25
BRANCH  22  26
ATOM     26  C   UNL     1      10.861   7.256   5.974  0.00  0.00    -0.082 C 
ATOM     27  C   UNL     1      11.058   7.159   7.488  0.00  0.00    -0.017 C 
ENDBRANCH  22  26
ENDBRANCH  21  22
ENDBRANCH  20  21
ENDBRANCH  16  20
ENDBRANCH  15  17
ENDBRANCH   1  15
BRANCH  14  28
ATOM     28  C   UNL     1       0.467   7.001   1.228  0.00  0.00    +0.160 C 
BRANCH  28  29
ATOM     29  C   UNL     1       0.398   6.871   2.728  0.00  0.00    +0.007 A 
ATOM     30  C   UNL     1       1.473   7.258   3.506  0.00  0.00    +0.008 A 
ATOM     31  C   UNL     1       1.410   7.139   4.881  0.00  0.00    +0.000 A 
ATOM     32  C   UNL     1       0.271   6.633   5.481  0.00  0.00    +0.003 A 
ATOM     33  C   UNL     1      -0.805   6.246   4.705  0.00  0.00    +0.039 A 
ATOM     34  C   UNL     1      -0.744   6.369   3.327  0.00  0.00    +0.128 A 
ATOM     35  F   UNL     1      -1.798   5.996   2.568  0.00  0.00    -0.205 F 
ENDBRANCH  28  29
ENDBRANCH  14  28
TORSDOF 9
