REMARK  Name = ZINC09357906
REMARK  16 active torsions:
REMARK  status: ('A' for Active; 'I' for Inactive)
REMARK    1  A    between atoms: C_1  and  C_2
REMARK    2  A    between atoms: C_2  and  O_3
REMARK    3  A    between atoms: O_3  and  C_4
REMARK    4  A    between atoms: C_7  and  C_10
REMARK    5  A    between atoms: C_17  and  N_38
REMARK    6  A    between atoms: C_18  and  C_36
REMARK    7  A    between atoms: C_19  and  C_21
REMARK    8  A    between atoms: C_23  and  C_32
REMARK    9  A    between atoms: C_24  and  O_31
REMARK   10  A    between atoms: C_25  and  C_27
REMARK   11  A    between atoms: C_27  and  C_28
REMARK   12  A    between atoms: C_27  and  C_29
REMARK   13  A    between atoms: C_27  and  C_30
REMARK   14  A    between atoms: C_32  and  C_33
REMARK   15  A    between atoms: C_32  and  C_34
REMARK   16  A    between atoms: C_32  and  C_35
REMARK                            x       y       z     vdW  Elec       q    Type
REMARK                         _______ _______ _______ _____ _____    ______ ____
ROOT
ATOM      1  C   UNL     1       1.266  -6.242  -1.887  0.00  0.00    +0.100 A 
ATOM      2  C   UNL     1       1.022  -6.835  -3.129  0.00  0.00    +0.054 A 
ATOM      3  C   UNL     1       1.158  -8.185  -2.987  0.00  0.00    +0.223 A 
ATOM      4  N   UNL     1       1.476  -8.432  -1.699  0.00  0.00    -0.246 N 
ATOM      5  H   UNL     1       1.635  -9.306  -1.308  0.00  0.00    +0.192 HD
ATOM      6  N   UNL     1       1.544  -7.202  -1.026  0.00  0.00    -0.171 NA
ATOM      7  O   UNL     1       0.982  -9.052  -4.016  0.00  0.00    -0.423 OA
ATOM      8  C   UNL     1       0.399  -8.580  -5.136  0.00  0.00    +0.200 C 
ATOM      9  C   UNL     1       0.221  -7.266  -5.396  0.00  0.00    +0.098 C 
ATOM     10  C   UNL     1       0.670  -6.186  -4.443  0.00  0.00    +0.102 C 
ENDROOT
BRANCH   1  14
ATOM     11  C   UNL     1       1.147  -2.075  -1.036  0.00  0.00    +0.121 A 
ATOM     12  C   UNL     1       2.168  -2.860  -0.517  0.00  0.00    +0.046 A 
ATOM     13  C   UNL     1       2.209  -4.211  -0.791  0.00  0.00    +0.013 A 
ATOM     14  C   UNL     1       1.224  -4.788  -1.590  0.00  0.00    +0.003 A 
ATOM     15  C   UNL     1       0.201  -3.998  -2.110  0.00  0.00    +0.013 A 
ATOM     16  C   UNL     1       0.162  -2.649  -1.828  0.00  0.00    +0.046 A 
BRANCH  11  17
ATOM     17  O   UNL     1       1.110  -0.744  -0.765  0.00  0.00    -0.492 OA
BRANCH  17  19
ATOM     18  C   UNL     1       1.945   1.283   0.251  0.00  0.00    +0.048 C 
ATOM     19  C   UNL     1       2.155  -0.220   0.057  0.00  0.00    +0.225 C 
ENDBRANCH  17  19
ENDBRANCH  11  17
ENDBRANCH   1  14
BRANCH  10  20
ATOM     20  C   UNL     1       1.879  -5.483  -5.004  0.00  0.00    -0.034 A 
ATOM     21  C   UNL     1       3.018  -6.206  -5.308  0.00  0.00    +0.012 A 
ATOM     22  C   UNL     1       4.128  -5.564  -5.821  0.00  0.00    -0.000 A 
ATOM     23  C   UNL     1       4.099  -4.193  -6.033  0.00  0.00    +0.124 A 
ATOM     24  C   UNL     1       2.955  -3.470  -5.727  0.00  0.00    -0.000 A 
ATOM     25  C   UNL     1       1.846  -4.118  -5.219  0.00  0.00    +0.012 A 
BRANCH  24  26
ATOM     26  C   UNL     1       2.920  -1.981  -5.956  0.00  0.00    -0.009 C 
ATOM     27  C   UNL     1       1.579  -1.423  -5.477  0.00  0.00    +0.015 C 
ATOM     28  C   UNL     1       4.057  -1.318  -5.175  0.00  0.00    +0.015 C 
ATOM     29  C   UNL     1       3.090  -1.690  -7.448  0.00  0.00    +0.015 C 
ENDBRANCH  24  26
BRANCH  22  30
ATOM     30  C   UNL     1       5.370  -6.351  -6.151  0.00  0.00    -0.009 C 
ATOM     31  C   UNL     1       5.138  -7.828  -5.826  0.00  0.00    +0.015 C 
ATOM     32  C   UNL     1       5.688  -6.201  -7.640  0.00  0.00    +0.015 C 
ATOM     33  C   UNL     1       6.543  -5.825  -5.323  0.00  0.00    +0.015 C 
ENDBRANCH  22  30
BRANCH  23  34
ATOM     34  O   UNL     1       5.190  -3.559  -6.538  0.00  0.00    -0.506 OA
ATOM     35  H   UNL     1       5.204  -3.508  -7.503  0.00  0.00    +0.292 HD
ENDBRANCH  23  34
ENDBRANCH  10  20
BRANCH   8  36
ATOM     36  N   UNL     1      -0.041  -9.488  -6.068  0.00  0.00    -0.328 N 
ATOM     37  H   UNL     1       0.073 -10.438  -5.910  0.00  0.00    +0.145 HD
ATOM     38  H   UNL     1      -0.464  -9.179  -6.884  0.00  0.00    +0.145 HD
ENDBRANCH   8  36
BRANCH   9  39
ATOM     39  C   UNL     1      -0.415  -6.884  -6.620  0.00  0.00    +0.101 C 
ATOM     40  N   UNL     1      -0.920  -6.581  -7.592  0.00  0.00    -0.191 NA
ENDBRANCH   9  39
TORSDOF 9
