REMARK  Name = ZINC39380865
REMARK  10 active torsions:
REMARK  status: ('A' for Active; 'I' for Inactive)
REMARK    1  A    between atoms: C_1  and  C_2
REMARK    2  A    between atoms: C_7  and  C_8
REMARK    3  A    between atoms: N_12  and  C_14
REMARK    4  A    between atoms: C_14  and  C_15
REMARK    5  A    between atoms: C_15  and  N_16
REMARK    6  A    between atoms: C_17  and  C_19
REMARK    7  A    between atoms: C_19  and  C_20
REMARK    8  A    between atoms: C_20  and  C_21
REMARK    9  A    between atoms: C_21  and  C_27
REMARK   10  A    between atoms: C_27  and  C_28
REMARK                            x       y       z     vdW  Elec       q    Type
REMARK                         _______ _______ _______ _____ _____    ______ ____
ROOT
ATOM      1  N   UNL     1      -3.008  -1.020   7.891  0.00  0.00    -0.317 N 
ATOM      2  C   UNL     1      -2.537  -1.532   9.045  0.00  0.00    +0.213 C 
ATOM      3  O   UNL     1      -1.661  -2.371   9.024  0.00  0.00    -0.276 OA
ATOM      4  H   UNL     1      -3.708  -0.349   7.908  0.00  0.00    +0.149 HD
ENDROOT
BRANCH   1   5
ATOM      5  C   UNL     1      -2.461  -1.475   6.611  0.00  0.00    +0.085 C 
BRANCH   5   6
ATOM      6  C   UNL     1      -3.163  -0.741   5.466  0.00  0.00    -0.060 C 
BRANCH   6  10
ATOM      7  C   UNL     1      -2.292  -0.293   1.952  0.00  0.00    +0.001 C 
ATOM      8  C   UNL     1      -0.952  -0.810   2.524  0.00  0.00    -0.012 C 
ATOM      9  C   UNL     1      -1.194  -0.779   4.054  0.00  0.00    -0.078 C 
ATOM     10  N   UNL     1      -2.614  -1.197   4.182  0.00  0.00    +0.381 N 
ATOM     11  C   UNL     1      -3.330  -0.544   3.062  0.00  0.00    -0.071 C 
ATOM     12  H   UNL     1      -2.690  -2.200   4.107  0.00  0.00    -0.082 HD
BRANCH   7  19
ATOM     13  C   UNL     1      -2.734   1.109  -0.535  0.00  0.00    +0.044 C 
ATOM     14  C   UNL     1      -2.872  -0.390  -0.481  0.00  0.00    -0.047 A 
ATOM     15  C   UNL     1      -3.204  -1.095  -1.623  0.00  0.00    +0.003 A 
ATOM     16  C   UNL     1      -3.330  -2.471  -1.574  0.00  0.00    +0.000 A 
ATOM     17  C   UNL     1      -3.124  -3.142  -0.383  0.00  0.00    +0.000 A 
ATOM     18  C   UNL     1      -2.792  -2.437   0.759  0.00  0.00    +0.004 A 
ATOM     19  C   UNL     1      -2.661  -1.061   0.708  0.00  0.00    -0.043 A 
ENDBRANCH   7  19
ENDBRANCH   6  10
ENDBRANCH   5   6
ENDBRANCH   1   5
BRANCH   2  20
ATOM     20  C   UNL     1      -3.100  -1.064  10.363  0.00  0.00    +0.098 C 
BRANCH  20  21
ATOM     21  C   UNL     1      -2.398  -1.798  11.507  0.00  0.00    +0.035 C 
BRANCH  21  22
ATOM     22  C   UNL     1      -3.026  -1.386  12.839  0.00  0.00    +0.040 C 
ATOM     23  C   UNL     1      -2.482  -2.269  13.984  0.00  0.00    +0.035 C 
ATOM     24  C   UNL     1      -3.548  -3.386  14.054  0.00  0.00    +0.098 C 
ATOM     25  C   UNL     1      -4.795  -2.746  13.484  0.00  0.00    +0.214 C 
ATOM     26  O   UNL     1      -5.920  -3.180  13.614  0.00  0.00    -0.276 OA
ATOM     27  N   UNL     1      -4.474  -1.626  12.814  0.00  0.00    -0.309 N 
ATOM     28  H   UNL     1      -5.117  -1.050  12.371  0.00  0.00    +0.149 HD
BRANCH  22  29
ATOM     29  C   UNL     1      -2.739   0.090  13.124  0.00  0.00    +0.068 C 
BRANCH  29  30
ATOM     30  C   UNL     1      -3.448   0.504  14.388  0.00  0.00    -0.008 A 
ATOM     31  C   UNL     1      -2.968   0.568  15.654  0.00  0.00    +0.011 A 
ATOM     32  C   UNL     1      -3.809   0.982  16.670  0.00  0.00    +0.008 A 
ATOM     33  C   UNL     1      -5.089   1.313  16.370  0.00  0.00    +0.045 A 
ATOM     34  S   UNL     1      -5.135   1.047  14.605  0.00  0.00    -0.102 S 
ENDBRANCH  29  30
ENDBRANCH  22  29
ENDBRANCH  21  22
ENDBRANCH  20  21
ENDBRANCH   2  20
TORSDOF 9
