REMARK  Name = ZINC39674760
REMARK  10 active torsions:
REMARK  status: ('A' for Active; 'I' for Inactive)
REMARK    1  A    between atoms: C_1  and  C_2
REMARK    2  A    between atoms: C_4  and  C_14
REMARK    3  A    between atoms: C_7  and  C_12
REMARK    4  A    between atoms: C_14  and  C_15
REMARK    5  A    between atoms: C_15  and  N_16
REMARK    6  A    between atoms: C_17  and  C_19
REMARK    7  A    between atoms: C_30  and  C_32
REMARK    8  A    between atoms: C_36  and  N_38
REMARK    9  A    between atoms: N_38  and  C_39
REMARK   10  A    between atoms: N_38  and  C_40
REMARK                            x       y       z     vdW  Elec       q    Type
REMARK                         _______ _______ _______ _____ _____    ______ ____
ROOT
ATOM      1  C   UNL     1      -7.133  -0.800  -1.788  0.00  0.00    +0.100 C 
ATOM      2  C   UNL     1      -7.603   0.631  -2.135  0.00  0.00    +0.121 C 
ATOM      3  N   UNL     1      -9.054   0.493  -2.404  0.00  0.00    -0.296 N 
ATOM      4  C   UNL     1      -9.527  -0.476  -1.387  0.00  0.00    +0.115 C 
ATOM      5  C   UNL     1      -8.399  -1.522  -1.296  0.00  0.00    -0.004 C 
ATOM      6  C   UNL     1      -8.219  -1.980   0.148  0.00  0.00    -0.010 C 
ATOM      7  C   UNL     1      -9.467  -2.746   0.596  0.00  0.00    -0.082 C 
ATOM      8  N   UNL     1      -9.673  -3.904  -0.283  0.00  0.00    +0.379 N 
ATOM      9  C   UNL     1      -9.938  -3.451  -1.654  0.00  0.00    -0.082 C 
ATOM     10  C   UNL     1      -8.710  -2.714  -2.196  0.00  0.00    -0.010 C 
ATOM     11  C   UNL     1      -9.779   1.110  -3.358  0.00  0.00    +0.247 C 
ATOM     12  O   UNL     1      -9.224   1.783  -4.204  0.00  0.00    -0.270 OA
ATOM     13  H   UNL     1      -8.846  -4.482  -0.275  0.00  0.00    -0.086 HD
ATOM     14  H   UNL     1     -10.459  -4.441   0.050  0.00  0.00    -0.086 HD
ENDROOT
BRANCH  11  15
ATOM     15  C   UNL     1     -11.251   0.968  -3.375  0.00  0.00    +0.039 A 
ATOM     16  C   UNL     1     -11.931   0.585  -2.218  0.00  0.00    +0.013 A 
ATOM     17  C   UNL     1     -13.305   0.453  -2.237  0.00  0.00    +0.003 A 
ATOM     18  C   UNL     1     -14.012   0.697  -3.399  0.00  0.00    +0.023 A 
ATOM     19  C   UNL     1     -13.344   1.079  -4.557  0.00  0.00    +0.030 A 
ATOM     20  C   UNL     1     -11.964   1.220  -4.547  0.00  0.00    +0.036 A 
BRANCH  19  21
ATOM     21  N   UNL     1     -14.062   1.324  -5.729  0.00  0.00    -0.336 N 
ATOM     22  C   UNL     1     -15.520   1.179  -5.739  0.00  0.00    +0.129 C 
ATOM     23  C   UNL     1     -13.358   1.726  -6.950  0.00  0.00    +0.129 C 
ENDBRANCH  19  21
ENDBRANCH  11  15
BRANCH   1  25
ATOM     24  N   UNL     1      -5.140  -1.710  -0.640  0.00  0.00    -0.315 N 
ATOM     25  C   UNL     1      -6.094  -0.760  -0.697  0.00  0.00    +0.218 C 
ATOM     26  O   UNL     1      -6.117   0.126   0.131  0.00  0.00    -0.275 OA
ATOM     27  H   UNL     1      -5.122  -2.419  -1.302  0.00  0.00    +0.149 HD
BRANCH  24  28
ATOM     28  C   UNL     1      -4.130  -1.672   0.420  0.00  0.00    +0.108 C 
BRANCH  28  29
ATOM     29  C   UNL     1      -3.173  -2.854   0.256  0.00  0.00    +0.052 C 
BRANCH  29  32
ATOM     30  C   UNL     1      -0.073  -3.796   0.341  0.00  0.00    +0.035 C 
ATOM     31  C   UNL     1      -1.000  -3.792   1.558  0.00  0.00    +0.103 C 
ATOM     32  C   UNL     1      -2.134  -2.815   1.347  0.00  0.00    -0.037 C 
ATOM     33  C   UNL     1      -2.026  -1.894   2.338  0.00  0.00    +0.000 A 
ATOM     34  C   UNL     1      -2.800  -0.747   2.654  0.00  0.00    +0.028 A 
ATOM     35  C   UNL     1      -2.468   0.033   3.737  0.00  0.00    +0.052 A 
ATOM     36  C   UNL     1      -1.325  -0.292   4.583  0.00  0.00    +0.021 A 
ATOM     37  C   UNL     1      -0.554  -1.371   4.332  0.00  0.00    +0.027 A 
ATOM     38  C   UNL     1      -0.864  -2.236   3.188  0.00  0.00    +0.043 A 
ATOM     39  N   UNL     1      -0.277  -3.322   2.744  0.00  0.00    -0.378 N 
ATOM     40  H   UNL     1       0.506  -3.743   3.133  0.00  0.00    +0.160 HD
BRANCH  35  41
ATOM     41  C   UNL     1      -3.260   1.187   4.040  0.00  0.00    +0.099 C 
ATOM     42  N   UNL     1      -3.888   2.103   4.281  0.00  0.00    -0.191 NA
ENDBRANCH  35  41
ENDBRANCH  29  32
ENDBRANCH  28  29
ENDBRANCH  24  28
ENDBRANCH   1  25
TORSDOF 7
