REMARK  Name = ZINC39533963
REMARK  10 active torsions:
REMARK  status: ('A' for Active; 'I' for Inactive)
REMARK    1  A    between atoms: C_1  and  S_2
REMARK    2  A    between atoms: S_2  and  N_3
REMARK    3  A    between atoms: N_3  and  C_4
REMARK    4  A    between atoms: C_4  and  C_5
REMARK    5  A    between atoms: C_5  and  C_7
REMARK    6  A    between atoms: C_5  and  N_20
REMARK    7  A    between atoms: C_10  and  C_13
REMARK    8  A    between atoms: C_18  and  O_19
REMARK    9  A    between atoms: C_24  and  C_27
REMARK   10  A    between atoms: C_32  and  O_33
REMARK                            x       y       z     vdW  Elec       q    Type
REMARK                         _______ _______ _______ _____ _____    ______ ____
ROOT
ATOM      1  C   UNL     1       2.154  -1.836   2.580  0.00  0.00    +0.101 C 
ENDROOT
BRANCH   1   2
ATOM      2  N   UNL     1       3.273  -1.428   1.720  0.00  0.00    -0.297 NA
ATOM      3  C   UNL     1       3.922  -0.216   2.241  0.00  0.00    +0.066 C 
ATOM      4  C   UNL     1       5.116   0.141   1.353  0.00  0.00    -0.066 C 
ATOM      5  N   UNL     1       4.653   0.365  -0.023  0.00  0.00    +0.385 N 
ATOM      6  C   UNL     1       4.029  -0.860  -0.538  0.00  0.00    -0.023 C 
ATOM      7  C   UNL     1       2.826  -1.226   0.335  0.00  0.00    +0.074 C 
ATOM      8  H   UNL     1       3.978   1.116  -0.032  0.00  0.00    -0.085 HD
ATOM      9  H   UNL     1       5.438   0.613  -0.606  0.00  0.00    -0.085 HD
BRANCH   6  10
ATOM     10  C   UNL     1       3.570  -0.634  -1.955  0.00  0.00    -0.019 A 
ATOM     11  C   UNL     1       3.336   0.650  -2.409  0.00  0.00    +0.005 A 
ATOM     12  C   UNL     1       2.915   0.859  -3.709  0.00  0.00    +0.000 A 
ATOM     13  C   UNL     1       2.728  -0.216  -4.559  0.00  0.00    +0.004 A 
ATOM     14  C   UNL     1       2.961  -1.501  -4.110  0.00  0.00    +0.045 A 
ATOM     15  C   UNL     1       3.389  -1.713  -2.807  0.00  0.00    +0.118 A 
BRANCH  15  16
ATOM     16  O   UNL     1       3.625  -2.976  -2.365  0.00  0.00    -0.507 OA
ATOM     17  H   UNL     1       2.835  -3.435  -2.046  0.00  0.00    +0.292 HD
ENDBRANCH  15  16
ENDBRANCH   6  10
ENDBRANCH   1   2
BRANCH   1  18
ATOM     18  C   UNL     1       1.937  -3.322   2.451  0.00  0.00    -0.029 A 
ATOM     19  C   UNL     1       2.529  -4.017   1.411  0.00  0.00    +0.006 A 
ATOM     20  C   UNL     1       2.334  -5.377   1.288  0.00  0.00    +0.009 A 
ATOM     21  C   UNL     1       1.540  -6.052   2.213  0.00  0.00    -0.014 A 
ATOM     22  C   UNL     1       0.947  -5.347   3.259  0.00  0.00    +0.009 A 
ATOM     23  C   UNL     1       1.153  -3.987   3.376  0.00  0.00    +0.006 A 
BRANCH  21  24
ATOM     24  C   UNL     1       1.326  -7.514   2.085  0.00  0.00    +0.024 A 
ATOM     25  C   UNL     1       0.933  -8.060   0.866  0.00  0.00    +0.012 A 
ATOM     26  C   UNL     1       0.736  -9.421   0.752  0.00  0.00    +0.001 A 
ATOM     27  C   UNL     1       0.927 -10.247   1.846  0.00  0.00    +0.004 A 
ATOM     28  C   UNL     1       1.316  -9.716   3.061  0.00  0.00    +0.046 A 
ATOM     29  C   UNL     1       1.524  -8.351   3.187  0.00  0.00    +0.125 A 
BRANCH  29  30
ATOM     30  O   UNL     1       1.912  -7.829   4.380  0.00  0.00    -0.506 OA
ATOM     31  H   UNL     1       1.178  -7.574   4.955  0.00  0.00    +0.292 HD
ENDBRANCH  29  30
ENDBRANCH  21  24
ENDBRANCH   1  18
BRANCH   1  32
ATOM     32  C   UNL     1       0.885  -1.097   2.151  0.00  0.00    +0.117 C 
BRANCH  32  33
ATOM     33  N   UNL     1       1.129   0.351   2.176  0.00  0.00    -0.262 NA
ATOM     34  H   UNL     1       1.205   0.689   3.124  0.00  0.00    +0.135 HD
BRANCH  33  36
ATOM     35  C   UNL     1       0.437   2.944   1.309  0.00  0.00    +0.102 C 
ATOM     36  S   UNL     1      -0.127   1.220   1.293  0.00  0.00    -0.084 S 
ENDBRANCH  33  36
ENDBRANCH  32  33
ENDBRANCH   1  32
TORSDOF 9
