REMARK  Name = ZINC27740531
REMARK  4 active torsions:
REMARK  status: ('A' for Active; 'I' for Inactive)
REMARK    1  A    between atoms: C_1  and  C_2
REMARK    2  A    between atoms: C_4  and  C_23
REMARK    3  A    between atoms: C_11  and  C_13
REMARK    4  A    between atoms: N_15  and  C_16
REMARK                            x       y       z     vdW  Elec       q    Type
REMARK                         _______ _______ _______ _____ _____    ______ ____
ROOT
ATOM      1  C   UNL     1       2.466   4.352  -0.062  0.00  0.00    +0.044 C 
ATOM      2  C   UNL     1       1.160   3.600  -0.042  0.00  0.00    -0.049 A 
ATOM      3  C   UNL     1       1.163   2.212  -0.042  0.00  0.00    +0.010 A 
ATOM      4  C   UNL     1      -0.019   1.504  -0.025  0.00  0.00    -0.007 A 
ATOM      5  C   UNL     1      -1.233   2.185  -0.011  0.00  0.00    +0.142 A 
ATOM      6  C   UNL     1      -1.228   3.590  -0.005  0.00  0.00    +0.064 A 
ATOM      7  C   UNL     1      -0.021   4.289  -0.024  0.00  0.00    +0.018 A 
ATOM      8  C   UNL     1      -2.523   4.297   0.016  0.00  0.00    +0.193 A 
ATOM      9  O   UNL     1      -2.587   5.513   0.018  0.00  0.00    -0.287 OA
ATOM     10  C   UNL     1      -3.733   3.462   0.034  0.00  0.00    +0.103 A 
ATOM     11  C   UNL     1      -3.596   2.114   0.032  0.00  0.00    +0.194 A 
ATOM     12  O   UNL     1      -2.398   1.510   0.013  0.00  0.00    -0.450 OA
ATOM     13  C   UNL     1       0.002  -0.002  -0.026  0.00  0.00    +0.047 C 
ENDROOT
BRANCH  11  14
ATOM     14  C   UNL     1      -4.816   1.274   0.051  0.00  0.00    +0.284 C 
ATOM     15  O   UNL     1      -5.913   1.796   0.068  0.00  0.00    -0.266 OA
ATOM     16  N   UNL     1      -4.710  -0.070   0.048  0.00  0.00    -0.278 N 
ATOM     17  H   UNL     1      -3.721  -0.543  -0.042  0.00  0.00    +0.155 HD
BRANCH  16  18
ATOM     18  C   UNL     1      -5.856  -0.862   0.161  0.00  0.00    +0.048 A 
ATOM     19  C   UNL     1      -7.049  -0.447  -0.417  0.00  0.00    +0.024 A 
ATOM     20  C   UNL     1      -8.178  -1.234  -0.307  0.00  0.00    +0.002 A 
ATOM     21  C   UNL     1      -8.126  -2.430   0.385  0.00  0.00    +0.001 A 
ATOM     22  C   UNL     1      -6.941  -2.845   0.966  0.00  0.00    +0.017 A 
ATOM     23  C   UNL     1      -5.806  -2.064   0.856  0.00  0.00    +0.039 A 
ATOM     24 BR   UNL     1      -4.187  -2.632   1.651  0.00  0.00    -0.048 Br
ENDBRANCH  16  18
ENDBRANCH  11  14
TORSDOF 2
