REMARK  Name = ZINC66160356
REMARK  11 active torsions:
REMARK  status: ('A' for Active; 'I' for Inactive)
REMARK    1  A    between atoms: C_1  and  C_2
REMARK    2  A    between atoms: C_2  and  C_3
REMARK    3  A    between atoms: C_3  and  C_4
REMARK    4  A    between atoms: C_3  and  C_5
REMARK    5  A    between atoms: C_3  and  O_25
REMARK    6  A    between atoms: C_5  and  N_6
REMARK    7  A    between atoms: N_9  and  C_10
REMARK    8  A    between atoms: C_13  and  N_16
REMARK    9  A    between atoms: N_16  and  C_17
REMARK   10  A    between atoms: N_16  and  C_18
REMARK   11  A    between atoms: N_21  and  C_24
REMARK                            x       y       z     vdW  Elec       q    Type
REMARK                         _______ _______ _______ _____ _____    ______ ____
ROOT
ATOM      1  C   UNL     1      -4.459  -5.752  -0.170  0.00  0.00    +0.035 A 
ATOM      2  C   UNL     1      -3.370  -6.593   0.011  0.00  0.00    +0.025 A 
ATOM      3  C   UNL     1      -3.556  -7.959   0.079  0.00  0.00    +0.025 A 
ATOM      4  C   UNL     1      -4.833  -8.492  -0.034  0.00  0.00    +0.030 A 
ATOM      5  C   UNL     1      -5.923  -7.651  -0.216  0.00  0.00    +0.025 A 
ATOM      6  C   UNL     1      -5.737  -6.284  -0.278  0.00  0.00    +0.025 A 
ENDROOT
BRANCH   1  10
ATOM      7  N   UNL     1      -4.969  -2.203   0.299  0.00  0.00    -0.296 N 
ATOM      8  C   UNL     1      -5.194  -3.532   0.282  0.00  0.00    +0.304 C 
ATOM      9  O   UNL     1      -6.229  -3.979   0.735  0.00  0.00    -0.253 OA
ATOM     10  N   UNL     1      -4.270  -4.364  -0.238  0.00  0.00    -0.269 N 
ATOM     11  H   UNL     1      -4.143  -1.846  -0.062  0.00  0.00    +0.150 HD
ATOM     12  H   UNL     1      -3.474  -4.003  -0.660  0.00  0.00    +0.156 HD
BRANCH   7  13
ATOM     13  C   UNL     1      -5.973  -1.298   0.865  0.00  0.00    +0.140 C 
BRANCH  13  14
ATOM     14  C   UNL     1      -5.474   0.145   0.762  0.00  0.00    +0.078 C 
ATOM     15  C   UNL     1      -4.103   0.260   1.432  0.00  0.00    +0.043 C 
BRANCH  14  17
ATOM     16  C   UNL     1      -5.965   2.520   1.361  0.00  0.00    +0.007 C 
ATOM     17  C   UNL     1      -6.464   1.078   1.463  0.00  0.00    +0.032 C 
ENDBRANCH  14  17
BRANCH  14  18
ATOM     18  O   UNL     1      -5.364   0.514  -0.614  0.00  0.00    -0.387 OA
ATOM     19  H   UNL     1      -6.197   0.465  -1.102  0.00  0.00    +0.210 HD
ENDBRANCH  14  18
ENDBRANCH  13  14
ENDBRANCH   7  13
ENDBRANCH   1  10
BRANCH   4  20
ATOM     20  N   UNL     1      -5.022  -9.877   0.034  0.00  0.00    -0.330 N 
ATOM     21  C   UNL     1      -3.890 -10.757   0.335  0.00  0.00    +0.129 C 
BRANCH  20  22
ATOM     22  C   UNL     1      -6.352 -10.447  -0.196  0.00  0.00    +0.070 C 
ATOM     23  C   UNL     1      -6.745 -11.326   0.995  0.00  0.00    +0.004 C 
ATOM     24  C   UNL     1      -8.099 -11.981   0.714  0.00  0.00    -0.077 C 
ATOM     25  N   UNL     1      -8.006 -12.807  -0.496  0.00  0.00    +0.378 N 
ATOM     26  C   UNL     1      -7.700 -11.959  -1.655  0.00  0.00    -0.077 C 
ATOM     27  C   UNL     1      -6.330 -11.304  -1.465  0.00  0.00    +0.004 C 
ATOM     28  C   UNL     1      -9.285 -13.494  -0.719  0.00  0.00    -0.096 C 
ATOM     29  H   UNL     1      -7.274 -13.492  -0.379  0.00  0.00    -0.082 HD
ENDBRANCH  20  22
ENDBRANCH   4  20
TORSDOF 7
