REMARK  Name = ZINC22157153
REMARK  8 active torsions:
REMARK  status: ('A' for Active; 'I' for Inactive)
REMARK    1  A    between atoms: C_1  and  C_2
REMARK    2  A    between atoms: C_7  and  N_12
REMARK    3  A    between atoms: C_9  and  C_11
REMARK    4  A    between atoms: N_12  and  S_13
REMARK    5  A    between atoms: S_13  and  C_16
REMARK    6  A    between atoms: C_18  and  C_22
REMARK    7  A    between atoms: N_19  and  C_21
REMARK    8  A    between atoms: N_24  and  N_25
REMARK                            x       y       z     vdW  Elec       q    Type
REMARK                         _______ _______ _______ _____ _____    ______ ____
ROOT
ATOM      1  S   UNL     1       0.442  -0.003  -0.045  0.00  0.00    +0.060 S 
ATOM      2  O   UNL     1      -0.719  -0.576  -0.630  0.00  0.00    -0.153 OA
ATOM      3  O   UNL     1       1.744  -0.211  -0.576  0.00  0.00    -0.153 OA
ENDROOT
BRANCH   1   4
ATOM      4  C   UNL     1       0.183   1.739  -0.015  0.00  0.00    +0.123 A 
ATOM      5  C   UNL     1      -1.055   2.388  -0.032  0.00  0.00    +0.061 A 
ATOM      6  C   UNL     1      -0.803   3.743   0.007  0.00  0.00    +0.107 A 
ATOM      7  N   UNL     1       0.563   3.910   0.036  0.00  0.00    -0.344 N 
ATOM      8  C   UNL     1       1.149   2.688   0.023  0.00  0.00    +0.114 A 
ATOM      9  C   UNL     1       1.265   5.195   0.076  0.00  0.00    +0.149 C 
BRANCH   6  10
ATOM     10  C   UNL     1      -1.808   4.812   0.009  0.00  0.00    +0.274 C 
ATOM     11  O   UNL     1      -1.458   5.976  -0.060  0.00  0.00    -0.267 OA
ATOM     12  N   UNL     1      -3.118   4.505   0.086  0.00  0.00    -0.248 N 
ATOM     13  H   UNL     1      -3.431   3.461   0.233  0.00  0.00    +0.169 HD
BRANCH  12  14
ATOM     14  N   UNL     1      -4.058   5.491  -0.018  0.00  0.00    -0.254 NA
ATOM     15  H   UNL     1      -5.062   5.051   0.069  0.00  0.00    +0.140 HD
ATOM     16  H   UNL     1      -3.909   6.226   0.787  0.00  0.00    +0.140 HD
ENDBRANCH  12  14
ENDBRANCH   6  10
ENDBRANCH   1   4
BRANCH   1  17
ATOM     17  N   UNL     1       0.484  -0.520   1.528  0.00  0.00    -0.187 NA
ATOM     18  H   UNL     1       1.450  -0.786   1.980  0.00  0.00    +0.148 HD
BRANCH  17  24
ATOM     19  C   UNL     1      -3.270  -1.489   3.308  0.00  0.00    +0.008 C 
ATOM     20  C   UNL     1      -2.025  -1.495   4.196  0.00  0.00    -0.010 C 
ATOM     21  C   UNL     1      -1.968  -0.197   5.004  0.00  0.00    +0.003 C 
ATOM     22  C   UNL     1      -1.907   0.996   4.048  0.00  0.00    +0.002 C 
ATOM     23  C   UNL     1      -0.656   0.885   3.173  0.00  0.00    +0.020 C 
ATOM     24  C   UNL     1      -0.713  -0.413   2.365  0.00  0.00    +0.080 C 
ATOM     25  C   UNL     1      -0.774  -1.606   3.321  0.00  0.00    +0.007 C 
ATOM     26  C   UNL     1      -0.831  -2.904   2.514  0.00  0.00    +0.009 C 
ENDBRANCH  17  24
ENDBRANCH   1  17
TORSDOF 5
