REMARK  Name = ZINC22319286
REMARK  13 active torsions:
REMARK  status: ('A' for Active; 'I' for Inactive)
REMARK    1  A    between atoms: C_1  and  C_2
REMARK    2  A    between atoms: C_2  and  C_3
REMARK    3  A    between atoms: C_8  and  N_9
REMARK    4  A    between atoms: N_9  and  C_10
REMARK    5  A    between atoms: N_9  and  S_27
REMARK    6  A    between atoms: C_10  and  C_11
REMARK    7  A    between atoms: N_13  and  C_14
REMARK    8  A    between atoms: C_14  and  C_16
REMARK    9  A    between atoms: C_14  and  C_17
REMARK   10  A    between atoms: C_20  and  S_23
REMARK   11  A    between atoms: S_23  and  C_26
REMARK   12  A    between atoms: S_27  and  C_30
REMARK   13  A    between atoms: C_33  and  C_36
REMARK                            x       y       z     vdW  Elec       q    Type
REMARK                         _______ _______ _______ _____ _____    ______ ____
ROOT
ATOM      1  N   UNL     1      -5.310   6.410   6.720  0.00  0.00    -0.194 N 
ENDROOT
BRANCH   1   7
ATOM      2  C   UNL     1      -5.688   7.902   8.579  0.00  0.00    -0.025 A 
ATOM      3  C   UNL     1      -5.786   8.115   9.940  0.00  0.00    +0.005 A 
ATOM      4  C   UNL     1      -5.608   7.064  10.821  0.00  0.00    +0.000 A 
ATOM      5  C   UNL     1      -5.330   5.797  10.343  0.00  0.00    +0.002 A 
ATOM      6  C   UNL     1      -5.236   5.575   8.983  0.00  0.00    +0.025 A 
ATOM      7  C   UNL     1      -5.410   6.630   8.095  0.00  0.00    +0.055 A 
BRANCH   2   9
ATOM      8  C   UNL     1      -7.380   9.272   7.392  0.00  0.00    +0.009 C 
ATOM      9  C   UNL     1      -5.884   9.047   7.620  0.00  0.00    +0.033 C 
ENDBRANCH   2   9
ENDBRANCH   1   7
BRANCH   1  10
ATOM     10  S   UNL     1      -6.669   6.073   5.835  0.00  0.00    +0.075 S 
ATOM     11  O   UNL     1      -7.780   6.454   6.635  0.00  0.00    -0.150 OA
ATOM     12  O   UNL     1      -6.449   6.604   4.535  0.00  0.00    -0.150 OA
BRANCH  10  13
ATOM     13  C   UNL     1      -6.753   4.322   5.656  0.00  0.00    +0.109 A 
ATOM     14  C   UNL     1      -6.079   3.700   4.622  0.00  0.00    +0.029 A 
ATOM     15  C   UNL     1      -6.142   2.326   4.484  0.00  0.00    +0.005 A 
ATOM     16  C   UNL     1      -6.886   1.575   5.375  0.00  0.00    -0.050 A 
ATOM     17  C   UNL     1      -7.563   2.198   6.407  0.00  0.00    +0.005 A 
ATOM     18  C   UNL     1      -7.497   3.572   6.547  0.00  0.00    +0.029 A 
ATOM     19  C   UNL     1      -6.958   0.078   5.223  0.00  0.00    +0.044 C 
ENDBRANCH  10  13
ENDBRANCH   1  10
BRANCH   1  20
ATOM     20  C   UNL     1      -4.004   6.479   6.059  0.00  0.00    +0.227 C 
BRANCH  20  21
ATOM     21  C   UNL     1      -3.320   5.140   6.161  0.00  0.00    +0.233 C 
ATOM     22  O   UNL     1      -3.831   4.244   6.799  0.00  0.00    -0.274 OA
ATOM     23  N   UNL     1      -2.139   4.938   5.543  0.00  0.00    -0.307 N 
ATOM     24  H   UNL     1      -1.675   5.751   4.964  0.00  0.00    +0.149 HD
BRANCH  23  25
ATOM     25  C   UNL     1      -1.474   3.637   5.641  0.00  0.00    +0.100 C 
ATOM     26  C   UNL     1      -0.643   3.585   6.925  0.00  0.00    +0.033 C 
BRANCH  25  27
ATOM     27  C   UNL     1      -0.570   3.443   4.451  0.00  0.00    -0.027 A 
ATOM     28  C   UNL     1      -0.488   2.206   3.840  0.00  0.00    +0.007 A 
ATOM     29  C   UNL     1       0.341   2.028   2.748  0.00  0.00    +0.027 A 
ATOM     30  C   UNL     1       1.087   3.087   2.267  0.00  0.00    +0.088 A 
ATOM     31  C   UNL     1       1.009   4.323   2.881  0.00  0.00    +0.027 A 
ATOM     32  C   UNL     1       0.176   4.502   3.970  0.00  0.00    +0.007 A 
BRANCH  30  33
ATOM     33  S   UNL     1       2.144   2.860   0.875  0.00  0.00    -0.006 S 
ATOM     34  O   UNL     1       2.471   1.477   0.890  0.00  0.00    -0.170 OA
ATOM     35  O   UNL     1       3.157   3.846   1.025  0.00  0.00    -0.170 OA
ATOM     36  C   UNL     1       1.108   3.241  -0.564  0.00  0.00    +0.200 C 
ENDBRANCH  30  33
ENDBRANCH  25  27
ENDBRANCH  23  25
ENDBRANCH  20  21
ENDBRANCH   1  20
TORSDOF 9
