REMARK  Name = ZINC36142404
REMARK  7 active torsions:
REMARK  status: ('A' for Active; 'I' for Inactive)
REMARK    1  A    between atoms: C_1  and  C_2
REMARK    2  A    between atoms: C_9  and  C_17
REMARK    3  A    between atoms: C_9  and  C_18
REMARK    4  A    between atoms: C_11  and  C_12
REMARK    5  A    between atoms: C_11  and  N_16
REMARK    6  A    between atoms: C_12  and  O_14
REMARK    7  A    between atoms: O_14  and  C_15
REMARK                            x       y       z     vdW  Elec       q    Type
REMARK                         _______ _______ _______ _____ _____    ______ ____
ROOT
ATOM      1  C   UNL     1      -0.179   0.720  -0.296  0.00  0.00    +0.047 C 
ATOM      2  C   UNL     1      -0.141  -0.756   0.003  0.00  0.00    -0.007 A 
ATOM      3  C   UNL     1      -0.171  -1.669  -1.032  0.00  0.00    +0.027 A 
ATOM      4  C   UNL     1      -0.134  -3.024  -0.760  0.00  0.00    +0.042 A 
ATOM      5  C   UNL     1      -0.066  -3.463   0.550  0.00  0.00    +0.029 A 
ATOM      6  C   UNL     1      -0.036  -2.552   1.591  0.00  0.00    +0.027 A 
ATOM      7  C   UNL     1      -0.070  -1.195   1.321  0.00  0.00    +0.130 A 
ATOM      8  O   UNL     1      -0.048  -0.267   2.313  0.00  0.00    -0.486 OA
ATOM      9  C   UNL     1       0.390  -0.682   3.607  0.00  0.00    +0.108 C 
ATOM     10  C   UNL     1      -0.361  -1.967   3.983  0.00  0.00    +0.085 C 
ATOM     11  C   UNL     1       0.042  -3.069   3.006  0.00  0.00    +0.147 C 
ATOM     12  C   UNL     1       0.082   0.412   4.631  0.00  0.00    +0.055 C 
ATOM     13  C   UNL     1       1.895  -0.955   3.579  0.00  0.00    +0.055 C 
ATOM     14 CL   UNL     1      -0.174  -4.174  -2.060  0.00  0.00    -0.084 Cl
ENDROOT
BRANCH  11  15
ATOM     15  N   UNL     1       1.421  -3.482   3.299  0.00  0.00    -0.312 NA
ATOM     16  H   UNL     1       1.488  -3.891   4.219  0.00  0.00    +0.120 HD
ATOM     17  H   UNL     1       1.766  -4.117   2.595  0.00  0.00    +0.120 HD
ENDBRANCH  11  15
BRANCH  11  18
ATOM     18  C   UNL     1      -0.878  -4.253   3.158  0.00  0.00    +0.332 C 
ATOM     19  O   UNL     1      -1.998  -4.096   3.584  0.00  0.00    -0.248 OA
BRANCH  18  20
ATOM     20  O   UNL     1      -0.454  -5.481   2.822  0.00  0.00    -0.466 OA
ATOM     21  C   UNL     1      -1.379  -6.556   2.993  0.00  0.00    +0.280 C 
ENDBRANCH  18  20
ENDBRANCH  11  18
TORSDOF 3
