REMARK  Name = ZINC34749616
REMARK  8 active torsions:
REMARK  status: ('A' for Active; 'I' for Inactive)
REMARK    1  A    between atoms: C_1  and  O_2
REMARK    2  A    between atoms: O_2  and  C_3
REMARK    3  A    between atoms: C_8  and  N_9
REMARK    4  A    between atoms: C_10  and  C_12
REMARK    5  A    between atoms: C_12  and  N_13
REMARK    6  A    between atoms: C_17  and  C_32
REMARK    7  A    between atoms: N_26  and  C_29
REMARK    8  A    between atoms: C_29  and  C_30
REMARK                            x       y       z     vdW  Elec       q    Type
REMARK                         _______ _______ _______ _____ _____    ______ ____
ROOT
ATOM      1  N   UNL     1      -0.014  -6.354  -0.821  0.00  0.00    -0.271 N 
ATOM      2  C   UNL     1       1.183  -6.860  -1.171  0.00  0.00    +0.265 A 
ATOM      3  O   UNL     1       2.030  -6.147  -1.680  0.00  0.00    -0.267 OA
ATOM      4  C   UNL     1       1.448  -8.245  -0.936  0.00  0.00    +0.080 A 
ATOM      5  C   UNL     1       2.655  -9.014  -1.225  0.00  0.00    +0.004 A 
ATOM      6  C   UNL     1       2.679 -10.330  -0.911  0.00  0.00    +0.056 A 
ATOM      7  S   UNL     1       1.069 -10.616  -0.203  0.00  0.00    -0.076 S 
ATOM      8  C   UNL     1       0.405  -8.977  -0.344  0.00  0.00    +0.118 A 
ATOM      9  N   UNL     1      -0.755  -8.415  -0.024  0.00  0.00    -0.208 NA
ATOM     10  C   UNL     1      -0.971  -7.135  -0.245  0.00  0.00    +0.202 A 
ATOM     11  N   UNL     1      -2.178  -6.581   0.103  0.00  0.00    -0.304 N 
ATOM     12  C   UNL     1      -2.420  -6.094   1.470  0.00  0.00    +0.089 C 
ATOM     13  C   UNL     1      -3.737  -6.693   1.973  0.00  0.00    -0.059 C 
ATOM     14  N   UNL     1      -4.810  -6.383   1.020  0.00  0.00    +0.384 N 
ATOM     15  C   UNL     1      -4.543  -7.040  -0.265  0.00  0.00    -0.059 C 
ATOM     16  C   UNL     1      -3.263  -6.453  -0.881  0.00  0.00    +0.089 C 
ATOM     17  H   UNL     1      -4.858  -5.384   0.882  0.00  0.00    -0.081 HD
ENDROOT
BRANCH   5  18
ATOM     18  C   UNL     1       3.832  -8.365  -1.850  0.00  0.00    -0.017 A 
ATOM     19  C   UNL     1       3.675  -7.585  -2.995  0.00  0.00    +0.008 A 
ATOM     20  C   UNL     1       4.775  -6.983  -3.572  0.00  0.00    +0.001 A 
ATOM     21  C   UNL     1       6.031  -7.153  -3.017  0.00  0.00    +0.000 A 
ATOM     22  C   UNL     1       6.192  -7.926  -1.882  0.00  0.00    +0.001 A 
ATOM     23  C   UNL     1       5.100  -8.528  -1.292  0.00  0.00    +0.008 A 
ENDBRANCH   5  18
BRANCH   1  24
ATOM     24  C   UNL     1      -0.291  -4.935  -1.060  0.00  0.00    +0.224 C 
BRANCH  24  26
ATOM     25  N   UNL     1       0.098  -2.779   0.089  0.00  0.00    -0.281 N 
ATOM     26  C   UNL     1       0.240  -4.119   0.091  0.00  0.00    +0.237 C 
ATOM     27  O   UNL     1       0.796  -4.669   1.018  0.00  0.00    -0.274 OA
ATOM     28  H   UNL     1      -0.415  -2.347  -0.612  0.00  0.00    +0.155 HD
BRANCH  25  34
ATOM     29  C   UNL     1       0.172  -0.759   1.421  0.00  0.00    +0.141 A 
ATOM     30  C   UNL     1       0.760  -0.005   2.423  0.00  0.00    +0.047 A 
ATOM     31  C   UNL     1       1.865  -0.492   3.097  0.00  0.00    +0.004 A 
ATOM     32  C   UNL     1       2.385  -1.732   2.774  0.00  0.00    +0.002 A 
ATOM     33  C   UNL     1       1.804  -2.490   1.775  0.00  0.00    +0.027 A 
ATOM     34  C   UNL     1       0.692  -2.010   1.098  0.00  0.00    +0.076 A 
BRANCH  29  36
ATOM     35  C   UNL     1      -1.393   1.010   1.141  0.00  0.00    +0.277 C 
ATOM     36  O   UNL     1      -0.914  -0.281   0.757  0.00  0.00    -0.493 OA
ENDBRANCH  29  36
ENDBRANCH  25  34
ENDBRANCH  24  26
ENDBRANCH   1  24
BRANCH  14  37
ATOM     37  C   UNL     1      -6.092  -6.861   1.556  0.00  0.00    -0.052 C 
BRANCH  37  38
ATOM     38  C   UNL     1      -7.210  -6.436   0.638  0.00  0.00    -0.053 C 
ATOM     39  C   UNL     1      -8.033  -7.331   0.151  0.00  0.00    +0.002 C 
ENDBRANCH  37  38
ENDBRANCH  14  37
TORSDOF 7
