REMARK  Name = ZINC39634952
REMARK  8 active torsions:
REMARK  status: ('A' for Active; 'I' for Inactive)
REMARK    1  A    between atoms: C_1  and  O_2
REMARK    2  A    between atoms: O_2  and  C_3
REMARK    3  A    between atoms: C_6  and  C_9
REMARK    4  A    between atoms: C_9  and  C_10
REMARK    5  A    between atoms: C_10  and  N_11
REMARK    6  A    between atoms: C_12  and  C_14
REMARK    7  A    between atoms: C_25  and  C_27
REMARK    8  A    between atoms: C_30  and  C_33
REMARK                            x       y       z     vdW  Elec       q    Type
REMARK                         _______ _______ _______ _____ _____    ______ ____
ROOT
ATOM      1  C   UNL     1      -9.236  -4.878  -2.285  0.00  0.00    +0.100 C 
ATOM      2  C   UNL     1     -10.045  -3.773  -1.570  0.00  0.00    +0.121 C 
ATOM      3  N   UNL     1     -10.670  -2.997  -2.667  0.00  0.00    -0.296 N 
ATOM      4  C   UNL     1     -11.071  -4.022  -3.661  0.00  0.00    +0.115 C 
ATOM      5  C   UNL     1      -9.915  -5.041  -3.655  0.00  0.00    -0.004 C 
ATOM      6  C   UNL     1      -8.928  -4.724  -4.774  0.00  0.00    -0.010 C 
ATOM      7  C   UNL     1      -9.609  -4.948  -6.128  0.00  0.00    -0.082 C 
ATOM      8  N   UNL     1     -10.060  -6.341  -6.226  0.00  0.00    +0.379 N 
ATOM      9  C   UNL     1     -11.078  -6.612  -5.203  0.00  0.00    -0.082 C 
ATOM     10  C   UNL     1     -10.459  -6.458  -3.811  0.00  0.00    -0.010 C 
ATOM     11  C   UNL     1     -10.835  -1.662  -2.745  0.00  0.00    +0.247 C 
ATOM     12  O   UNL     1     -10.338  -0.938  -1.904  0.00  0.00    -0.270 OA
ATOM     13  H   UNL     1     -10.453  -6.502  -7.141  0.00  0.00    -0.086 HD
ATOM     14  H   UNL     1      -9.274  -6.958  -6.087  0.00  0.00    -0.086 HD
ENDROOT
BRANCH  11  15
ATOM     15  C   UNL     1     -11.622  -1.077  -3.852  0.00  0.00    +0.037 A 
ATOM     16  C   UNL     1     -12.537  -1.864  -4.553  0.00  0.00    +0.013 A 
ATOM     17  C   UNL     1     -13.268  -1.312  -5.585  0.00  0.00    +0.013 A 
ATOM     18  C   UNL     1     -13.095   0.017  -5.926  0.00  0.00    +0.055 A 
ATOM     19  C   UNL     1     -12.189   0.802  -5.235  0.00  0.00    +0.013 A 
ATOM     20  C   UNL     1     -11.456   0.265  -4.197  0.00  0.00    +0.013 A 
BRANCH  18  21
ATOM     21  C   UNL     1     -13.896   0.613  -7.055  0.00  0.00    +0.417 C 
ATOM     22  F   UNL     1     -15.091   1.139  -6.551  0.00  0.00    -0.166 F 
ATOM     23  F   UNL     1     -13.158   1.633  -7.664  0.00  0.00    -0.166 F 
ATOM     24  F   UNL     1     -14.185  -0.380  -7.997  0.00  0.00    -0.166 F 
ENDBRANCH  18  21
ENDBRANCH  11  15
BRANCH   1  26
ATOM     25  N   UNL     1      -6.835  -5.378  -2.602  0.00  0.00    -0.315 N 
ATOM     26  C   UNL     1      -7.802  -4.450  -2.457  0.00  0.00    +0.218 C 
ATOM     27  O   UNL     1      -7.517  -3.271  -2.465  0.00  0.00    -0.275 OA
ATOM     28  H   UNL     1      -7.062  -6.321  -2.596  0.00  0.00    +0.149 HD
BRANCH  25  29
ATOM     29  C   UNL     1      -5.440  -4.962  -2.770  0.00  0.00    +0.109 C 
BRANCH  29  30
ATOM     30  C   UNL     1      -4.552  -6.199  -2.913  0.00  0.00    +0.054 C 
BRANCH  30  34
ATOM     31  C   UNL     1      -0.484  -4.986  -3.401  0.00  0.00    +0.120 A 
ATOM     32  C   UNL     1      -0.994  -5.212  -2.131  0.00  0.00    +0.046 A 
ATOM     33  C   UNL     1      -2.309  -5.604  -1.976  0.00  0.00    +0.007 A 
ATOM     34  C   UNL     1      -3.117  -5.771  -3.085  0.00  0.00    -0.046 A 
ATOM     35  C   UNL     1      -2.611  -5.547  -4.352  0.00  0.00    +0.007 A 
ATOM     36  C   UNL     1      -1.298  -5.149  -4.512  0.00  0.00    +0.046 A 
BRANCH  31  38
ATOM     37  C   UNL     1       1.590  -4.452  -2.369  0.00  0.00    +0.277 C 
ATOM     38  O   UNL     1       0.810  -4.600  -3.557  0.00  0.00    -0.495 OA
ENDBRANCH  31  38
ENDBRANCH  30  34
ENDBRANCH  29  30
ENDBRANCH  25  29
ENDBRANCH   1  26
TORSDOF 7
