REMARK  Name = ZINC06623538
REMARK  8 active torsions:
REMARK  status: ('A' for Active; 'I' for Inactive)
REMARK    1  A    between atoms: C_1  and  C_2
REMARK    2  A    between atoms: N_7  and  C_9
REMARK    3  A    between atoms: C_12  and  C_18
REMARK    4  A    between atoms: C_14  and  N_15
REMARK    5  A    between atoms: N_20  and  C_21
REMARK    6  A    between atoms: C_21  and  C_22
REMARK    7  A    between atoms: C_21  and  C_23
REMARK    8  A    between atoms: C_21  and  C_24
REMARK                            x       y       z     vdW  Elec       q    Type
REMARK                         _______ _______ _______ _____ _____    ______ ____
ROOT
ATOM      1  C   UNL     1      -0.741   1.940   1.098  0.00  0.00    +0.060 A 
ATOM      2  C   UNL     1      -2.122   1.771   1.142  0.00  0.00    +0.026 A 
ATOM      3  C   UNL     1      -2.842   2.248   2.213  0.00  0.00    +0.015 A 
ATOM      4  C   UNL     1      -2.186   2.915   3.252  0.00  0.00    +0.039 A 
ATOM      5  C   UNL     1      -0.800   3.089   3.203  0.00  0.00    +0.047 A 
ATOM      6  C   UNL     1      -0.085   2.603   2.131  0.00  0.00    +0.148 A 
ENDROOT
BRANCH   1  12
ATOM      7  C   UNL     1       0.556  -2.036  -1.364  0.00  0.00    +0.009 C 
ATOM      8  C   UNL     1       0.743  -0.525  -1.216  0.00  0.00    +0.003 C 
ATOM      9  C   UNL     1       0.392   0.166  -2.536  0.00  0.00    +0.006 C 
ATOM     10  C   UNL     1       0.523   1.681  -2.361  0.00  0.00    +0.019 C 
ATOM     11  C   UNL     1      -0.393   2.140  -1.224  0.00  0.00    +0.105 C 
ATOM     12  N   UNL     1      -0.016   1.451   0.017  0.00  0.00    -0.328 N 
ATOM     13  C   UNL     1      -0.179  -0.003  -0.112  0.00  0.00    +0.108 C 
ENDBRANCH   1  12
BRANCH   4  14
ATOM     14  C   UNL     1      -2.955   3.433   4.400  0.00  0.00    +0.245 C 
ATOM     15  O   UNL     1      -2.384   4.013   5.303  0.00  0.00    -0.270 OA
ATOM     16  N   UNL     1      -4.292   3.265   4.446  0.00  0.00    -0.307 N 
ATOM     17  H   UNL     1      -4.748   2.803   3.725  0.00  0.00    +0.150 HD
BRANCH  16  18
ATOM     18  C   UNL     1      -5.056   3.780   5.585  0.00  0.00    +0.026 C 
ATOM     19  C   UNL     1      -4.870   5.296   5.680  0.00  0.00    +0.031 C 
ATOM     20  C   UNL     1      -6.539   3.459   5.392  0.00  0.00    +0.031 C 
ATOM     21  C   UNL     1      -4.555   3.123   6.873  0.00  0.00    +0.031 C 
ENDBRANCH  16  18
ENDBRANCH   4  14
BRANCH   6  22
ATOM     22  N   UNL     1       1.383   2.787   2.078  0.00  0.00    +0.058 N 
ATOM     23  O   UNL     1       1.970   3.280   3.025  0.00  0.00    -0.126 OA
ATOM     24  O   UNL     1       2.003   2.446   1.087  0.00  0.00    -0.126 OA
ENDBRANCH   6  22
TORSDOF 4
