REMARK  Name = ZINC64055301
REMARK  11 active torsions:
REMARK  status: ('A' for Active; 'I' for Inactive)
REMARK    1  A    between atoms: C_1  and  O_2
REMARK    2  A    between atoms: O_2  and  C_3
REMARK    3  A    between atoms: C_3  and  C_5
REMARK    4  A    between atoms: C_9  and  C_11
REMARK    5  A    between atoms: C_11  and  O_12
REMARK    6  A    between atoms: O_12  and  C_13
REMARK    7  A    between atoms: C_13  and  C_15
REMARK    8  A    between atoms: C_15  and  C_17
REMARK    9  A    between atoms: C_15  and  N_27
REMARK   10  A    between atoms: C_17  and  C_18
REMARK   11  A    between atoms: C_28  and  C_30
REMARK                            x       y       z     vdW  Elec       q    Type
REMARK                         _______ _______ _______ _____ _____    ______ ____
ROOT
ATOM      1  C   UNL     1       5.651  -5.831   3.719  0.00  0.00    +0.186 C 
ENDROOT
BRANCH   1   2
ATOM      2  N   UNL     1       6.138  -6.883   4.614  0.00  0.00    -0.298 N 
ATOM      3  C   UNL     1       6.067  -6.718   5.950  0.00  0.00    +0.251 C 
ATOM      4  O   UNL     1       5.599  -5.695   6.413  0.00  0.00    -0.270 OA
ATOM      5  H   UNL     1       6.511  -7.699   4.245  0.00  0.00    +0.150 HD
BRANCH   3   6
ATOM      6  C   UNL     1       6.555  -7.771   6.845  0.00  0.00    +0.074 A 
ATOM      7  C   UNL     1       6.569  -7.803   8.232  0.00  0.00    +0.021 A 
ATOM      8  C   UNL     1       7.095  -8.939   8.797  0.00  0.00    +0.008 A 
ATOM      9  C   UNL     1       7.553  -9.927   7.989  0.00  0.00    +0.046 A 
ATOM     10  S   UNL     1       7.277  -9.349   6.436  0.00  0.00    -0.092 S 
ENDBRANCH   3   6
ENDBRANCH   1   2
BRANCH   1  11
ATOM     11  C   UNL     1       4.186  -5.588   3.979  0.00  0.00    +0.328 C 
ATOM     12  O   UNL     1       3.692  -5.937   5.026  0.00  0.00    -0.249 OA
BRANCH  11  13
ATOM     13  O   UNL     1       3.430  -4.984   3.049  0.00  0.00    -0.459 OA
BRANCH  13  14
ATOM     14  C   UNL     1       2.050  -4.787   3.363  0.00  0.00    +0.267 C 
BRANCH  14  19
ATOM     15  C   UNL     1       0.680  -2.088   1.091  0.00  0.00    +0.059 A 
ATOM     16  C   UNL     1       0.101  -2.854   0.077  0.00  0.00    +0.015 A 
ATOM     17  C   UNL     1       0.160  -4.231   0.138  0.00  0.00    +0.001 A 
ATOM     18  C   UNL     1       0.791  -4.853   1.200  0.00  0.00    +0.007 A 
ATOM     19  C   UNL     1       1.366  -4.100   2.209  0.00  0.00    -0.010 A 
ATOM     20  C   UNL     1       1.320  -2.722   2.157  0.00  0.00    +0.022 A 
BRANCH  15  21
ATOM     21  C   UNL     1       0.620  -0.613   1.032  0.00  0.00    +0.339 C 
ATOM     22  O   UNL     1       1.129   0.051   1.913  0.00  0.00    -0.245 OA
BRANCH  21  24
ATOM     23  C   UNL     1      -0.017   1.425   0.010  0.00  0.00    +0.280 C 
ATOM     24  O   UNL     1       0.002  -0.004   0.002  0.00  0.00    -0.464 OA
ENDBRANCH  21  24
ENDBRANCH  15  21
ENDBRANCH  14  19
ENDBRANCH  13  14
ENDBRANCH  11  13
ENDBRANCH   1  11
BRANCH   1  25
ATOM     25  C   UNL     1       6.434  -4.541   3.974  0.00  0.00    +0.067 C 
BRANCH  25  26
ATOM     26  C   UNL     1       7.878  -4.748   3.597  0.00  0.00    -0.039 C 
ATOM     27  C   UNL     1       8.463  -4.438   2.418  0.00  0.00    -0.001 A 
ATOM     28  C   UNL     1       7.950  -3.838   1.181  0.00  0.00    +0.010 A 
ATOM     29  C   UNL     1       8.796  -3.646   0.144  0.00  0.00    +0.001 A 
ATOM     30  C   UNL     1      10.149  -4.005   0.221  0.00  0.00    +0.002 A 
ATOM     31  C   UNL     1      10.694  -4.561   1.323  0.00  0.00    +0.026 A 
ATOM     32  C   UNL     1       9.896  -4.808   2.474  0.00  0.00    +0.043 A 
ATOM     33  N   UNL     1      10.185  -5.327   3.643  0.00  0.00    -0.380 N 
ATOM     34  C   UNL     1       8.968  -5.340   4.463  0.00  0.00    +0.144 C 
ATOM     35  H   UNL     1      11.058  -5.646   3.920  0.00  0.00    +0.160 HD
ENDBRANCH  25  26
ENDBRANCH   1  25
TORSDOF 10
