REMARK  Name = ZINC41006249
REMARK  13 active torsions:
REMARK  status: ('A' for Active; 'I' for Inactive)
REMARK    1  A    between atoms: C_1  and  C_2
REMARK    2  A    between atoms: C_2  and  C_3
REMARK    3  A    between atoms: C_6  and  C_9
REMARK    4  A    between atoms: C_11  and  C_32
REMARK    5  A    between atoms: C_16  and  C_30
REMARK    6  A    between atoms: C_16  and  O_31
REMARK    7  A    between atoms: C_17  and  C_19
REMARK    8  A    between atoms: N_21  and  C_22
REMARK    9  A    between atoms: C_27  and  O_28
REMARK   10  A    between atoms: O_28  and  C_29
REMARK   11  A    between atoms: N_34  and  C_35
REMARK   12  A    between atoms: C_40  and  O_41
REMARK   13  A    between atoms: O_41  and  C_42
REMARK                            x       y       z     vdW  Elec       q    Type
REMARK                         _______ _______ _______ _____ _____    ______ ____
ROOT
ATOM      1  C   UNL     1      -4.907  -2.133  -0.189  0.00  0.00    +0.053 C 
ATOM      2  C   UNL     1      -4.457  -3.305  -1.067  0.00  0.00    +0.149 C 
ATOM      3  C   UNL     1      -5.609  -4.277  -1.200  0.00  0.00    +0.148 C 
ATOM      4  O   UNL     1      -5.457  -5.452  -0.969  0.00  0.00    -0.296 OA
ATOM      5  C   UNL     1      -6.955  -3.739  -1.631  0.00  0.00    +0.110 C 
ATOM      6  C   UNL     1      -7.315  -2.551  -0.732  0.00  0.00    +0.082 C 
ATOM      7  C   UNL     1      -6.184  -1.523  -0.771  0.00  0.00    +0.115 C 
ATOM      8  C   UNL     1      -8.609  -1.905  -1.232  0.00  0.00    +0.042 C 
ENDROOT
BRANCH   1  12
ATOM      9  C   UNL     1      -1.830   0.827  -0.079  0.00  0.00    -0.048 A 
ATOM     10  C   UNL     1      -2.469   0.450   1.088  0.00  0.00    +0.004 A 
ATOM     11  C   UNL     1      -3.465  -0.508   1.052  0.00  0.00    +0.004 A 
ATOM     12  C   UNL     1      -3.822  -1.088  -0.150  0.00  0.00    -0.042 A 
ATOM     13  C   UNL     1      -3.185  -0.711  -1.317  0.00  0.00    +0.004 A 
ATOM     14  C   UNL     1      -2.192   0.251  -1.282  0.00  0.00    +0.004 A 
BRANCH   9  16
ATOM     15  C   UNL     1      -1.364   3.258  -0.225  0.00  0.00    +0.009 C 
ATOM     16  C   UNL     1      -0.745   1.872  -0.040  0.00  0.00    +0.032 C 
ENDBRANCH   9  16
ENDBRANCH   1  12
BRANCH   7  17
ATOM     17  C   UNL     1      -5.934  -1.106  -2.197  0.00  0.00    +0.224 C 
ATOM     18  O   UNL     1      -5.609  -1.934  -3.022  0.00  0.00    -0.275 OA
ATOM     19  N   UNL     1      -6.073   0.185  -2.557  0.00  0.00    -0.282 N 
ATOM     20  H   UNL     1      -6.368   0.841  -1.905  0.00  0.00    +0.155 HD
BRANCH  19  21
ATOM     21  C   UNL     1      -5.790   0.581  -3.871  0.00  0.00    +0.076 A 
ATOM     22  C   UNL     1      -5.795  -0.354  -4.895  0.00  0.00    +0.027 A 
ATOM     23  C   UNL     1      -5.516   0.039  -6.190  0.00  0.00    +0.002 A 
ATOM     24  C   UNL     1      -5.232   1.363  -6.469  0.00  0.00    +0.004 A 
ATOM     25  C   UNL     1      -5.226   2.301  -5.453  0.00  0.00    +0.047 A 
ATOM     26  C   UNL     1      -5.510   1.916  -4.153  0.00  0.00    +0.141 A 
BRANCH  26  27
ATOM     27  O   UNL     1      -5.509   2.838  -3.154  0.00  0.00    -0.493 OA
ATOM     28  C   UNL     1      -5.213   4.188  -3.517  0.00  0.00    +0.277 C 
ENDBRANCH  26  27
ENDBRANCH  19  21
ENDBRANCH   7  17
BRANCH   2  29
ATOM     29  C   UNL     1      -3.280  -3.994  -0.428  0.00  0.00    +0.228 C 
ATOM     30  O   UNL     1      -2.841  -3.590   0.628  0.00  0.00    -0.275 OA
ATOM     31  N   UNL     1      -2.714  -5.060  -1.029  0.00  0.00    -0.282 N 
ATOM     32  H   UNL     1      -3.032  -5.352  -1.897  0.00  0.00    +0.155 HD
BRANCH  31  33
ATOM     33  C   UNL     1      -1.667  -5.745  -0.399  0.00  0.00    +0.076 A 
ATOM     34  C   UNL     1      -1.564  -5.739   0.984  0.00  0.00    +0.027 A 
ATOM     35  C   UNL     1      -0.530  -6.417   1.603  0.00  0.00    +0.002 A 
ATOM     36  C   UNL     1       0.403  -7.101   0.846  0.00  0.00    +0.004 A 
ATOM     37  C   UNL     1       0.307  -7.111  -0.533  0.00  0.00    +0.047 A 
ATOM     38  C   UNL     1      -0.729  -6.440  -1.161  0.00  0.00    +0.141 A 
BRANCH  38  39
ATOM     39  O   UNL     1      -0.828  -6.454  -2.517  0.00  0.00    -0.493 OA
ATOM     40  C   UNL     1       0.168  -7.186  -3.232  0.00  0.00    +0.277 C 
ENDBRANCH  38  39
ENDBRANCH  31  33
ENDBRANCH   2  29
BRANCH   6  41
ATOM     41  O   UNL     1      -7.498  -3.007   0.610  0.00  0.00    -0.388 OA
ATOM     42  H   UNL     1      -8.201  -3.664   0.710  0.00  0.00    +0.210 HD
ENDBRANCH   6  41
TORSDOF 9
