REMARK  Name = ZINC01256105
REMARK  3 active torsions:
REMARK  status: ('A' for Active; 'I' for Inactive)
REMARK    1  A    between atoms: C_7  and  C_11
REMARK    2  A    between atoms: N_12  and  N_13
REMARK    3  A    between atoms: C_14  and  C_19
REMARK                            x       y       z     vdW  Elec       q    Type
REMARK                         _______ _______ _______ _____ _____    ______ ____
ROOT
ATOM      1  C   UNL     1       1.614   4.237   0.010  0.00  0.00    +0.143 C 
ATOM      2  N   UNL     1       1.114   5.436   0.021  0.00  0.00    -0.170 NA
ENDROOT
BRANCH   1   9
ATOM      3  C   UNL     1      -3.046   3.773   0.051  0.00  0.00    +0.001 A 
ATOM      4  C   UNL     1      -3.444   2.444   0.048  0.00  0.00    +0.002 A 
ATOM      5  C   UNL     1      -2.510   1.431   0.034  0.00  0.00    +0.026 A 
ATOM      6  C   UNL     1      -1.153   1.738   0.016  0.00  0.00    +0.047 A 
ATOM      7  C   UNL     1      -0.752   3.084   0.026  0.00  0.00    +0.008 A 
ATOM      8  C   UNL     1      -1.707   4.098   0.040  0.00  0.00    +0.010 A 
ATOM      9  C   UNL     1       0.722   3.068   0.012  0.00  0.00    +0.020 A 
ATOM     10  C   UNL     1       1.095   1.759   0.001  0.00  0.00    +0.093 A 
ATOM     11  N   UNL     1      -0.011   0.966   0.007  0.00  0.00    -0.360 N 
ATOM     12  H   UNL     1      -0.089  -0.131   0.006  0.00  0.00    +0.165 HD
ENDBRANCH   1   9
BRANCH   2  13
ATOM     13  N   UNL     1       1.964   6.550   0.020  0.00  0.00    -0.182 N 
ATOM     14  C   UNL     1       2.455   7.213  -1.072  0.00  0.00    +0.259 A 
ATOM     15  N   UNL     1       3.204   8.186  -0.630  0.00  0.00    -0.122 NA
ATOM     16  N   UNL     1       3.220   8.183   0.654  0.00  0.00    -0.120 NA
ATOM     17  C   UNL     1       2.471   7.204   1.109  0.00  0.00    +0.223 A 
ATOM     18  S   UNL     1       2.179   6.806   2.800  0.00  0.00    -0.007 SA
BRANCH  14  19
ATOM     19  C   UNL     1       2.182   6.882  -2.516  0.00  0.00    +0.454 C 
ATOM     20  F   UNL     1       3.106   7.545  -3.330  0.00  0.00    -0.163 F 
ATOM     21  F   UNL     1       2.298   5.501  -2.708  0.00  0.00    -0.163 F 
ATOM     22  F   UNL     1       0.887   7.292  -2.852  0.00  0.00    -0.163 F 
ENDBRANCH  14  19
ENDBRANCH   2  13
TORSDOF 3
