REMARK  Name = ZINC59915556
REMARK  11 active torsions:
REMARK  status: ('A' for Active; 'I' for Inactive)
REMARK    1  A    between atoms: C_1  and  C_2
REMARK    2  A    between atoms: C_2  and  C_3
REMARK    3  A    between atoms: C_3  and  C_4
REMARK    4  A    between atoms: C_4  and  C_5
REMARK    5  A    between atoms: C_5  and  C_27
REMARK    6  A    between atoms: N_6  and  N_7
REMARK    7  A    between atoms: C_11  and  S_14
REMARK    8  A    between atoms: N_12  and  N_13
REMARK    9  A    between atoms: S_14  and  C_15
REMARK   10  A    between atoms: C_15  and  C_16
REMARK   11  A    between atoms: N_18  and  C_19
REMARK                            x       y       z     vdW  Elec       q    Type
REMARK                         _______ _______ _______ _____ _____    ______ ____
ROOT
ATOM      1  N   UNL     1      -4.596  -3.703  -0.991  0.00  0.00    -0.204 N 
ATOM      2  C   UNL     1      -5.081  -4.418  -2.078  0.00  0.00    +0.254 A 
ATOM      3  N   UNL     1      -4.416  -4.702  -3.171  0.00  0.00    -0.109 NA
ATOM      4  N   UNL     1      -5.263  -5.433  -4.015  0.00  0.00    -0.119 NA
ATOM      5  C   UNL     1      -6.418  -5.571  -3.409  0.00  0.00    +0.210 A 
ATOM      6  N   UNL     1      -6.334  -4.952  -2.194  0.00  0.00    -0.211 N 
ATOM      7  H   UNL     1      -5.165  -3.546  -0.221  0.00  0.00    +0.177 HD
ENDROOT
BRANCH   1   9
ATOM      8  C   UNL     1      -2.838  -2.551  -0.002  0.00  0.00    +0.034 C 
ATOM      9  N   UNL     1      -3.285  -3.210  -1.005  0.00  0.00    -0.189 NA
ATOM     10  C   UNL     1      -3.722  -2.307   1.194  0.00  0.00    +0.062 C 
BRANCH   8  11
ATOM     11  C   UNL     1      -1.428  -2.020  -0.018  0.00  0.00    +0.052 C 
BRANCH  11  12
ATOM     12  C   UNL     1      -1.459  -0.491  -0.009  0.00  0.00    +0.006 C 
BRANCH  12  14
ATOM     13  C   UNL     1      -0.058   1.578  -0.015  0.00  0.00    +0.004 C 
ATOM     14  C   UNL     1      -0.027   0.049  -0.024  0.00  0.00    -0.003 C 
ENDBRANCH  12  14
ENDBRANCH  11  12
ENDBRANCH   8  11
ENDBRANCH   1   9
BRANCH   6  15
ATOM     15  N   UNL     1      -7.328  -4.878  -1.260  0.00  0.00    -0.294 N 
ATOM     16  H   UNL     1      -7.897  -4.057  -1.403  0.00  0.00    +0.163 HD
ATOM     17  H   UNL     1      -7.892  -5.715  -1.266  0.00  0.00    +0.163 HD
ENDBRANCH   6  15
BRANCH   5  18
ATOM     18  S   UNL     1      -7.828  -6.412  -4.048  0.00  0.00    -0.075 S 
BRANCH  18  19
ATOM     19  C   UNL     1      -7.287  -7.004  -5.675  0.00  0.00    +0.173 C 
BRANCH  19  20
ATOM     20  C   UNL     1      -8.414  -7.752  -6.338  0.00  0.00    +0.227 C 
ATOM     21  O   UNL     1      -9.479  -7.874  -5.769  0.00  0.00    -0.275 OA
ATOM     22  N   UNL     1      -8.240  -8.286  -7.563  0.00  0.00    -0.285 N 
ATOM     23  H   UNL     1      -7.413  -8.132  -8.046  0.00  0.00    +0.155 HD
BRANCH  22  24
ATOM     24  C   UNL     1      -9.253  -9.062  -8.139  0.00  0.00    +0.036 A 
ATOM     25  C   UNL     1      -8.926 -10.152  -8.933  0.00  0.00    +0.043 A 
ATOM     26  C   UNL     1      -9.928 -10.918  -9.500  0.00  0.00    +0.044 A 
ATOM     27  C   UNL     1     -11.255 -10.597  -9.277  0.00  0.00    +0.040 A 
ATOM     28  C   UNL     1     -11.584  -9.511  -8.485  0.00  0.00    +0.044 A 
ATOM     29  C   UNL     1     -10.585  -8.745  -7.911  0.00  0.00    +0.043 A 
ATOM     30 CL   UNL     1     -13.250  -9.112  -8.207  0.00  0.00    -0.083 Cl
ATOM     31 CL   UNL     1      -9.521 -12.281 -10.495  0.00  0.00    -0.083 Cl
ENDBRANCH  22  24
ENDBRANCH  19  20
ENDBRANCH  18  19
ENDBRANCH   5  18
TORSDOF 9
