REMARK  Name = ZINC37205364
REMARK  5 active torsions:
REMARK  status: ('A' for Active; 'I' for Inactive)
REMARK    1  A    between atoms: C_4  and  C_7
REMARK    2  A    between atoms: C_9  and  C_12
REMARK    3  A    between atoms: C_12  and  S_13
REMARK    4  A    between atoms: S_13  and  C_14
REMARK    5  A    between atoms: C_19  and  N_20
REMARK                            x       y       z     vdW  Elec       q    Type
REMARK                         _______ _______ _______ _____ _____    ______ ____
ROOT
ATOM      1  C   UNL     1       5.824  -3.720  -0.082  0.00  0.00    +0.151 C 
ENDROOT
BRANCH   1   4
ATOM      2  C   UNL     1       3.699  -0.689  -0.037  0.00  0.00    +0.114 A 
ATOM      3  C   UNL     1       3.872  -2.094  -0.052  0.00  0.00    +0.076 A 
ATOM      4  C   UNL     1       5.191  -2.352  -0.065  0.00  0.00    +0.148 A 
ATOM      5  O   UNL     1       5.848  -1.182  -0.058  0.00  0.00    -0.358 OA
ATOM      6  N   UNL     1       4.889  -0.139  -0.047  0.00  0.00    -0.078 NA
BRANCH   2  10
ATOM      7  C   UNL     1      -0.017   1.379   0.010  0.00  0.00    +0.000 A 
ATOM      8  C   UNL     1       1.169   2.092   0.002  0.00  0.00    +0.001 A 
ATOM      9  C   UNL     1       2.377   1.426  -0.013  0.00  0.00    +0.010 A 
ATOM     10  C   UNL     1       2.402   0.033  -0.021  0.00  0.00    +0.004 A 
ATOM     11  C   UNL     1       1.205  -0.680  -0.013  0.00  0.00    +0.010 A 
ATOM     12  C   UNL     1       0.002  -0.004   0.002  0.00  0.00    +0.001 A 
ENDBRANCH   2  10
ENDBRANCH   1   4
BRANCH   1  13
ATOM     13  S   UNL     1       6.064  -4.252  -1.799  0.00  0.00    -0.115 S 
BRANCH  13  14
ATOM     14  C   UNL     1       6.802  -5.846  -1.652  0.00  0.00    +0.029 A 
ATOM     15  C   UNL     1       7.049  -6.385  -0.397  0.00  0.00    +0.017 A 
ATOM     16  C   UNL     1       7.628  -7.635  -0.284  0.00  0.00    +0.016 A 
ATOM     17  C   UNL     1       7.962  -8.352  -1.418  0.00  0.00    +0.020 A 
ATOM     18  C   UNL     1       7.719  -7.823  -2.673  0.00  0.00    +0.039 A 
ATOM     19  C   UNL     1       7.134  -6.572  -2.796  0.00  0.00    +0.039 A 
ATOM     20 BR   UNL     1       8.754 -10.062  -1.254  0.00  0.00    -0.050 Br
BRANCH  19  21
ATOM     21  N   UNL     1       6.883  -6.036  -4.065  0.00  0.00    -0.357 N 
ATOM     22  H   UNL     1       6.477  -5.159  -4.149  0.00  0.00    +0.142 HD
ATOM     23  H   UNL     1       7.114  -6.542  -4.859  0.00  0.00    +0.142 HD
ENDBRANCH  19  21
ENDBRANCH  13  14
ENDBRANCH   1  13
TORSDOF 5
