REMARK  Name = ZINC04344095
REMARK  3 active torsions:
REMARK  status: ('A' for Active; 'I' for Inactive)
REMARK    1  A    between atoms: C_4  and  C_7
REMARK    2  A    between atoms: C_16  and  C_17
REMARK    3  A    between atoms: C_16  and  O_23
REMARK                            x       y       z     vdW  Elec       q    Type
REMARK                         _______ _______ _______ _____ _____    ______ ____
ROOT
ATOM      1  C   UNL     1      -2.500   1.012   0.019  0.00  0.00    +0.125 C 
ATOM      2  N   UNL     1      -2.484  -0.285  -0.087  0.00  0.00    -0.241 NA
ATOM      3  C   UNL     1      -3.655  -0.987  -0.136  0.00  0.00    +0.106 A 
ATOM      4  C   UNL     1      -3.664  -2.373   0.011  0.00  0.00    +0.031 A 
ATOM      5  C   UNL     1      -4.861  -3.059  -0.037  0.00  0.00    +0.002 A 
ATOM      6  C   UNL     1      -6.050  -2.378  -0.239  0.00  0.00    +0.004 A 
ATOM      7  C   UNL     1      -6.051  -1.004  -0.402  0.00  0.00    +0.048 A 
ATOM      8  C   UNL     1      -4.859  -0.305  -0.360  0.00  0.00    +0.150 A 
ATOM      9  O   UNL     1      -4.833   1.042  -0.549  0.00  0.00    -0.449 OA
ATOM     10  C   UNL     1      -3.804   1.755   0.149  0.00  0.00    +0.281 C 
ENDROOT
BRANCH   1  14
ATOM     11  C   UNL     1       1.155   3.166   0.021  0.00  0.00    +0.000 A 
ATOM     12  C   UNL     1      -0.026   3.814   0.336  0.00  0.00    +0.001 A 
ATOM     13  C   UNL     1      -1.219   3.122   0.334  0.00  0.00    +0.010 A 
ATOM     14  C   UNL     1      -1.232   1.760   0.017  0.00  0.00    +0.003 A 
ATOM     15  C   UNL     1      -0.035   1.113  -0.305  0.00  0.00    +0.010 A 
ATOM     16  C   UNL     1       1.150   1.819  -0.298  0.00  0.00    +0.001 A 
ENDBRANCH   1  14
BRANCH  10  17
ATOM     17  C   UNL     1      -4.170   1.875   1.607  0.00  0.00    +0.030 A 
ATOM     18  C   UNL     1      -4.939   0.896   2.208  0.00  0.00    +0.010 A 
ATOM     19  C   UNL     1      -5.271   1.004   3.546  0.00  0.00    +0.000 A 
ATOM     20  C   UNL     1      -4.841   2.094   4.280  0.00  0.00    +0.000 A 
ATOM     21  C   UNL     1      -4.077   3.075   3.676  0.00  0.00    +0.000 A 
ATOM     22  C   UNL     1      -3.741   2.965   2.340  0.00  0.00    +0.010 A 
ENDBRANCH  10  17
BRANCH  10  23
ATOM     23  O   UNL     1      -3.666   3.061  -0.414  0.00  0.00    -0.347 OA
ATOM     24  H   UNL     1      -4.470   3.597  -0.365  0.00  0.00    +0.215 HD
ENDBRANCH  10  23
TORSDOF 3
