REMARK  Name = ZINC44187250
REMARK  10 active torsions:
REMARK  status: ('A' for Active; 'I' for Inactive)
REMARK    1  A    between atoms: C_1  and  C_2
REMARK    2  A    between atoms: C_2  and  C_3
REMARK    3  A    between atoms: C_3  and  C_4
REMARK    4  A    between atoms: C_3  and  C_5
REMARK    5  A    between atoms: C_3  and  C_6
REMARK    6  A    between atoms: C_10  and  O_23
REMARK    7  A    between atoms: C_12  and  N_15
REMARK    8  A    between atoms: C_16  and  C_22
REMARK    9  A    between atoms: C_17  and  C_21
REMARK   10  A    between atoms: C_18  and  C_20
REMARK                            x       y       z     vdW  Elec       q    Type
REMARK                         _______ _______ _______ _____ _____    ______ ____
ROOT
ATOM      1  C   UNL     1      -1.413  -2.063   0.004  0.00  0.00    -0.003 C 
ATOM      2  C   UNL     1      -0.696  -2.557  -1.254  0.00  0.00    +0.007 C 
ATOM      3  C   UNL     1      -0.676  -4.087  -1.263  0.00  0.00    +0.034 C 
ATOM      4  C   UNL     1      -2.111  -4.616  -1.252  0.00  0.00    +0.139 C 
ATOM      5  C   UNL     1      -2.827  -4.123   0.007  0.00  0.00    +0.136 C 
ATOM      6  C   UNL     1      -2.848  -2.593   0.015  0.00  0.00    +0.033 C 
ENDROOT
BRANCH   5   7
ATOM      7  N   UNL     1      -4.202  -4.630   0.017  0.00  0.00    -0.263 N 
ATOM      8  C   UNL     1      -4.750  -5.417   0.966  0.00  0.00    +0.040 A 
ATOM      9  C   UNL     1      -6.032  -5.663   0.608  0.00  0.00    -0.007 A 
ATOM     10  C   UNL     1      -6.275  -5.003  -0.601  0.00  0.00    +0.063 A 
ATOM     11  N   UNL     1      -5.180  -4.378  -0.953  0.00  0.00    -0.176 NA
ATOM     12  C   UNL     1      -7.575  -5.004  -1.363  0.00  0.00    +0.068 C 
ATOM     13  C   UNL     1      -7.022  -6.500   1.376  0.00  0.00    +0.047 C 
ATOM     14  C   UNL     1      -4.059  -5.932   2.203  0.00  0.00    +0.065 C 
ENDBRANCH   5   7
BRANCH   1  15
ATOM     15  C   UNL     1      -1.433  -0.534   0.013  0.00  0.00    -0.032 C 
ATOM     16  C   UNL     1      -2.149  -0.040   1.272  0.00  0.00    +0.011 C 
ATOM     17  C   UNL     1      -2.173  -0.027  -1.227  0.00  0.00    +0.011 C 
BRANCH  15  19
ATOM     18  C   UNL     1      -0.019   1.526   0.010  0.00  0.00    +0.004 C 
ATOM     19  C   UNL     1       0.002  -0.004   0.002  0.00  0.00    +0.003 C 
ENDBRANCH  15  19
ENDBRANCH   1  15
BRANCH   4  20
ATOM     20  O   UNL     1      -2.802  -4.143  -2.410  0.00  0.00    -0.390 OA
ATOM     21  H   UNL     1      -2.403  -4.418  -3.246  0.00  0.00    +0.210 HD
ENDBRANCH   4  20
TORSDOF 4
