REMARK  Name = ZINC14021315
REMARK  8 active torsions:
REMARK  status: ('A' for Active; 'I' for Inactive)
REMARK    1  A    between atoms: C_1  and  C_2
REMARK    2  A    between atoms: C_5  and  S_8
REMARK    3  A    between atoms: S_8  and  N_11
REMARK    4  A    between atoms: C_15  and  C_18
REMARK    5  A    between atoms: N_20  and  C_21
REMARK    6  A    between atoms: C_29  and  C_30
REMARK    7  A    between atoms: C_30  and  O_32
REMARK    8  A    between atoms: O_32  and  C_33
REMARK                            x       y       z     vdW  Elec       q    Type
REMARK                         _______ _______ _______ _____ _____    ______ ____
ROOT
ATOM      1  C   UNL     1      -0.812   4.346   4.335  0.00  0.00    +0.222 C 
ATOM      2  O   UNL     1      -1.388   5.325   3.909  0.00  0.00    -0.275 OA
ATOM      3  N   UNL     1      -0.043   4.444   5.437  0.00  0.00    -0.284 N 
ATOM      4  H   UNL     1       0.365   3.650   5.816  0.00  0.00    +0.155 HD
ENDROOT
BRANCH   3   5
ATOM      5  C   UNL     1       0.166   5.684   6.032  0.00  0.00    +0.062 A 
ATOM      6  C   UNL     1       0.291   6.887   5.223  0.00  0.00    +0.011 A 
ATOM      7  C   UNL     1       0.229   7.010   3.813  0.00  0.00    +0.011 A 
ATOM      8  C   UNL     1       0.366   8.223   3.215  0.00  0.00    +0.001 A 
ATOM      9  C   UNL     1       0.570   9.380   3.956  0.00  0.00    +0.001 A 
ATOM     10  C   UNL     1       0.637   9.303   5.332  0.00  0.00    +0.016 A 
ATOM     11  C   UNL     1       0.500   8.078   5.954  0.00  0.00    +0.022 A 
ATOM     12  S   UNL     1       0.520   7.549   7.647  0.00  0.00    -0.080 S 
ATOM     13  C   UNL     1       0.254   5.803   7.402  0.00  0.00    +0.118 A 
BRANCH  13  14
ATOM     14  C   UNL     1       0.159   4.782   8.381  0.00  0.00    +0.347 C 
ATOM     15  O   UNL     1       0.089   3.617   8.040  0.00  0.00    -0.244 OA
BRANCH  14  16
ATOM     16  O   UNL     1       0.145   5.104   9.692  0.00  0.00    -0.464 OA
ATOM     17  C   UNL     1       0.047   4.025  10.623  0.00  0.00    +0.280 C 
ENDBRANCH  14  16
ENDBRANCH  13  14
ENDBRANCH   3   5
BRANCH   1  22
ATOM     18  N   UNL     1      -2.112   1.862   1.822  0.00  0.00    -0.176 NA
ATOM     19  C   UNL     1      -2.604   0.776   2.680  0.00  0.00    +0.109 C 
ATOM     20  C   UNL     1      -1.672   0.641   3.889  0.00  0.00    +0.018 C 
ATOM     21  C   UNL     1      -1.557   1.995   4.592  0.00  0.00    +0.015 C 
ATOM     22  C   UNL     1      -0.955   3.022   3.631  0.00  0.00    +0.091 C 
ATOM     23  C   UNL     1      -1.874   3.182   2.421  0.00  0.00    +0.122 C 
BRANCH  18  24
ATOM     24  S   UNL     1      -1.824   1.601   0.212  0.00  0.00    +0.061 S 
ATOM     25  O   UNL     1      -1.591   0.207   0.062  0.00  0.00    -0.153 OA
ATOM     26  O   UNL     1      -0.877   2.579  -0.195  0.00  0.00    -0.153 OA
BRANCH  24  31
ATOM     27  C   UNL     1      -6.945   2.822  -2.736  0.00  0.00    +0.044 C 
ATOM     28  C   UNL     1      -5.665   2.517  -2.000  0.00  0.00    -0.050 A 
ATOM     29  C   UNL     1      -4.736   3.518  -1.786  0.00  0.00    +0.005 A 
ATOM     30  C   UNL     1      -3.563   3.238  -1.110  0.00  0.00    +0.029 A 
ATOM     31  C   UNL     1      -3.319   1.958  -0.649  0.00  0.00    +0.105 A 
ATOM     32  C   UNL     1      -4.247   0.956  -0.868  0.00  0.00    +0.029 A 
ATOM     33  C   UNL     1      -5.422   1.237  -1.540  0.00  0.00    +0.005 A 
ENDBRANCH  24  31
ENDBRANCH  18  24
ENDBRANCH   1  22
TORSDOF 6
