REMARK  Name = ZINC35664230
REMARK  14 active torsions:
REMARK  status: ('A' for Active; 'I' for Inactive)
REMARK    1  A    between atoms: C_1  and  C_2
REMARK    2  A    between atoms: C_2  and  N_3
REMARK    3  A    between atoms: N_10  and  C_13
REMARK    4  A    between atoms: C_13  and  C_14
REMARK    5  A    between atoms: C_15  and  C_33
REMARK    6  A    between atoms: C_16  and  C_24
REMARK    7  A    between atoms: N_21  and  C_22
REMARK    8  A    between atoms: C_22  and  C_23
REMARK    9  A    between atoms: C_27  and  C_30
REMARK   10  A    between atoms: C_30  and  C_31
REMARK   11  A    between atoms: C_30  and  C_32
REMARK   12  A    between atoms: C_33  and  O_35
REMARK   13  A    between atoms: O_35  and  C_36
REMARK   14  A    between atoms: C_36  and  C_37
REMARK                            x       y       z     vdW  Elec       q    Type
REMARK                         _______ _______ _______ _____ _____    ______ ____
ROOT
ATOM      1  C   UNL     1       5.144  -5.814  -2.707  0.00  0.00    +0.010 C 
ATOM      2  C   UNL     1       5.969  -6.630  -3.398  0.00  0.00    +0.076 C 
ATOM      3  C   UNL     1       5.729  -8.123  -3.299  0.00  0.00    +0.143 C 
ATOM      4  N   UNL     1       4.608  -8.564  -2.452  0.00  0.00    -0.288 N 
ATOM      5  C   UNL     1       3.872  -7.626  -1.823  0.00  0.00    +0.307 C 
ATOM      6  O   UNL     1       2.944  -7.979  -1.121  0.00  0.00    -0.252 OA
ATOM      7  N   UNL     1       4.132  -6.318  -1.941  0.00  0.00    -0.261 N 
ATOM      8  H   UNL     1       4.404  -9.506  -2.349  0.00  0.00    +0.151 HD
ENDROOT
BRANCH   3   9
ATOM      9  C   UNL     1       5.492  -8.649  -4.692  0.00  0.00    -0.022 A 
ATOM     10  C   UNL     1       4.253  -8.498  -5.286  0.00  0.00    +0.006 A 
ATOM     11  C   UNL     1       4.036  -8.980  -6.563  0.00  0.00    +0.004 A 
ATOM     12  C   UNL     1       5.058  -9.612  -7.246  0.00  0.00    -0.045 A 
ATOM     13  C   UNL     1       6.297  -9.762  -6.652  0.00  0.00    +0.004 A 
ATOM     14  C   UNL     1       6.516  -9.276  -5.377  0.00  0.00    +0.006 A 
BRANCH  12  15
ATOM     15  C   UNL     1       4.821 -10.139  -8.638  0.00  0.00    +0.013 C 
ATOM     16  C   UNL     1       5.782  -9.455  -9.613  0.00  0.00    +0.012 C 
ATOM     17  C   UNL     1       5.062 -11.649  -8.660  0.00  0.00    +0.012 C 
ENDBRANCH  12  15
ENDBRANCH   3   9
BRANCH   7  18
ATOM     18  C   UNL     1       3.280  -5.374  -1.214  0.00  0.00    +0.111 C 
ATOM     19  C   UNL     1       2.031  -5.070  -2.044  0.00  0.00    +0.025 C 
ENDBRANCH   7  18
BRANCH   2  20
ATOM     20  C   UNL     1       7.021  -6.109  -4.187  0.00  0.00    +0.339 C 
ATOM     21  O   UNL     1       7.274  -4.920  -4.155  0.00  0.00    -0.245 OA
BRANCH  20  22
ATOM     22  O   UNL     1       7.744  -6.932  -4.976  0.00  0.00    -0.462 OA
BRANCH  22  23
ATOM     23  C   UNL     1       8.791  -6.338  -5.746  0.00  0.00    +0.229 C 
ATOM     24  C   UNL     1       9.493  -7.419  -6.571  0.00  0.00    +0.048 C 
ENDBRANCH  22  23
ENDBRANCH  20  22
ENDBRANCH   2  20
BRANCH   1  25
ATOM     25  C   UNL     1       5.348  -4.322  -2.777  0.00  0.00    -0.026 C 
BRANCH  25  33
ATOM     26  N   UNL     1      10.492  -3.485  -1.411  0.00  0.00    -0.300 N 
ATOM     27  C   UNL     1       9.756  -2.515  -0.834  0.00  0.00    +0.302 C 
ATOM     28  O   UNL     1      10.182  -1.378  -0.782  0.00  0.00    -0.253 OA
ATOM     29  N   UNL     1       8.547  -2.806  -0.315  0.00  0.00    -0.287 N 
ATOM     30  C   UNL     1       7.710  -1.704   0.201  0.00  0.00    +0.107 C 
ATOM     31  C   UNL     1       6.235  -1.895  -0.199  0.00  0.00    +0.000 C 
ATOM     32  C   UNL     1       6.161  -2.414  -1.617  0.00  0.00    -0.077 C 
ATOM     33  N   UNL     1       6.094  -3.873  -1.594  0.00  0.00    +0.384 N 
ATOM     34  C   UNL     1       7.346  -4.527  -1.582  0.00  0.00    -0.059 C 
ATOM     35  C   UNL     1       8.112  -4.188  -0.288  0.00  0.00    +0.091 C 
ATOM     36  H   UNL     1      10.185  -4.405  -1.389  0.00  0.00    +0.150 HD
ATOM     37  H   UNL     1       5.580  -4.155  -0.773  0.00  0.00    -0.081 HD
BRANCH  26  39
ATOM     38  C   UNL     1      12.388  -4.423  -2.639  0.00  0.00    +0.024 C 
ATOM     39  C   UNL     1      11.756  -3.151  -2.072  0.00  0.00    +0.102 C 
ENDBRANCH  26  39
ENDBRANCH  25  33
ENDBRANCH   1  25
TORSDOF 9
