REMARK  Name = ZINC36575034
REMARK  16 active torsions:
REMARK  status: ('A' for Active; 'I' for Inactive)
REMARK    1  A    between atoms: C_1  and  C_2
REMARK    2  A    between atoms: C_2  and  C_3
REMARK    3  A    between atoms: C_3  and  C_4
REMARK    4  A    between atoms: C_4  and  C_5
REMARK    5  A    between atoms: C_5  and  C_6
REMARK    6  A    between atoms: N_8  and  C_9
REMARK    7  A    between atoms: N_8  and  C_12
REMARK    8  A    between atoms: C_9  and  C_10
REMARK    9  A    between atoms: C_10  and  C_11
REMARK   10  A    between atoms: C_12  and  C_14
REMARK   11  A    between atoms: C_12  and  C_24
REMARK   12  A    between atoms: C_17  and  C_20
REMARK   13  A    between atoms: N_26  and  C_27
REMARK   14  A    between atoms: C_27  and  S_28
REMARK   15  A    between atoms: S_28  and  C_31
REMARK   16  A    between atoms: C_34  and  C_37
REMARK                            x       y       z     vdW  Elec       q    Type
REMARK                         _______ _______ _______ _____ _____    ______ ____
ROOT
ATOM      1  C   UNL     1       2.090  -6.648  -4.202  0.00  0.00    +0.192 C 
ENDROOT
BRANCH   1   2
ATOM      2  C   UNL     1       0.967  -6.449  -5.187  0.00  0.00    -0.018 A 
ATOM      3  C   UNL     1       0.490  -5.178  -5.444  0.00  0.00    +0.006 A 
ATOM      4  C   UNL     1      -0.540  -4.995  -6.348  0.00  0.00    +0.013 A 
ATOM      5  C   UNL     1      -1.092  -6.085  -6.995  0.00  0.00    +0.055 A 
ATOM      6  C   UNL     1      -0.615  -7.356  -6.739  0.00  0.00    +0.013 A 
ATOM      7  C   UNL     1       0.418  -7.538  -5.838  0.00  0.00    +0.006 A 
BRANCH   5   8
ATOM      8  C   UNL     1      -2.216  -5.886  -7.980  0.00  0.00    +0.417 C 
ATOM      9  F   UNL     1      -1.685  -5.691  -9.259  0.00  0.00    -0.166 F 
ATOM     10  F   UNL     1      -3.038  -7.018  -7.983  0.00  0.00    -0.166 F 
ATOM     11  F   UNL     1      -2.967  -4.765  -7.610  0.00  0.00    -0.166 F 
ENDBRANCH   5   8
ENDBRANCH   1   2
BRANCH   1  12
ATOM     12  C   UNL     1       2.356  -5.354  -3.475  0.00  0.00    +0.239 C 
ATOM     13  O   UNL     1       1.591  -4.974  -2.614  0.00  0.00    -0.273 OA
ATOM     14  N   UNL     1       3.443  -4.620  -3.783  0.00  0.00    -0.294 N 
ATOM     15  H   UNL     1       4.054  -4.924  -4.472  0.00  0.00    +0.150 HD
BRANCH  14  16
ATOM     16  C   UNL     1       3.701  -3.363  -3.077  0.00  0.00    +0.278 C 
BRANCH  16  17
ATOM     17  S   UNL     1       4.834  -3.668  -1.694  0.00  0.00    +0.013 S 
ATOM     18  O   UNL     1       5.144  -2.446  -1.037  0.00  0.00    -0.168 OA
ATOM     19  O   UNL     1       4.405  -4.801  -0.951  0.00  0.00    -0.168 OA
BRANCH  17  20
ATOM     20  C   UNL     1       6.345  -4.170  -2.447  0.00  0.00    +0.090 A 
ATOM     21  C   UNL     1       6.577  -5.508  -2.707  0.00  0.00    +0.027 A 
ATOM     22  C   UNL     1       7.763  -5.901  -3.298  0.00  0.00    +0.005 A 
ATOM     23  C   UNL     1       8.716  -4.957  -3.631  0.00  0.00    -0.050 A 
ATOM     24  C   UNL     1       8.484  -3.619  -3.373  0.00  0.00    +0.005 A 
ATOM     25  C   UNL     1       7.296  -3.225  -2.785  0.00  0.00    +0.027 A 
ATOM     26  C   UNL     1      10.009  -5.387  -4.275  0.00  0.00    +0.044 C 
ENDBRANCH  17  20
ENDBRANCH  16  17
ENDBRANCH  14  16
ENDBRANCH   1  12
BRANCH   1  29
ATOM     27  C   UNL     1       2.449  -8.807  -3.131  0.00  0.00    +0.216 C 
ATOM     28  O   UNL     1       3.421  -8.963  -3.839  0.00  0.00    -0.276 OA
ATOM     29  N   UNL     1       1.714  -7.682  -3.235  0.00  0.00    -0.286 N 
BRANCH  27  30
ATOM     30  C   UNL     1       2.062  -9.871  -2.137  0.00  0.00    +0.096 C 
BRANCH  30  31
ATOM     31  C   UNL     1       3.053 -11.034  -2.222  0.00  0.00    +0.009 C 
BRANCH  31  32
ATOM     32  C   UNL     1       2.660 -12.114  -1.212  0.00  0.00    +0.000 C 
BRANCH  32  34
ATOM     33  C   UNL     1       3.258 -14.357  -0.288  0.00  0.00    +0.004 C 
ATOM     34  C   UNL     1       3.651 -13.277  -1.298  0.00  0.00    -0.003 C 
ENDBRANCH  32  34
ENDBRANCH  31  32
ENDBRANCH  30  31
ENDBRANCH  27  30
BRANCH  29  35
ATOM     35  C   UNL     1       0.539  -7.494  -2.380  0.00  0.00    +0.108 C 
BRANCH  35  36
ATOM     36  C   UNL     1       0.991  -7.206  -0.947  0.00  0.00    +0.016 C 
ATOM     37  C   UNL     1      -0.221  -6.821  -0.097  0.00  0.00    +0.005 C 
ENDBRANCH  35  36
ENDBRANCH  29  35
ENDBRANCH   1  29
TORSDOF 13
