REMARK  Name = ZINC58862737
REMARK  5 active torsions:
REMARK  status: ('A' for Active; 'I' for Inactive)
REMARK    1  A    between atoms: C_1  and  C_2
REMARK    2  A    between atoms: C_7  and  N_8
REMARK    3  A    between atoms: N_11  and  N_12
REMARK    4  A    between atoms: C_13  and  C_15
REMARK    5  A    between atoms: C_15  and  C_16
REMARK                            x       y       z     vdW  Elec       q    Type
REMARK                         _______ _______ _______ _____ _____    ______ ____
ROOT
ATOM      1  N   UNL     1      -0.175   1.375   4.750  0.00  0.00    -0.233 N 
ATOM      2  C   UNL     1      -0.274   2.042   5.917  0.00  0.00    +0.233 C 
ATOM      3  O   UNL     1      -0.347   1.431   6.961  0.00  0.00    -0.274 OA
ATOM      4  H   UNL     1      -0.116   1.864   3.915  0.00  0.00    +0.173 HD
ENDROOT
BRANCH   1   8
ATOM      5  N   UNL     1       0.025  -0.015   2.417  0.00  0.00    -0.268 N 
ATOM      6  C   UNL     1      -0.056  -0.694   3.578  0.00  0.00    +0.320 C 
ATOM      7  O   UNL     1      -0.040  -1.910   3.573  0.00  0.00    -0.251 OA
ATOM      8  N   UNL     1      -0.156  -0.026   4.745  0.00  0.00    -0.218 N 
ATOM      9  H   UNL     1       0.078   0.954   2.425  0.00  0.00    +0.156 HD
ATOM     10  H   UNL     1      -0.214  -0.515   5.580  0.00  0.00    +0.174 HD
BRANCH   5  17
ATOM     11  C   UNL     1      -1.267   1.183   0.182  0.00  0.00    +0.045 C 
ATOM     12  C   UNL     1      -0.585  -0.158   0.085  0.00  0.00    -0.029 A 
ATOM     13  C   UNL     1      -0.571  -0.841  -1.116  0.00  0.00    +0.005 A 
ATOM     14  C   UNL     1       0.054  -2.071  -1.206  0.00  0.00    +0.000 A 
ATOM     15  C   UNL     1       0.666  -2.622  -0.095  0.00  0.00    +0.002 A 
ATOM     16  C   UNL     1       0.654  -1.945   1.108  0.00  0.00    +0.023 A 
ATOM     17  C   UNL     1       0.033  -0.706   1.200  0.00  0.00    +0.038 A 
ENDBRANCH   5  17
ENDBRANCH   1   8
BRANCH   2  18
ATOM     18  C   UNL     1      -0.294   3.549   5.923  0.00  0.00    +0.132 C 
BRANCH  18  19
ATOM     19  C   UNL     1      -0.411   4.044   7.341  0.00  0.00    -0.034 A 
ATOM     20  C   UNL     1      -1.659   4.250   7.899  0.00  0.00    +0.053 A 
ATOM     21  C   UNL     1      -1.770   4.705   9.205  0.00  0.00    +0.164 A 
ATOM     22  C   UNL     1      -0.624   4.952   9.951  0.00  0.00    +0.180 A 
ATOM     23  C   UNL     1       0.626   4.745   9.384  0.00  0.00    +0.086 A 
ATOM     24  C   UNL     1       0.729   4.287   8.083  0.00  0.00    +0.028 A 
ATOM     25 CL   UNL     1       2.061   5.056  10.311  0.00  0.00    -0.080 Cl
ATOM     26  O   UNL     1      -0.711   5.391  11.236  0.00  0.00    -0.483 OA
ATOM     27  C   UNL     1      -1.968   5.941  11.645  0.00  0.00    +0.270 C 
ATOM     28  C   UNL     1      -3.082   5.001  11.166  0.00  0.00    +0.270 C 
ATOM     29  O   UNL     1      -3.006   4.906   9.739  0.00  0.00    -0.485 OA
ENDBRANCH  18  19
ENDBRANCH   2  18
TORSDOF 4
