REMARK  Name = ZINC04754971
REMARK  3 active torsions:
REMARK  status: ('A' for Active; 'I' for Inactive)
REMARK    1  A    between atoms: C_3  and  C_6
REMARK    2  A    between atoms: N_7  and  N_8
REMARK    3  A    between atoms: C_12  and  C_15
REMARK                            x       y       z     vdW  Elec       q    Type
REMARK                         _______ _______ _______ _____ _____    ______ ____
ROOT
ATOM      1  N   UNL     1       5.478  -0.565  -0.055  0.00  0.00    -0.124 NA
ATOM      2  C   UNL     1       6.112  -1.727  -0.067  0.00  0.00    +0.192 A 
ATOM      3  N   UNL     1       5.592  -3.000  -0.074  0.00  0.00    -0.332 N 
ATOM      4  H   UNL     1       4.633  -3.143  -0.070  0.00  0.00    +0.168 HD
ATOM      5  C   UNL     1       6.454  -4.061  -0.086  0.00  0.00    +0.055 A 
ATOM      6  C   UNL     1       7.785  -3.839  -0.092  0.00  0.00    +0.075 A 
ATOM      7  S   UNL     1       7.867  -2.055  -0.087  0.00  0.00    -0.056 S 
ENDROOT
BRANCH   5   8
ATOM      8  C   UNL     1       5.930  -5.444  -0.093  0.00  0.00    -0.001 A 
ATOM      9  C   UNL     1       4.553  -5.672  -0.093  0.00  0.00    +0.011 A 
ATOM     10  C   UNL     1       4.071  -6.964  -0.100  0.00  0.00    +0.016 A 
ATOM     11  C   UNL     1       4.950  -8.034  -0.106  0.00  0.00    +0.018 A 
ATOM     12  C   UNL     1       6.317  -7.814  -0.106  0.00  0.00    +0.016 A 
ATOM     13  C   UNL     1       6.811  -6.526  -0.106  0.00  0.00    +0.011 A 
ATOM     14 BR   UNL     1       4.281  -9.803  -0.115  0.00  0.00    -0.050 Br
ENDBRANCH   5   8
BRANCH   1  16
ATOM     15  C   UNL     1       3.561   0.616  -0.029  0.00  0.00    +0.181 C 
ATOM     16  N   UNL     1       4.188  -0.534  -0.041  0.00  0.00    -0.152 NA
BRANCH  15  19
ATOM     17  C   UNL     1      -0.016   1.344   0.009  0.00  0.00    +0.042 A 
ATOM     18  C   UNL     1       1.323   1.777  -0.001  0.00  0.00    +0.051 A 
ATOM     19  C   UNL     1       2.099   0.652  -0.015  0.00  0.00    +0.147 A 
ATOM     20  O   UNL     1       1.280  -0.420  -0.012  0.00  0.00    -0.462 OA
ATOM     21  C   UNL     1       0.002  -0.004   0.002  0.00  0.00    +0.196 A 
ENDBRANCH  15  19
ENDBRANCH   1  16
TORSDOF 3
