REMARK  Name = ZINC36207728
REMARK  16 active torsions:
REMARK  status: ('A' for Active; 'I' for Inactive)
REMARK    1  A    between atoms: C_1  and  C_2
REMARK    2  A    between atoms: C_2  and  C_3
REMARK    3  A    between atoms: C_3  and  N_4
REMARK    4  A    between atoms: N_4  and  C_5
REMARK    5  A    between atoms: N_4  and  C_27
REMARK    6  A    between atoms: C_5  and  C_6
REMARK    7  A    between atoms: C_12  and  C_17
REMARK    8  A    between atoms: C_20  and  O_25
REMARK    9  A    between atoms: C_21  and  O_23
REMARK   10  A    between atoms: O_23  and  C_24
REMARK   11  A    between atoms: O_25  and  C_26
REMARK   12  A    between atoms: C_27  and  C_28
REMARK   13  A    between atoms: C_28  and  C_30
REMARK   14  A    between atoms: C_28  and  O_34
REMARK   15  A    between atoms: C_30  and  C_31
REMARK   16  A    between atoms: C_31  and  C_32
REMARK                            x       y       z     vdW  Elec       q    Type
REMARK                         _______ _______ _______ _____ _____    ______ ____
ROOT
ATOM      1  C   UNL     1       0.657  -1.813   1.155  0.00  0.00    +0.094 A 
ATOM      2  N   UNL     1       1.460  -2.067   2.221  0.00  0.00    -0.312 N 
ATOM      3  H   UNL     1       1.134  -2.633   2.938  0.00  0.00    +0.170 HD
ATOM      4  C   UNL     1       2.699  -1.548   2.301  0.00  0.00    +0.260 A 
ATOM      5  O   UNL     1       3.408  -1.786   3.265  0.00  0.00    -0.267 OA
ATOM      6  C   UNL     1       3.173  -0.714   1.239  0.00  0.00    +0.080 A 
ATOM      7  C   UNL     1       4.460  -0.044   1.096  0.00  0.00    +0.004 A 
ATOM      8  C   UNL     1       4.686   0.703  -0.012  0.00  0.00    +0.056 A 
ATOM      9  S   UNL     1       3.167   0.546  -0.932  0.00  0.00    -0.076 S 
ATOM     10  C   UNL     1       2.273  -0.509   0.180  0.00  0.00    +0.116 A 
ATOM     11  N   UNL     1       1.063  -1.060   0.168  0.00  0.00    -0.229 NA
ENDROOT
BRANCH   7  12
ATOM     12  C   UNL     1       5.501  -0.177   2.142  0.00  0.00    -0.013 A 
ATOM     13  C   UNL     1       5.178   0.042   3.481  0.00  0.00    +0.012 A 
ATOM     14  C   UNL     1       6.149  -0.082   4.454  0.00  0.00    +0.050 A 
ATOM     15  C   UNL     1       7.446  -0.425   4.105  0.00  0.00    +0.162 A 
ATOM     16  C   UNL     1       7.774  -0.646   2.770  0.00  0.00    +0.162 A 
ATOM     17  C   UNL     1       6.804  -0.528   1.790  0.00  0.00    +0.058 A 
BRANCH  16  18
ATOM     18  O   UNL     1       9.047  -0.983   2.429  0.00  0.00    -0.491 OA
ATOM     19  C   UNL     1       9.312  -1.195   1.041  0.00  0.00    +0.277 C 
ENDBRANCH  16  18
BRANCH  15  20
ATOM     20  O   UNL     1       8.399  -0.545   5.067  0.00  0.00    -0.491 OA
ATOM     21  C   UNL     1       7.993  -0.304   6.416  0.00  0.00    +0.277 C 
ENDBRANCH  15  20
ENDBRANCH   7  12
BRANCH   1  22
ATOM     22  C   UNL     1      -0.723  -2.416   1.108  0.00  0.00    -0.003 C 
BRANCH  22  23
ATOM     23  N   UNL     1      -1.336  -2.136  -0.197  0.00  0.00    +0.386 N 
ATOM     24  H   UNL     1      -1.295  -1.145  -0.382  0.00  0.00    -0.081 HD
BRANCH  23  25
ATOM     25  C   UNL     1      -2.738  -2.574  -0.185  0.00  0.00    -0.078 C 
BRANCH  25  27
ATOM     26  C   UNL     1      -5.013  -2.085   0.725  0.00  0.00    +0.002 C 
ATOM     27  C   UNL     1      -3.527  -1.729   0.817  0.00  0.00    -0.022 C 
ENDBRANCH  25  27
ENDBRANCH  23  25
BRANCH  23  28
ATOM     28  C   UNL     1      -0.606  -2.860  -1.246  0.00  0.00    -0.047 C 
BRANCH  28  29
ATOM     29  C   UNL     1      -1.163  -2.471  -2.617  0.00  0.00    +0.098 C 
BRANCH  29  30
ATOM     30  O   UNL     1      -0.904  -1.088  -2.862  0.00  0.00    -0.394 OA
ATOM     31  H   UNL     1       0.035  -0.857  -2.861  0.00  0.00    +0.210 HD
ENDBRANCH  29  30
BRANCH  29  32
ATOM     32  C   UNL     1      -0.490  -3.316  -3.700  0.00  0.00    +0.033 C 
BRANCH  32  33
ATOM     33  C   UNL     1      -1.135  -3.017  -5.055  0.00  0.00    +0.029 C 
BRANCH  33  34
ATOM     34  C   UNL     1      -0.471  -3.849  -6.122  0.00  0.00    -0.034 C 
ATOM     35  C   UNL     1      -1.193  -4.628  -6.889  0.00  0.00    +0.004 C 
ENDBRANCH  33  34
ENDBRANCH  32  33
ENDBRANCH  29  32
ENDBRANCH  28  29
ENDBRANCH  23  28
ENDBRANCH  22  23
ENDBRANCH   1  22
TORSDOF 13
