REMARK  Name = ZINC33939862
REMARK  13 active torsions:
REMARK  status: ('A' for Active; 'I' for Inactive)
REMARK    1  A    between atoms: C_1  and  C_2
REMARK    2  A    between atoms: C_9  and  C_11
REMARK    3  A    between atoms: N_13  and  C_14
REMARK    4  A    between atoms: N_22  and  C_32
REMARK    5  A    between atoms: C_23  and  C_25
REMARK    6  A    between atoms: N_27  and  C_28
REMARK    7  A    between atoms: C_28  and  C_29
REMARK    8  A    between atoms: C_28  and  C_30
REMARK    9  A    between atoms: C_28  and  C_31
REMARK   10  A    between atoms: C_32  and  C_33
REMARK   11  A    between atoms: C_33  and  C_34
REMARK   12  A    between atoms: C_37  and  O_40
REMARK   13  A    between atoms: O_40  and  C_41
REMARK                            x       y       z     vdW  Elec       q    Type
REMARK                         _______ _______ _______ _____ _____    ______ ____
ROOT
ATOM      1  C   UNL     1       0.068   1.311   0.061  0.00  0.00    +0.047 C 
ATOM      2  C   UNL     1       0.079  -0.219   0.018  0.00  0.00    +0.098 C 
ATOM      3  C   UNL     1      -1.296  -0.891   0.105  0.00  0.00    +0.007 C 
ATOM      4  C   UNL     1      -1.103  -2.132   0.569  0.00  0.00    +0.009 C 
ATOM      5  C   UNL     1       0.372  -2.226   0.723  0.00  0.00    +0.127 C 
ATOM      6  O   UNL     1       0.772  -0.890   1.132  0.00  0.00    -0.355 OA
ATOM      7  C   UNL     1       0.987  -2.322  -0.722  0.00  0.00    +0.128 C 
ATOM      8  C   UNL     1       0.839  -0.852  -1.192  0.00  0.00    +0.126 C 
ATOM      9  C   UNL     1       2.393  -2.748  -0.405  0.00  0.00    +0.223 C 
ATOM     10  O   UNL     1       3.362  -2.545  -1.106  0.00  0.00    -0.275 OA
ATOM     11  N   UNL     1       2.408  -3.394   0.788  0.00  0.00    -0.286 N 
ATOM     12  C   UNL     1       1.085  -3.332   1.436  0.00  0.00    +0.198 C 
ENDROOT
BRANCH   8  13
ATOM     13  C   UNL     1       2.177  -0.189  -1.395  0.00  0.00    +0.224 C 
ATOM     14  O   UNL     1       2.812   0.201  -0.439  0.00  0.00    -0.275 OA
ATOM     15  N   UNL     1       2.668  -0.030  -2.640  0.00  0.00    -0.285 N 
ATOM     16  H   UNL     1       2.131  -0.280  -3.409  0.00  0.00    +0.155 HD
BRANCH  15  17
ATOM     17  C   UNL     1       3.951   0.496  -2.824  0.00  0.00    +0.033 A 
ATOM     18  C   UNL     1       4.748   0.038  -3.865  0.00  0.00    +0.023 A 
ATOM     19  C   UNL     1       6.015   0.559  -4.044  0.00  0.00    +0.002 A 
ATOM     20  C   UNL     1       6.489   1.535  -3.188  0.00  0.00    +0.000 A 
ATOM     21  C   UNL     1       5.698   1.993  -2.151  0.00  0.00    +0.002 A 
ATOM     22  C   UNL     1       4.429   1.481  -1.970  0.00  0.00    +0.023 A 
ENDBRANCH  15  17
ENDBRANCH   8  13
BRANCH  12  23
ATOM     23  C   UNL     1       0.363  -4.640   1.239  0.00  0.00    +0.237 C 
ATOM     24  O   UNL     1       0.761  -5.434   0.414  0.00  0.00    -0.274 OA
ATOM     25  N   UNL     1      -0.726  -4.926   1.980  0.00  0.00    -0.309 N 
ATOM     26  H   UNL     1      -1.044  -4.291   2.641  0.00  0.00    +0.149 HD
BRANCH  25  27
ATOM     27  C   UNL     1      -1.429  -6.198   1.789  0.00  0.00    +0.026 C 
ATOM     28  C   UNL     1      -0.472  -7.357   2.074  0.00  0.00    +0.031 C 
ATOM     29  C   UNL     1      -2.619  -6.272   2.747  0.00  0.00    +0.031 C 
ATOM     30  C   UNL     1      -1.928  -6.292   0.346  0.00  0.00    +0.031 C 
ENDBRANCH  25  27
ENDBRANCH  12  23
BRANCH  11  31
ATOM     31  C   UNL     1       3.583  -4.054   1.362  0.00  0.00    +0.113 C 
BRANCH  31  32
ATOM     32  C   UNL     1       4.360  -3.056   2.223  0.00  0.00    +0.054 C 
BRANCH  32  33
ATOM     33  C   UNL     1       5.569  -3.735   2.813  0.00  0.00    -0.046 A 
ATOM     34  C   UNL     1       5.474  -4.372   4.036  0.00  0.00    +0.007 A 
ATOM     35  C   UNL     1       6.581  -4.995   4.580  0.00  0.00    +0.046 A 
ATOM     36  C   UNL     1       7.788  -4.981   3.896  0.00  0.00    +0.120 A 
ATOM     37  C   UNL     1       7.880  -4.342   2.669  0.00  0.00    +0.046 A 
ATOM     38  C   UNL     1       6.769  -3.725   2.127  0.00  0.00    +0.007 A 
BRANCH  36  39
ATOM     39  O   UNL     1       8.879  -5.593   4.429  0.00  0.00    -0.495 OA
ATOM     40  C   UNL     1      10.088  -5.538   3.670  0.00  0.00    +0.277 C 
ENDBRANCH  36  39
ENDBRANCH  32  33
ENDBRANCH  31  32
ENDBRANCH  11  31
TORSDOF 8
