REMARK  Name = ZINC38545896
REMARK  9 active torsions:
REMARK  status: ('A' for Active; 'I' for Inactive)
REMARK    1  A    between atoms: C_1  and  C_2
REMARK    2  A    between atoms: C_4  and  C_15
REMARK    3  A    between atoms: C_5  and  N_7
REMARK    4  A    between atoms: C_8  and  C_10
REMARK    5  A    between atoms: C_15  and  C_17
REMARK    6  A    between atoms: C_15  and  N_26
REMARK    7  A    between atoms: C_20  and  C_23
REMARK    8  A    between atoms: C_23  and  C_24
REMARK    9  A    between atoms: C_23  and  C_25
REMARK                            x       y       z     vdW  Elec       q    Type
REMARK                         _______ _______ _______ _____ _____    ______ ____
ROOT
ATOM      1  C   UNL     1      -1.917  -3.223  -0.007  0.00  0.00    -0.004 C 
ENDROOT
BRANCH   1   2
ATOM      2  N   UNL     1      -3.141  -2.570   0.476  0.00  0.00    +0.387 N 
ATOM      3  C   UNL     1      -2.921  -2.066   1.837  0.00  0.00    -0.078 C 
ATOM      4  C   UNL     1      -4.166  -1.315   2.313  0.00  0.00    -0.019 C 
ATOM      5  C   UNL     1      -5.365  -2.268   2.307  0.00  0.00    -0.004 C 
ATOM      6  C   UNL     1      -5.539  -2.844   0.899  0.00  0.00    -0.019 C 
ATOM      7  C   UNL     1      -4.243  -3.539   0.475  0.00  0.00    -0.078 C 
ATOM      8  H   UNL     1      -3.372  -1.799  -0.133  0.00  0.00    -0.080 HD
ENDBRANCH   1   2
BRANCH   1  12
ATOM      9  C   UNL     1      -0.018   1.503   0.010  0.00  0.00    +0.051 C 
ATOM     10  C   UNL     1       0.002  -0.004   0.002  0.00  0.00    -0.011 A 
ATOM     11  C   UNL     1      -1.040  -0.870   0.002  0.00  0.00    +0.015 A 
ATOM     12  C   UNL     1      -0.784  -2.229  -0.007  0.00  0.00    -0.028 A 
ATOM     13  C   UNL     1       0.511  -2.653  -0.015  0.00  0.00    +0.074 A 
ATOM     14  S   UNL     1       1.405  -1.108  -0.018  0.00  0.00    -0.078 S 
BRANCH  13  15
ATOM     15  N   UNL     1       1.010  -3.958  -0.024  0.00  0.00    -0.273 N 
ATOM     16  C   UNL     1       2.341  -4.170  -0.031  0.00  0.00    +0.284 C 
ATOM     17  O   UNL     1       3.108  -3.225  -0.029  0.00  0.00    -0.266 OA
ATOM     18  H   UNL     1       0.398  -4.710  -0.025  0.00  0.00    +0.156 HD
BRANCH  16  19
ATOM     19  C   UNL     1       2.864  -5.540  -0.040  0.00  0.00    +0.189 A 
ATOM     20  C   UNL     1       4.182  -5.895  -0.042  0.00  0.00    +0.054 A 
ATOM     21  C   UNL     1       4.222  -7.298  -0.052  0.00  0.00    +0.042 A 
ATOM     22  C   UNL     1       2.943  -7.732  -0.055  0.00  0.00    +0.196 A 
ATOM     23  O   UNL     1       2.127  -6.670  -0.043  0.00  0.00    -0.458 OA
ENDBRANCH  16  19
ENDBRANCH  13  15
ENDBRANCH   1  12
BRANCH   1  24
ATOM     24  C   UNL     1      -2.138  -3.733  -1.408  0.00  0.00    -0.057 A 
ATOM     25  C   UNL     1      -2.846  -2.970  -2.317  0.00  0.00    +0.002 A 
ATOM     26  C   UNL     1      -3.048  -3.437  -3.602  0.00  0.00    +0.004 A 
ATOM     27  C   UNL     1      -2.543  -4.668  -3.978  0.00  0.00    -0.045 A 
ATOM     28  C   UNL     1      -1.834  -5.430  -3.068  0.00  0.00    +0.004 A 
ATOM     29  C   UNL     1      -1.627  -4.961  -1.785  0.00  0.00    +0.002 A 
BRANCH  27  30
ATOM     30  C   UNL     1      -2.764  -5.178  -5.378  0.00  0.00    +0.013 C 
ATOM     31  C   UNL     1      -1.413  -5.402  -6.059  0.00  0.00    +0.012 C 
ATOM     32  C   UNL     1      -3.534  -6.499  -5.324  0.00  0.00    +0.012 C 
ENDBRANCH  27  30
ENDBRANCH   1  24
TORSDOF 6
