REMARK  Name = ZINC08536106
REMARK  7 active torsions:
REMARK  status: ('A' for Active; 'I' for Inactive)
REMARK    1  A    between atoms: C_1  and  C_2
REMARK    2  A    between atoms: C_3  and  C_8
REMARK    3  A    between atoms: C_4  and  C_7
REMARK    4  A    between atoms: C_11  and  C_13
REMARK    5  A    between atoms: N_15  and  C_16
REMARK    6  A    between atoms: C_19  and  N_22
REMARK    7  A    between atoms: N_23  and  C_24
REMARK                            x       y       z     vdW  Elec       q    Type
REMARK                         _______ _______ _______ _____ _____    ______ ____
ROOT
ATOM      1  C   UNL     1      -0.938   1.270  -6.246  0.00  0.00    +0.255 C 
ATOM      2  O   UNL     1      -0.237   1.264  -7.241  0.00  0.00    -0.269 OA
ATOM      3  N   UNL     1      -2.149   1.860  -6.278  0.00  0.00    -0.281 N 
ATOM      4  H   UNL     1      -2.736   1.807  -5.507  0.00  0.00    +0.155 HD
ENDROOT
BRANCH   3   5
ATOM      5  C   UNL     1      -2.560   2.547  -7.420  0.00  0.00    +0.034 A 
ATOM      6  C   UNL     1      -2.190   2.084  -8.679  0.00  0.00    +0.025 A 
ATOM      7  C   UNL     1      -2.594   2.759  -9.809  0.00  0.00    +0.031 A 
ATOM      8  C   UNL     1      -3.376   3.913  -9.690  0.00  0.00    +0.086 A 
ATOM      9  C   UNL     1      -3.745   4.376  -8.423  0.00  0.00    +0.031 A 
ATOM     10  C   UNL     1      -3.342   3.692  -7.298  0.00  0.00    +0.025 A 
BRANCH   8  11
ATOM     11  N   UNL     1      -3.777   4.585 -10.808  0.00  0.00    -0.149 NA
ATOM     12  N   UNL     1      -4.499   5.649 -10.697  0.00  0.00    -0.149 NA
BRANCH  12  13
ATOM     13  C   UNL     1      -4.901   6.322 -11.816  0.00  0.00    +0.086 A 
ATOM     14  C   UNL     1      -4.537   5.858 -13.083  0.00  0.00    +0.029 A 
ATOM     15  C   UNL     1      -4.947   6.543 -14.208  0.00  0.00    +0.002 A 
ATOM     16  C   UNL     1      -5.715   7.687 -14.084  0.00  0.00    +0.000 A 
ATOM     17  C   UNL     1      -6.079   8.153 -12.833  0.00  0.00    +0.002 A 
ATOM     18  C   UNL     1      -5.682   7.475 -11.699  0.00  0.00    +0.029 A 
ENDBRANCH  12  13
ENDBRANCH   8  11
ENDBRANCH   3   5
BRANCH   1  22
ATOM     19  C   UNL     1      -0.016  -0.393  -2.561  0.00  0.00    +0.025 A 
ATOM     20  C   UNL     1       0.961  -0.538  -3.533  0.00  0.00    +0.017 A 
ATOM     21  C   UNL     1       0.734  -0.018  -4.775  0.00  0.00    +0.021 A 
ATOM     22  C   UNL     1      -0.466   0.636  -5.015  0.00  0.00    +0.075 A 
ATOM     23  S   UNL     1      -1.290   0.499  -3.437  0.00  0.00    -0.084 S 
BRANCH  19  26
ATOM     24  C   UNL     1      -0.044   1.463   0.017  0.00  0.00    +0.070 C 
ATOM     25  C   UNL     1      -0.020  -0.043  -0.002  0.00  0.00    +0.089 A 
ATOM     26  C   UNL     1      -0.008  -0.863  -1.159  0.00  0.00    +0.053 A 
ATOM     27  C   UNL     1       0.012  -2.161  -0.746  0.00  0.00    +0.143 A 
ATOM     28  O   UNL     1       0.013  -2.164   0.594  0.00  0.00    -0.359 OA
ATOM     29  N   UNL     1      -0.002  -0.821   1.040  0.00  0.00    -0.083 NA
ATOM     30  C   UNL     1       0.030  -3.376  -1.638  0.00  0.00    +0.090 C 
ENDBRANCH  19  26
ENDBRANCH   1  22
TORSDOF 5
