REMARK  Name = ZINC34838109
REMARK  7 active torsions:
REMARK  status: ('A' for Active; 'I' for Inactive)
REMARK    1  A    between atoms: C_4  and  C_7
REMARK    2  A    between atoms: C_7  and  C_8
REMARK    3  A    between atoms: C_7  and  N_14
REMARK    4  A    between atoms: C_15  and  C_17
REMARK    5  A    between atoms: C_19  and  C_31
REMARK    6  A    between atoms: N_21  and  C_22
REMARK    7  A    between atoms: C_25  and  N_28
REMARK                            x       y       z     vdW  Elec       q    Type
REMARK                         _______ _______ _______ _____ _____    ______ ____
ROOT
ATOM      1  C   UNL     1       4.589  -3.066  -2.724  0.00  0.00    +0.130 A 
ATOM      2  C   UNL     1       5.626  -3.876  -3.147  0.00  0.00    +0.063 A 
ATOM      3  C   UNL     1       5.007  -5.014  -3.696  0.00  0.00    +0.094 A 
ATOM      4  N   UNL     1       3.705  -4.852  -3.587  0.00  0.00    -0.166 NA
ATOM      5  N   UNL     1       3.430  -3.732  -3.021  0.00  0.00    -0.227 N 
ENDROOT
BRANCH   3   6
ATOM      6  C   UNL     1       5.697  -6.186  -4.292  0.00  0.00    +0.002 A 
ATOM      7  C   UNL     1       7.089  -6.227  -4.337  0.00  0.00    +0.013 A 
ATOM      8  C   UNL     1       7.727  -7.318  -4.891  0.00  0.00    +0.039 A 
ATOM      9  C   UNL     1       6.986  -8.371  -5.402  0.00  0.00    +0.123 A 
ATOM     10  C   UNL     1       5.601  -8.334  -5.358  0.00  0.00    +0.039 A 
ATOM     11  C   UNL     1       4.955  -7.249  -4.801  0.00  0.00    +0.013 A 
ATOM     12  F   UNL     1       7.614  -9.437  -5.944  0.00  0.00    -0.205 F 
ENDBRANCH   3   6
BRANCH   5  13
ATOM     13  C   UNL     1       2.140  -3.261  -2.753  0.00  0.00    +0.066 A 
ATOM     14  C   UNL     1       1.847  -2.698  -1.517  0.00  0.00    +0.030 A 
ATOM     15  C   UNL     1       0.573  -2.235  -1.256  0.00  0.00    +0.035 A 
ATOM     16  C   UNL     1      -0.411  -2.331  -2.222  0.00  0.00    +0.126 A 
ATOM     17  C   UNL     1      -0.124  -2.892  -3.453  0.00  0.00    +0.035 A 
ATOM     18  C   UNL     1       1.150  -3.352  -3.723  0.00  0.00    +0.030 A 
BRANCH  16  19
ATOM     19  N   UNL     1      -1.776  -1.834  -1.938  0.00  0.00    +0.056 N 
ATOM     20  O   UNL     1      -2.029  -1.344  -0.862  0.00  0.00    -0.126 OA
ATOM     21  O   UNL     1      -2.638  -1.918  -2.781  0.00  0.00    -0.126 OA
ENDBRANCH  16  19
ENDBRANCH   5  13
BRANCH   1  23
ATOM     22  N   UNL     1       5.920  -1.278  -1.727  0.00  0.00    -0.299 N 
ATOM     23  C   UNL     1       4.707  -1.751  -2.075  0.00  0.00    +0.263 C 
ATOM     24  O   UNL     1       3.710  -1.090  -1.853  0.00  0.00    -0.269 OA
ATOM     25  H   UNL     1       6.708  -1.832  -1.840  0.00  0.00    +0.150 HD
BRANCH  22  26
ATOM     26  C   UNL     1       6.049   0.074  -1.177  0.00  0.00    +0.134 C 
BRANCH  26  30
ATOM     27  C   UNL     1       9.673   0.359   1.066  0.00  0.00    +0.000 A 
ATOM     28  C   UNL     1       8.523   0.970   1.530  0.00  0.00    +0.000 A 
ATOM     29  C   UNL     1       7.350   0.877   0.804  0.00  0.00    +0.006 A 
ATOM     30  C   UNL     1       7.327   0.176  -0.386  0.00  0.00    -0.023 A 
ATOM     31  C   UNL     1       8.478  -0.434  -0.851  0.00  0.00    +0.006 A 
ATOM     32  C   UNL     1       9.650  -0.343  -0.125  0.00  0.00    +0.000 A 
ENDBRANCH  26  30
BRANCH  26  33
ATOM     33  C   UNL     1       6.075   1.074  -2.305  0.00  0.00    -0.023 A 
ATOM     34  C   UNL     1       6.734   0.772  -3.481  0.00  0.00    +0.006 A 
ATOM     35  C   UNL     1       6.758   1.690  -4.515  0.00  0.00    +0.000 A 
ATOM     36  C   UNL     1       6.122   2.909  -4.373  0.00  0.00    +0.000 A 
ATOM     37  C   UNL     1       5.462   3.210  -3.196  0.00  0.00    +0.000 A 
ATOM     38  C   UNL     1       5.434   2.291  -2.164  0.00  0.00    +0.006 A 
ENDBRANCH  26  33
ENDBRANCH  22  26
ENDBRANCH   1  23
TORSDOF 7
