REMARK  Name = ZINC19941551
REMARK  10 active torsions:
REMARK  status: ('A' for Active; 'I' for Inactive)
REMARK    1  A    between atoms: C_1  and  C_2
REMARK    2  A    between atoms: C_12  and  C_14
REMARK    3  A    between atoms: C_14  and  C_16
REMARK    4  A    between atoms: C_14  and  N_26
REMARK    5  A    between atoms: N_20  and  C_21
REMARK    6  A    between atoms: N_26  and  C_27
REMARK    7  A    between atoms: N_26  and  C_35
REMARK    8  A    between atoms: C_27  and  C_28
REMARK    9  A    between atoms: C_28  and  C_29
REMARK   10  A    between atoms: C_35  and  C_36
REMARK                            x       y       z     vdW  Elec       q    Type
REMARK                         _______ _______ _______ _____ _____    ______ ____
ROOT
ATOM      1  C   UNL     1      -0.810  -3.295   5.104  0.00  0.00    +0.163 C 
ENDROOT
BRANCH   1  13
ATOM      2  C   UNL     1      -2.204  -0.668  -0.758  0.00  0.00    +0.046 C 
ATOM      3  C   UNL     1      -0.889  -1.012  -0.109  0.00  0.00    -0.026 A 
ATOM      4  C   UNL     1       0.294  -0.779  -0.778  0.00  0.00    +0.005 A 
ATOM      5  C   UNL     1       1.513  -1.086  -0.189  0.00  0.00    +0.001 A 
ATOM      6  C   UNL     1       1.562  -1.635   1.062  0.00  0.00    +0.010 A 
ATOM      7  C   UNL     1       0.375  -1.885   1.756  0.00  0.00    -0.001 A 
ATOM      8  C   UNL     1      -0.863  -1.570   1.165  0.00  0.00    +0.052 A 
ATOM      9  N   UNL     1      -2.031  -1.817   1.854  0.00  0.00    -0.322 N 
ATOM     10  H   UNL     1      -3.002  -1.573   1.398  0.00  0.00    +0.169 HD
ATOM     11  C   UNL     1      -2.006  -2.357   3.085  0.00  0.00    +0.254 A 
ATOM     12  O   UNL     1      -3.058  -2.562   3.666  0.00  0.00    -0.268 OA
ATOM     13  C   UNL     1      -0.792  -2.691   3.723  0.00  0.00    +0.042 A 
ATOM     14  C   UNL     1       0.391  -2.472   3.098  0.00  0.00    +0.021 A 
ENDBRANCH   1  13
BRANCH   1  15
ATOM     15  C   UNL     1       0.598  -3.623   5.527  0.00  0.00    +0.173 A 
ATOM     16  N   UNL     1       1.513  -2.775   5.928  0.00  0.00    -0.111 NA
ATOM     17  N   UNL     1       2.582  -3.441   6.200  0.00  0.00    -0.023 NA
ATOM     18  N   UNL     1       2.372  -4.693   5.984  0.00  0.00    -0.044 NA
ATOM     19  N   UNL     1       1.159  -4.846   5.573  0.00  0.00    -0.224 N 
BRANCH  19  20
ATOM     20  C   UNL     1       0.513  -6.113   5.220  0.00  0.00    +0.111 C 
ATOM     21  C   UNL     1       0.550  -7.078   6.423  0.00  0.00    +0.027 C 
ATOM     22  C   UNL     1       0.784  -8.471   5.784  0.00  0.00    +0.002 C 
ATOM     23  C   UNL     1       1.769  -8.158   4.630  0.00  0.00    +0.002 C 
ATOM     24  C   UNL     1       1.288  -6.799   4.081  0.00  0.00    +0.027 C 
ENDBRANCH  19  20
ENDBRANCH   1  15
BRANCH   1  25
ATOM     25  N   UNL     1      -1.395  -2.335   6.050  0.00  0.00    -0.284 NA
BRANCH  25  26
ATOM     26  C   UNL     1      -1.444  -2.896   7.407  0.00  0.00    +0.090 C 
BRANCH  26  27
ATOM     27  C   UNL     1      -2.400  -2.067   8.267  0.00  0.00    +0.050 C 
BRANCH  27  28
ATOM     28  C   UNL     1      -2.402  -2.604   9.675  0.00  0.00    -0.046 A 
ATOM     29  C   UNL     1      -3.303  -3.587  10.039  0.00  0.00    +0.003 A 
ATOM     30  C   UNL     1      -3.301  -4.083  11.330  0.00  0.00    +0.000 A 
ATOM     31  C   UNL     1      -2.405  -3.588  12.259  0.00  0.00    +0.000 A 
ATOM     32  C   UNL     1      -1.508  -2.601  11.896  0.00  0.00    +0.000 A 
ATOM     33  C   UNL     1      -1.506  -2.109  10.604  0.00  0.00    +0.003 A 
ENDBRANCH  27  28
ENDBRANCH  26  27
ENDBRANCH  25  26
BRANCH  25  34
ATOM     34  C   UNL     1      -0.658  -1.063   6.032  0.00  0.00    +0.120 C 
BRANCH  34  35
ATOM     35  C   UNL     1      -1.226  -0.169   4.961  0.00  0.00    -0.033 A 
ATOM     36  C   UNL     1      -0.495   0.090   3.817  0.00  0.00    +0.005 A 
ATOM     37  C   UNL     1      -1.018   0.907   2.832  0.00  0.00    +0.000 A 
ATOM     38  C   UNL     1      -2.268   1.473   2.995  0.00  0.00    +0.000 A 
ATOM     39  C   UNL     1      -2.998   1.219   4.142  0.00  0.00    +0.000 A 
ATOM     40  C   UNL     1      -2.477   0.398   5.124  0.00  0.00    +0.005 A 
ENDBRANCH  34  35
ENDBRANCH  25  34
ENDBRANCH   1  25
TORSDOF 9
