REMARK  Name = ZINC12528110
REMARK  7 active torsions:
REMARK  status: ('A' for Active; 'I' for Inactive)
REMARK    1  A    between atoms: C_1  and  C_2
REMARK    2  A    between atoms: C_2  and  C_3
REMARK    3  A    between atoms: C_3  and  C_25
REMARK    4  A    between atoms: N_6  and  C_10
REMARK    5  A    between atoms: C_10  and  C_11
REMARK    6  A    between atoms: N_13  and  C_14
REMARK    7  A    between atoms: C_19  and  N_20
REMARK                            x       y       z     vdW  Elec       q    Type
REMARK                         _______ _______ _______ _____ _____    ______ ____
ROOT
ATOM      1  C   UNL     1      -1.423  -0.536   0.032  0.00  0.00    +0.138 C 
ATOM      2  C   UNL     1      -2.193   0.043   1.201  0.00  0.00    +0.251 C 
ATOM      3  O   UNL     1      -1.943  -0.087   2.380  0.00  0.00    -0.272 OA
ATOM      4  N   UNL     1      -3.215   0.735   0.658  0.00  0.00    -0.215 N 
ATOM      5  C   UNL     1      -3.196   0.673  -0.679  0.00  0.00    +0.310 C 
ATOM      6  O   UNL     1      -4.016   1.218  -1.391  0.00  0.00    -0.252 OA
ATOM      7  N   UNL     1      -2.169  -0.059  -1.145  0.00  0.00    -0.281 N 
ATOM      8  H   UNL     1      -1.960  -0.238  -2.076  0.00  0.00    +0.152 HD
ENDROOT
BRANCH   1   9
ATOM      9  C   UNL     1      -1.424  -2.042   0.086  0.00  0.00    -0.015 A 
ATOM     10  C   UNL     1      -0.391  -2.712   0.715  0.00  0.00    +0.006 A 
ATOM     11  C   UNL     1      -0.392  -4.093   0.764  0.00  0.00    +0.000 A 
ATOM     12  C   UNL     1      -1.426  -4.805   0.186  0.00  0.00    +0.000 A 
ATOM     13  C   UNL     1      -2.459  -4.135  -0.442  0.00  0.00    +0.000 A 
ATOM     14  C   UNL     1      -2.461  -2.754  -0.488  0.00  0.00    +0.006 A 
ENDBRANCH   1   9
BRANCH   1  16
ATOM     15  C   UNL     1      -0.016   1.529   0.012  0.00  0.00    +0.007 C 
ATOM     16  C   UNL     1       0.011  -0.001   0.013  0.00  0.00    +0.037 C 
ENDBRANCH   1  16
BRANCH   4  17
ATOM     17  C   UNL     1      -4.221   1.463   1.434  0.00  0.00    +0.214 C 
BRANCH  17  18
ATOM     18  C   UNL     1      -3.755   2.878   1.659  0.00  0.00    +0.235 C 
ATOM     19  O   UNL     1      -2.687   3.243   1.214  0.00  0.00    -0.274 OA
ATOM     20  N   UNL     1      -4.524   3.739   2.354  0.00  0.00    -0.283 N 
ATOM     21  H   UNL     1      -5.412   3.473   2.641  0.00  0.00    +0.155 HD
BRANCH  20  22
ATOM     22  C   UNL     1      -4.042   5.018   2.663  0.00  0.00    +0.055 A 
ATOM     23  C   UNL     1      -2.676   5.247   2.736  0.00  0.00    +0.025 A 
ATOM     24  C   UNL     1      -2.203   6.510   3.042  0.00  0.00    +0.002 A 
ATOM     25  C   UNL     1      -3.087   7.547   3.274  0.00  0.00    +0.002 A 
ATOM     26  C   UNL     1      -4.450   7.328   3.203  0.00  0.00    +0.025 A 
ATOM     27  C   UNL     1      -4.934   6.066   2.891  0.00  0.00    +0.051 A 
BRANCH  27  28
ATOM     28  N   UNL     1      -6.313   5.843   2.813  0.00  0.00    -0.328 N 
ATOM     29  C   UNL     1      -7.180   5.440   3.929  0.00  0.00    +0.105 C 
ATOM     30  C   UNL     1      -8.610   5.290   3.367  0.00  0.00    +0.020 C 
ATOM     31  C   UNL     1      -8.366   5.066   1.852  0.00  0.00    +0.020 C 
ATOM     32  C   UNL     1      -7.137   5.979   1.599  0.00  0.00    +0.105 C 
ENDBRANCH  27  28
ENDBRANCH  20  22
ENDBRANCH  17  18
ENDBRANCH   4  17
TORSDOF 6
