REMARK  Name = ZINC39886349
REMARK  5 active torsions:
REMARK  status: ('A' for Active; 'I' for Inactive)
REMARK    1  A    between atoms: C_4  and  N_7
REMARK    2  A    between atoms: N_9  and  N_10
REMARK    3  A    between atoms: C_15  and  C_18
REMARK    4  A    between atoms: C_18  and  C_19
REMARK    5  A    between atoms: C_19  and  C_21
REMARK                            x       y       z     vdW  Elec       q    Type
REMARK                         _______ _______ _______ _____ _____    ______ ____
ROOT
ATOM      1  N   UNL     1       2.572  -4.095   0.248  0.00  0.00    -0.125 NA
ATOM      2  C   UNL     1       1.464  -4.790   0.351  0.00  0.00    +0.183 C 
ATOM      3  N   UNL     1       0.163  -4.323   0.379  0.00  0.00    -0.263 N 
ATOM      4  C   UNL     1      -0.877  -5.131   0.486  0.00  0.00    +0.232 C 
ATOM      5  O   UNL     1      -2.016  -4.716   0.510  0.00  0.00    -0.274 OA
ATOM      6  C   UNL     1      -0.557  -6.615   0.577  0.00  0.00    +0.147 C 
ATOM      7  S   UNL     1       1.280  -6.562   0.479  0.00  0.00    -0.075 S 
ATOM      8  H   UNL     1       0.008  -3.367   0.318  0.00  0.00    +0.157 HD
ENDROOT
BRANCH   1  11
ATOM      9  N   UNL     1       3.622  -0.651  -0.037  0.00  0.00    -0.217 N 
ATOM     10  C   UNL     1       3.615  -2.010   0.055  0.00  0.00    +0.142 C 
ATOM     11  N   UNL     1       2.517  -2.698   0.157  0.00  0.00    -0.135 NA
ATOM     12  C   UNL     1       4.989  -2.661   0.029  0.00  0.00    +0.153 C 
ATOM     13  S   UNL     1       6.053  -1.167  -0.126  0.00  0.00    -0.059 S 
ATOM     14  C   UNL     1       4.758   0.061  -0.148  0.00  0.00    +0.284 C 
ATOM     15  O   UNL     1       4.875   1.268  -0.241  0.00  0.00    -0.262 OA
BRANCH   9  19
ATOM     16  C   UNL     1      -0.017   1.377   0.011  0.00  0.00    +0.000 A 
ATOM     17  C   UNL     1       0.523   0.959  -1.191  0.00  0.00    +0.002 A 
ATOM     18  C   UNL     1       1.730   0.287  -1.210  0.00  0.00    +0.024 A 
ATOM     19  C   UNL     1       2.400   0.031  -0.021  0.00  0.00    +0.043 A 
ATOM     20  C   UNL     1       1.854   0.453   1.184  0.00  0.00    +0.024 A 
ATOM     21  C   UNL     1       0.647   1.124   1.197  0.00  0.00    +0.002 A 
ENDBRANCH   9  19
ENDBRANCH   1  11
BRANCH   6  22
ATOM     22  C   UNL     1      -1.149  -7.384  -0.605  0.00  0.00    +0.103 C 
BRANCH  22  23
ATOM     23  C   UNL     1      -0.915  -8.860  -0.413  0.00  0.00    +0.165 C 
ATOM     24  O   UNL     1      -0.332  -9.258   0.573  0.00  0.00    -0.292 OA
BRANCH  23  25
ATOM     25  C   UNL     1      -1.394  -9.818  -1.421  0.00  0.00    +0.018 A 
ATOM     26  C   UNL     1      -2.062  -9.362  -2.562  0.00  0.00    +0.013 A 
ATOM     27  C   UNL     1      -2.507 -10.266  -3.503  0.00  0.00    +0.020 A 
ATOM     28  C   UNL     1      -2.295 -11.623  -3.320  0.00  0.00    +0.041 A 
ATOM     29  C   UNL     1      -1.634 -12.082  -2.192  0.00  0.00    +0.020 A 
ATOM     30  C   UNL     1      -1.178 -11.189  -1.246  0.00  0.00    +0.013 A 
ATOM     31 CL   UNL     1      -2.861 -12.754  -4.509  0.00  0.00    -0.084 Cl
ENDBRANCH  23  25
ENDBRANCH  22  23
ENDBRANCH   6  22
TORSDOF 5
