REMARK  Name = ZINC14068907
REMARK  8 active torsions:
REMARK  status: ('A' for Active; 'I' for Inactive)
REMARK    1  A    between atoms: C_1  and  N_2
REMARK    2  A    between atoms: C_3  and  C_25
REMARK    3  A    between atoms: C_6  and  S_7
REMARK    4  A    between atoms: S_7  and  C_8
REMARK    5  A    between atoms: C_8  and  C_9
REMARK    6  A    between atoms: N_11  and  C_12
REMARK    7  A    between atoms: C_12  and  C_14
REMARK    8  A    between atoms: C_12  and  C_20
REMARK                            x       y       z     vdW  Elec       q    Type
REMARK                         _______ _______ _______ _____ _____    ______ ____
ROOT
ATOM      1  C   UNL     1       2.286   1.031   1.673  0.00  0.00    +0.224 C 
ATOM      2  O   UNL     1       2.125   0.020   2.323  0.00  0.00    -0.275 OA
ATOM      3  N   UNL     1       1.219   1.715   1.216  0.00  0.00    -0.301 N 
ATOM      4  H   UNL     1       1.348   2.524   0.696  0.00  0.00    +0.150 HD
ENDROOT
BRANCH   1   5
ATOM      5  C   UNL     1       3.680   1.522   1.376  0.00  0.00    +0.173 C 
BRANCH   5   6
ATOM      6  S   UNL     1       4.887   0.396   2.119  0.00  0.00    -0.077 S 
BRANCH   6  12
ATOM      7  C   UNL     1       8.039  -0.414   2.689  0.00  0.00    +0.153 C 
ATOM      8  N   UNL     1       7.651   0.770   1.918  0.00  0.00    -0.305 N 
ATOM      9  C   UNL     1       8.488   1.693   1.333  0.00  0.00    +0.165 A 
ATOM     10  N   UNL     1       7.726   2.586   0.746  0.00  0.00    -0.128 NA
ATOM     11  N   UNL     1       6.488   2.286   0.915  0.00  0.00    -0.122 NA
ATOM     12  C   UNL     1       6.384   1.187   1.630  0.00  0.00    +0.192 A 
BRANCH   9  13
ATOM     13  C   UNL     1       9.965   1.681   1.362  0.00  0.00    +0.022 A 
ATOM     14  C   UNL     1      10.701   2.829   1.046  0.00  0.00    +0.031 A 
ATOM     15  C   UNL     1      12.078   2.775   1.091  0.00  0.00    +0.111 A 
ATOM     16  N   UNL     1      12.702   1.659   1.416  0.00  0.00    -0.263 NA
ATOM     17  C   UNL     1      12.048   0.552   1.716  0.00  0.00    +0.111 A 
ATOM     18  C   UNL     1      10.669   0.519   1.702  0.00  0.00    +0.031 A 
ENDBRANCH   9  13
ENDBRANCH   6  12
ENDBRANCH   5   6
ENDBRANCH   1   5
BRANCH   3  19
ATOM     19  C   UNL     1      -0.136   1.238   1.504  0.00  0.00    +0.169 C 
BRANCH  19  20
ATOM     20  C   UNL     1      -1.083   1.746   0.448  0.00  0.00    -0.020 A 
ATOM     21  C   UNL     1      -0.957   3.038  -0.029  0.00  0.00    +0.006 A 
ATOM     22  C   UNL     1      -1.823   3.502  -1.001  0.00  0.00    +0.000 A 
ATOM     23  C   UNL     1      -2.821   2.679  -1.489  0.00  0.00    +0.000 A 
ATOM     24  C   UNL     1      -2.950   1.390  -1.008  0.00  0.00    +0.000 A 
ATOM     25  C   UNL     1      -2.081   0.923  -0.039  0.00  0.00    +0.006 A 
ENDBRANCH  19  20
BRANCH  19  26
ATOM     26  C   UNL     1      -0.570   1.746   2.855  0.00  0.00    +0.129 A 
ATOM     27  C   UNL     1      -1.269   1.050   3.770  0.00  0.00    +0.047 A 
ATOM     28  C   UNL     1      -1.454   1.905   4.881  0.00  0.00    +0.041 A 
ATOM     29  C   UNL     1      -0.863   3.074   4.576  0.00  0.00    +0.195 A 
ATOM     30  O   UNL     1      -0.329   2.972   3.348  0.00  0.00    -0.466 OA
ENDBRANCH  19  26
ENDBRANCH   3  19
TORSDOF 7
