REMARK  Name = ZINC30140636
REMARK  8 active torsions:
REMARK  status: ('A' for Active; 'I' for Inactive)
REMARK    1  A    between atoms: C_1  and  C_2
REMARK    2  A    between atoms: C_2  and  C_3
REMARK    3  A    between atoms: C_2  and  C_4
REMARK    4  A    between atoms: N_13  and  C_14
REMARK    5  A    between atoms: C_14  and  C_15
REMARK    6  A    between atoms: N_17  and  C_18
REMARK    7  A    between atoms: C_22  and  S_24
REMARK    8  A    between atoms: S_24  and  N_27
REMARK                            x       y       z     vdW  Elec       q    Type
REMARK                         _______ _______ _______ _____ _____    ______ ____
ROOT
ATOM      1  C   UNL     1      -6.859  -0.574   1.317  0.00  0.00    +0.235 C 
ATOM      2  O   UNL     1      -6.735   0.214   0.404  0.00  0.00    -0.274 OA
ATOM      3  N   UNL     1      -7.661  -0.277   2.359  0.00  0.00    -0.284 N 
ATOM      4  H   UNL     1      -7.813  -0.934   3.056  0.00  0.00    +0.155 HD
ENDROOT
BRANCH   3   5
ATOM      5  C   UNL     1      -8.273   0.979   2.435  0.00  0.00    +0.035 A 
ATOM      6  C   UNL     1      -8.455   1.590   3.669  0.00  0.00    +0.023 A 
ATOM      7  C   UNL     1      -9.060   2.830   3.740  0.00  0.00    +0.004 A 
ATOM      8  C   UNL     1      -9.484   3.462   2.586  0.00  0.00    +0.029 A 
ATOM      9  C   UNL     1      -9.305   2.855   1.356  0.00  0.00    +0.114 A 
ATOM     10  C   UNL     1      -8.694   1.619   1.277  0.00  0.00    +0.052 A 
BRANCH   9  11
ATOM     11  S   UNL     1      -9.847   3.664  -0.112  0.00  0.00    +0.100 S 
ATOM     12  O   UNL     1     -10.057   2.648  -1.082  0.00  0.00    -0.146 OA
ATOM     13  O   UNL     1     -10.872   4.568   0.278  0.00  0.00    -0.146 OA
BRANCH  11  14
ATOM     14  N   UNL     1      -8.585   4.587  -0.657  0.00  0.00    -0.118 NA
ATOM     15  C   UNL     1      -8.718   5.293  -1.733  0.00  0.00    +0.117 C 
ATOM     16  C   UNL     1     -10.039   5.281  -2.498  0.00  0.00    +0.073 C 
ATOM     17  C   UNL     1     -10.671   6.646  -2.323  0.00  0.00    +0.008 C 
ATOM     18  C   UNL     1     -10.231   7.661  -3.380  0.00  0.00    +0.002 C 
ATOM     19  C   UNL     1      -8.731   7.608  -3.673  0.00  0.00    +0.019 C 
ATOM     20  C   UNL     1      -7.883   7.473  -2.427  0.00  0.00    +0.102 C 
ATOM     21  N   UNL     1      -7.714   6.028  -2.169  0.00  0.00    -0.331 N 
ATOM     22  H   UNL     1      -6.850   5.615  -2.325  0.00  0.00    +0.147 HD
ENDBRANCH  11  14
ENDBRANCH   9  11
ENDBRANCH   3   5
BRANCH   1  23
ATOM     23  C   UNL     1      -6.118  -1.886   1.286  0.00  0.00    +0.201 C 
BRANCH  23  33
ATOM     24  C   UNL     1      -1.407  -0.547   0.029  0.00  0.00    -0.044 A 
ATOM     25  C   UNL     1      -2.254  -0.225   1.073  0.00  0.00    +0.006 A 
ATOM     26  C   UNL     1      -3.551  -0.697   1.078  0.00  0.00    +0.023 A 
ATOM     27  C   UNL     1      -4.005  -1.496   0.033  0.00  0.00    +0.033 A 
ATOM     28  C   UNL     1      -3.156  -1.815  -1.015  0.00  0.00    -0.026 A 
ATOM     29  C   UNL     1      -1.857  -1.335  -1.013  0.00  0.00    +0.009 A 
ATOM     30  C   UNL     1      -3.615  -2.668  -2.168  0.00  0.00    +0.038 C 
ATOM     31  C   UNL     1      -4.842  -3.489  -1.771  0.00  0.00    +0.024 C 
ATOM     32  C   UNL     1      -5.892  -2.549  -1.164  0.00  0.00    +0.106 C 
ATOM     33  N   UNL     1      -5.322  -1.968   0.059  0.00  0.00    -0.321 N 
BRANCH  24  35
ATOM     34  C   UNL     1      -0.003   1.497   0.040  0.00  0.00    +0.012 C 
ATOM     35  C   UNL     1       0.010  -0.033   0.025  0.00  0.00    +0.013 C 
ATOM     36  C   UNL     1       0.744  -0.549   1.264  0.00  0.00    +0.012 C 
ENDBRANCH  24  35
ENDBRANCH  23  33
ENDBRANCH   1  23
TORSDOF 6
