REMARK  Name = ZINC09268489
REMARK  6 active torsions:
REMARK  status: ('A' for Active; 'I' for Inactive)
REMARK    1  A    between atoms: C_1  and  C_2
REMARK    2  A    between atoms: N_8  and  C_9
REMARK    3  A    between atoms: C_9  and  C_10
REMARK    4  A    between atoms: C_10  and  N_11
REMARK    5  A    between atoms: C_17  and  C_20
REMARK    6  A    between atoms: C_18  and  C_19
REMARK                            x       y       z     vdW  Elec       q    Type
REMARK                         _______ _______ _______ _____ _____    ______ ____
ROOT
ATOM      1  N   UNL     1       4.113   0.250   2.546  0.00  0.00    -0.329 N 
ATOM      2  C   UNL     1       4.939   0.019   3.628  0.00  0.00    +0.145 C 
ATOM      3  N   UNL     1       4.534  -0.710   4.630  0.00  0.00    -0.113 NA
ATOM      4  S   UNL     1       5.824  -0.727   5.696  0.00  0.00    +0.101 S 
ATOM      5  O   UNL     1       6.339  -2.050   5.732  0.00  0.00    -0.146 OA
ATOM      6  O   UNL     1       5.437  -0.004   6.857  0.00  0.00    -0.146 OA
ATOM      7  C   UNL     1       6.979   0.281   4.788  0.00  0.00    +0.126 C 
ATOM      8  C   UNL     1       6.276   0.577   3.671  0.00  0.00    +0.018 C 
ATOM      9  C   UNL     1       6.837   1.427   2.560  0.00  0.00    +0.049 C 
ATOM     10  H   UNL     1       4.426   0.791   1.803  0.00  0.00    +0.147 HD
ENDROOT
BRANCH   7  11
ATOM     11  C   UNL     1       8.348   0.682   5.155  0.00  0.00    +0.002 A 
ATOM     12  C   UNL     1       9.096   1.492   4.296  0.00  0.00    +0.012 A 
ATOM     13  C   UNL     1      10.376   1.864   4.646  0.00  0.00    +0.039 A 
ATOM     14  C   UNL     1      10.922   1.437   5.847  0.00  0.00    +0.123 A 
ATOM     15  C   UNL     1      10.185   0.634   6.704  0.00  0.00    +0.039 A 
ATOM     16  C   UNL     1       8.901   0.259   6.368  0.00  0.00    +0.012 A 
ATOM     17  F   UNL     1      12.177   1.806   6.184  0.00  0.00    -0.205 F 
ENDBRANCH   7  11
BRANCH   1  18
ATOM     18  C   UNL     1       2.764  -0.321   2.518  0.00  0.00    +0.084 C 
BRANCH  18  19
ATOM     19  C   UNL     1       2.066   0.083   1.218  0.00  0.00    -0.060 C 
BRANCH  19  26
ATOM     20  C   UNL     1      -0.019   1.526   0.010  0.00  0.00    -0.013 C 
ATOM     21  C   UNL     1       0.002  -0.004   0.002  0.00  0.00    -0.072 C 
ATOM     22  C   UNL     1      -1.434  -0.533   0.011  0.00  0.00    -0.016 C 
ATOM     23  C   UNL     1      -1.408  -2.064   0.003  0.00  0.00    -0.003 C 
ATOM     24  C   UNL     1      -0.600  -2.558   1.206  0.00  0.00    -0.019 C 
ATOM     25  C   UNL     1       0.805  -1.954   1.152  0.00  0.00    -0.078 C 
ATOM     26  N   UNL     1       0.713  -0.490   1.191  0.00  0.00    +0.382 N 
ATOM     27  H   UNL     1       0.213  -0.206   2.020  0.00  0.00    -0.081 HD
ENDBRANCH  19  26
ENDBRANCH  18  19
ENDBRANCH   1  18
TORSDOF 4
