REMARK  Name = ZINC41583845
REMARK  7 active torsions:
REMARK  status: ('A' for Active; 'I' for Inactive)
REMARK    1  A    between atoms: C_1  and  C_2
REMARK    2  A    between atoms: C_6  and  O_30
REMARK    3  A    between atoms: C_7  and  C_19
REMARK    4  A    between atoms: C_12  and  C_13
REMARK    5  A    between atoms: C_19  and  N_20
REMARK    6  A    between atoms: C_22  and  C_29
REMARK    7  A    between atoms: C_25  and  C_28
REMARK                            x       y       z     vdW  Elec       q    Type
REMARK                         _______ _______ _______ _____ _____    ______ ____
ROOT
ATOM      1  C   UNL     1      -0.018   1.503   0.010  0.00  0.00    +0.045 C 
ATOM      2  C   UNL     1       0.002  -0.004   0.002  0.00  0.00    -0.025 A 
ATOM      3  C   UNL     1      -1.206  -0.749   0.004  0.00  0.00    +0.022 A 
ATOM      4  C   UNL     1      -2.438  -0.106  -0.189  0.00  0.00    +0.015 A 
ATOM      5  C   UNL     1      -3.588  -0.839  -0.225  0.00  0.00    +0.046 A 
ATOM      6  C   UNL     1      -3.550  -2.223  -0.064  0.00  0.00    +0.122 A 
ATOM      7  C   UNL     1      -2.345  -2.873   0.146  0.00  0.00    +0.020 A 
ATOM      8  C   UNL     1      -1.168  -2.143   0.192  0.00  0.00    +0.144 A 
ATOM      9  O   UNL     1       0.014  -2.760   0.438  0.00  0.00    -0.421 OA
ATOM     10  C   UNL     1       1.125  -2.162  -0.050  0.00  0.00    +0.345 A 
ATOM     11  O   UNL     1       2.042  -2.819  -0.510  0.00  0.00    -0.244 OA
ATOM     12  C   UNL     1       1.190  -0.693  -0.013  0.00  0.00    +0.070 A 
ENDROOT
BRANCH  12  13
ATOM     13  C   UNL     1       2.490   0.018   0.013  0.00  0.00    -0.011 A 
ATOM     14  C   UNL     1       2.861   0.837  -1.053  0.00  0.00    +0.009 A 
ATOM     15  C   UNL     1       4.073   1.496  -1.024  0.00  0.00    +0.001 A 
ATOM     16  C   UNL     1       4.919   1.346   0.060  0.00  0.00    +0.000 A 
ATOM     17  C   UNL     1       4.556   0.535   1.121  0.00  0.00    +0.001 A 
ATOM     18  C   UNL     1       3.344  -0.124   1.105  0.00  0.00    +0.009 A 
ENDBRANCH  12  13
BRANCH   6  19
ATOM     19  O   UNL     1      -4.703  -2.939  -0.113  0.00  0.00    -0.506 OA
ATOM     20  H   UNL     1      -4.938  -3.245  -0.999  0.00  0.00    +0.292 HD
ENDBRANCH   6  19
BRANCH   7  21
ATOM     21  C   UNL     1      -2.314  -4.370   0.324  0.00  0.00    -0.036 C 
BRANCH  21  22
ATOM     22  N   UNL     1      -2.152  -5.015  -0.986  0.00  0.00    +0.383 N 
ATOM     23  C   UNL     1      -3.331  -4.739  -1.815  0.00  0.00    -0.075 C 
ATOM     24  C   UNL     1      -3.132  -5.340  -3.208  0.00  0.00    -0.031 C 
ATOM     25  C   UNL     1      -2.939  -6.854  -3.082  0.00  0.00    +0.003 C 
ATOM     26  C   UNL     1      -1.752  -7.131  -2.155  0.00  0.00    -0.031 C 
ATOM     27  C   UNL     1      -2.002  -6.463  -0.801  0.00  0.00    -0.075 C 
ATOM     28  C   UNL     1      -0.474  -6.564  -2.777  0.00  0.00    +0.005 C 
ATOM     29  C   UNL     1      -4.363  -5.052  -4.070  0.00  0.00    +0.005 C 
ATOM     30  H   UNL     1      -1.329  -4.648  -1.441  0.00  0.00    -0.081 HD
ENDBRANCH  21  22
ENDBRANCH   7  21
TORSDOF 4
