REMARK  Name = ZINC06162580
REMARK  21 active torsions:
REMARK  status: ('A' for Active; 'I' for Inactive)
REMARK    1  A    between atoms: C_1  and  C_2
REMARK    2  A    between atoms: C_2  and  N_80
REMARK    3  A    between atoms: C_3  and  C_4
REMARK    4  A    between atoms: C_3  and  N_80
REMARK    5  A    between atoms: C_5  and  C_6
REMARK    6  A    between atoms: C_5  and  N_80
REMARK    7  A    between atoms: C_6  and  C_7
REMARK    8  A    between atoms: C_7  and  N_8
REMARK    9  A    between atoms: N_8  and  C_9
REMARK   10  A    between atoms: N_8  and  C_24
REMARK   11  A    between atoms: C_9  and  C_10
REMARK   12  A    between atoms: C_13  and  C_23
REMARK   13  A    between atoms: C_15  and  C_22
REMARK   14  A    between atoms: C_24  and  N_26
REMARK   15  A    between atoms: N_26  and  C_27
REMARK   16  A    between atoms: C_27  and  C_28
REMARK   17  A    between atoms: C_28  and  C_29
REMARK   18  A    between atoms: C_32  and  O_37
REMARK   19  A    between atoms: C_33  and  O_35
REMARK   20  A    between atoms: O_35  and  C_36
REMARK   21  A    between atoms: O_37  and  C_38
REMARK                            x       y       z     vdW  Elec       q    Type
REMARK                         _______ _______ _______ _____ _____    ______ ____
ROOT
ATOM      1  N   UNL     1      -0.981   1.725  -2.983  0.00  0.00    -0.308 N 
ENDROOT
BRANCH   1   2
ATOM      2  C   UNL     1      -0.629   1.385  -1.727  0.00  0.00    +0.133 C 
ATOM      3  S   UNL     1       0.714   0.355  -1.464  0.00  0.00    -0.019 S 
BRANCH   2   4
ATOM      4  N   UNL     1      -1.332   1.856  -0.678  0.00  0.00    -0.326 N 
ATOM      5  H   UNL     1      -2.093   2.439  -0.827  0.00  0.00    +0.148 HD
BRANCH   4   6
ATOM      6  C   UNL     1      -0.949   1.486   0.686  0.00  0.00    +0.108 C 
BRANCH   6   7
ATOM      7  C   UNL     1      -1.903   2.150   1.681  0.00  0.00    +0.054 C 
BRANCH   7   8
ATOM      8  C   UNL     1      -1.509   1.770   3.085  0.00  0.00    -0.042 A 
ATOM      9  C   UNL     1      -2.054   0.644   3.674  0.00  0.00    +0.007 A 
ATOM     10  C   UNL     1      -1.691   0.288   4.960  0.00  0.00    +0.049 A 
ATOM     11  C   UNL     1      -0.787   1.067   5.665  0.00  0.00    +0.161 A 
ATOM     12  C   UNL     1      -0.243   2.203   5.075  0.00  0.00    +0.162 A 
ATOM     13  C   UNL     1      -0.607   2.551   3.784  0.00  0.00    +0.053 A 
BRANCH  12  14
ATOM     14  O   UNL     1       0.645   2.970   5.763  0.00  0.00    -0.491 OA
ATOM     15  C   UNL     1       1.163   4.120   5.093  0.00  0.00    +0.277 C 
ENDBRANCH  12  14
BRANCH  11  16
ATOM     16  O   UNL     1      -0.433   0.721   6.932  0.00  0.00    -0.491 OA
ATOM     17  C   UNL     1      -1.032  -0.458   7.474  0.00  0.00    +0.277 C 
ENDBRANCH  11  16
ENDBRANCH   7   8
ENDBRANCH   6   7
ENDBRANCH   4   6
ENDBRANCH   2   4
ENDBRANCH   1   2
BRANCH   1  18
ATOM     18  C   UNL     1      -2.190   2.520  -3.214  0.00  0.00    +0.105 C 
BRANCH  18  19
ATOM     19  C   UNL     1      -1.835   4.008  -3.185  0.00  0.00    +0.000 C 
BRANCH  19  20
ATOM     20  C   UNL     1      -3.097   4.838  -3.427  0.00  0.00    -0.077 C 
BRANCH  20  21
ATOM     21  N   UNL     1      -2.730   6.270  -3.418  0.00  0.00    +0.379 N 
ATOM     22  H   UNL     1      -2.060   6.438  -2.659  0.00  0.00    -0.082 HD
BRANCH  21  24
ATOM     23  C   UNL     1      -1.532   8.054  -4.588  0.00  0.00    -0.017 C 
ATOM     24  C   UNL     1      -2.101   6.638  -4.704  0.00  0.00    -0.082 C 
ENDBRANCH  21  24
BRANCH  21  25
ATOM     25  C   UNL     1      -3.933   7.098  -3.189  0.00  0.00    -0.082 C 
ATOM     26  C   UNL     1      -4.272   7.067  -1.697  0.00  0.00    -0.017 C 
ENDBRANCH  21  25
ENDBRANCH  20  21
ENDBRANCH  19  20
ENDBRANCH  18  19
ENDBRANCH   1  18
BRANCH   1  27
ATOM     27  C   UNL     1      -0.156   1.299  -4.116  0.00  0.00    +0.147 C 
BRANCH  27  28
ATOM     28  C   UNL     1      -0.702   0.012  -4.678  0.00  0.00    +0.035 A 
ATOM     29  C   UNL     1      -0.193  -1.175  -4.265  0.00  0.00    +0.020 A 
ATOM     30  C   UNL     1      -0.748  -2.408  -4.828  0.00  0.00    +0.002 A 
ATOM     31  C   UNL     1      -0.267  -3.662  -4.437  0.00  0.00    -0.041 A 
ATOM     32  C   UNL     1      -0.803  -4.793  -4.984  0.00  0.00    +0.007 A 
ATOM     33  C   UNL     1      -1.820  -4.709  -5.925  0.00  0.00    -0.048 A 
ATOM     34  C   UNL     1      -2.308  -3.484  -6.326  0.00  0.00    +0.029 A 
ATOM     35  C   UNL     1      -1.778  -2.319  -5.782  0.00  0.00    +0.050 A 
ATOM     36  N   UNL     1      -2.248  -1.080  -6.164  0.00  0.00    -0.322 N 
ATOM     37  H   UNL     1      -2.981  -1.019  -6.842  0.00  0.00    +0.169 HD
ATOM     38  C   UNL     1      -1.736   0.046  -5.638  0.00  0.00    +0.254 A 
ATOM     39  O   UNL     1      -2.176   1.124  -5.999  0.00  0.00    -0.268 OA
ATOM     40  C   UNL     1      -2.396  -5.971  -6.515  0.00  0.00    +0.044 C 
ATOM     41  C   UNL     1       0.837  -3.765  -3.416  0.00  0.00    +0.044 C 
ENDBRANCH  27  28
ENDBRANCH   1  27
TORSDOF 15
