REMARK  Name = ZINC37605111
REMARK  13 active torsions:
REMARK  status: ('A' for Active; 'I' for Inactive)
REMARK    1  A    between atoms: C_1  and  C_2
REMARK    2  A    between atoms: C_2  and  C_3
REMARK    3  A    between atoms: C_11  and  O_23
REMARK    4  A    between atoms: C_14  and  C_16
REMARK    5  A    between atoms: C_19  and  C_22
REMARK    6  A    between atoms: O_23  and  C_24
REMARK    7  A    between atoms: C_24  and  C_25
REMARK    8  A    between atoms: C_28  and  C_30
REMARK    9  A    between atoms: N_32  and  C_33
REMARK   10  A    between atoms: C_33  and  C_34
REMARK   11  A    between atoms: C_34  and  N_35
REMARK   12  A    between atoms: N_35  and  C_36
REMARK   13  A    between atoms: N_35  and  C_37
REMARK                            x       y       z     vdW  Elec       q    Type
REMARK                         _______ _______ _______ _____ _____    ______ ____
ROOT
ATOM      1  C   UNL     1      -1.879  -0.491  -0.944  0.00  0.00    +0.216 C 
ATOM      2  O   UNL     1      -2.898   0.157  -0.828  0.00  0.00    -0.276 OA
ATOM      3  N   UNL     1      -1.854  -1.781  -0.554  0.00  0.00    -0.290 N 
ATOM      4  C   UNL     1      -0.673  -2.628  -0.790  0.00  0.00    +0.113 C 
ATOM      5  C   UNL     1      -0.101  -3.025   0.570  0.00  0.00    +0.054 C 
ATOM      6  C   UNL     1      -1.190  -3.513   1.488  0.00  0.00    -0.040 A 
ATOM      7  C   UNL     1      -0.813  -4.296   2.574  0.00  0.00    +0.007 A 
ATOM      8  C   UNL     1      -1.756  -4.769   3.460  0.00  0.00    +0.046 A 
ATOM      9  C   UNL     1      -3.096  -4.461   3.270  0.00  0.00    +0.121 A 
ATOM     10  C   UNL     1      -3.472  -3.685   2.187  0.00  0.00    +0.051 A 
ATOM     11  C   UNL     1      -2.520  -3.215   1.294  0.00  0.00    -0.016 A 
ATOM     12  C   UNL     1      -2.998  -2.395   0.127  0.00  0.00    +0.137 C 
ENDROOT
BRANCH  12  13
ATOM     13  C   UNL     1      -3.926  -1.315   0.621  0.00  0.00    -0.023 A 
ATOM     14  C   UNL     1      -3.470  -0.370   1.520  0.00  0.00    +0.006 A 
ATOM     15  C   UNL     1      -4.322   0.621   1.973  0.00  0.00    +0.004 A 
ATOM     16  C   UNL     1      -5.629   0.665   1.526  0.00  0.00    -0.050 A 
ATOM     17  C   UNL     1      -6.085  -0.280   0.626  0.00  0.00    +0.004 A 
ATOM     18  C   UNL     1      -5.232  -1.267   0.170  0.00  0.00    +0.006 A 
ATOM     19  C   UNL     1      -6.558   1.744   2.021  0.00  0.00    +0.044 C 
ENDBRANCH  12  13
BRANCH   1  21
ATOM     20  C   UNL     1      -0.940   1.605  -1.879  0.00  0.00    +0.013 C 
ATOM     21  C   UNL     1      -0.642   0.147  -1.522  0.00  0.00    +0.092 C 
ENDBRANCH   1  21
BRANCH   9  22
ATOM     22  O   UNL     1      -4.033  -4.919   4.142  0.00  0.00    -0.484 OA
BRANCH  22  23
ATOM     23  C   UNL     1      -3.569  -5.714   5.234  0.00  0.00    +0.303 C 
BRANCH  23  24
ATOM     24  C   UNL     1      -4.740  -6.128   6.087  0.00  0.00    +0.143 A 
ATOM     25  C   UNL     1      -5.471  -7.254   5.928  0.00  0.00    +0.049 A 
ATOM     26  C   UNL     1      -6.457  -7.251   6.927  0.00  0.00    +0.055 A 
ATOM     27  C   UNL     1      -6.276  -6.110   7.654  0.00  0.00    +0.190 A 
ATOM     28  O   UNL     1      -5.225  -5.444   7.132  0.00  0.00    -0.452 OA
BRANCH  27  29
ATOM     29  C   UNL     1      -7.080  -5.685   8.805  0.00  0.00    +0.279 C 
ATOM     30  O   UNL     1      -8.005  -6.375   9.189  0.00  0.00    -0.267 OA
ATOM     31  N   UNL     1      -6.793  -4.529   9.437  0.00  0.00    -0.311 N 
ATOM     32  H   UNL     1      -6.055  -3.979   9.131  0.00  0.00    +0.149 HD
BRANCH  31  33
ATOM     33  C   UNL     1      -7.596  -4.104  10.586  0.00  0.00    +0.086 C 
BRANCH  33  34
ATOM     34  C   UNL     1      -7.065  -2.770  11.114  0.00  0.00    -0.061 C 
BRANCH  34  35
ATOM     35  N   UNL     1      -7.870  -2.344  12.267  0.00  0.00    +0.377 N 
ATOM     36  C   UNL     1      -7.689  -3.298  13.370  0.00  0.00    -0.097 C 
ATOM     37  C   UNL     1      -7.438  -1.009  12.699  0.00  0.00    -0.097 C 
ATOM     38  H   UNL     1      -8.844  -2.314  12.004  0.00  0.00    -0.083 HD
ENDBRANCH  34  35
ENDBRANCH  33  34
ENDBRANCH  31  33
ENDBRANCH  27  29
ENDBRANCH  23  24
ENDBRANCH  22  23
ENDBRANCH   9  22
TORSDOF 9
