REMARK  Name = ZINC41164249
REMARK  5 active torsions:
REMARK  status: ('A' for Active; 'I' for Inactive)
REMARK    1  A    between atoms: C_4  and  O_18
REMARK    2  A    between atoms: C_5  and  C_7
REMARK    3  A    between atoms: C_10  and  C_12
REMARK    4  A    between atoms: C_12  and  N_17
REMARK    5  A    between atoms: O_18  and  C_19
REMARK                            x       y       z     vdW  Elec       q    Type
REMARK                         _______ _______ _______ _____ _____    ______ ____
ROOT
ATOM      1  C   UNL     1       1.244  -2.166  -0.022  0.00  0.00    +0.082 A 
ATOM      2  C   UNL     1       2.421  -2.866  -0.032  0.00  0.00    +0.075 A 
ATOM      3  S   UNL     1       1.807  -4.542  -0.038  0.00  0.00    -0.081 S 
ATOM      4  C   UNL     1       0.161  -4.190  -0.027  0.00  0.00    +0.068 A 
ATOM      5  N   UNL     1       0.130  -2.883  -0.015  0.00  0.00    -0.245 NA
ENDROOT
BRANCH   1  10
ATOM      6  C   UNL     1      -0.017   1.376   0.010  0.00  0.00    +0.001 A 
ATOM      7  C   UNL     1       1.169   2.089   0.002  0.00  0.00    +0.004 A 
ATOM      8  C   UNL     1       2.382   1.425  -0.013  0.00  0.00    +0.046 A 
ATOM      9  C   UNL     1       2.415   0.041  -0.022  0.00  0.00    +0.136 A 
ATOM     10  C   UNL     1       1.218  -0.682  -0.014  0.00  0.00    +0.043 A 
ATOM     11  C   UNL     1       0.002  -0.004   0.002  0.00  0.00    +0.013 A 
BRANCH   9  12
ATOM     12  O   UNL     1       3.606  -0.613  -0.038  0.00  0.00    -0.434 OA
BRANCH  12  13
ATOM     13  C   UNL     1       4.787   0.192  -0.046  0.00  0.00    +0.541 C 
ATOM     14  F   UNL     1       4.790   1.006  -1.183  0.00  0.00    -0.166 F 
ATOM     15  F   UNL     1       4.814   0.993   1.101  0.00  0.00    -0.166 F 
ENDBRANCH  12  13
ENDBRANCH   9  12
ENDBRANCH   1  10
BRANCH   4  16
ATOM     16  C   UNL     1      -0.999  -5.152  -0.027  0.00  0.00    -0.021 C 
ATOM     17  C   UNL     1      -1.822  -4.987   1.267  0.00  0.00    -0.006 C 
ATOM     18  C   UNL     1      -2.257  -6.429   1.627  0.00  0.00    -0.001 C 
ATOM     19  C   UNL     1      -1.009  -7.266   1.250  0.00  0.00    -0.001 C 
ATOM     20  C   UNL     1      -0.482  -6.601  -0.038  0.00  0.00    -0.006 C 
BRANCH  16  21
ATOM     21  N   UNL     1      -1.851  -4.912  -1.200  0.00  0.00    +0.386 N 
ATOM     22  H   UNL     1      -1.313  -5.056  -2.041  0.00  0.00    -0.089 HD
ATOM     23  H   UNL     1      -2.631  -5.552  -1.185  0.00  0.00    -0.089 HD
ATOM     24  H   UNL     1      -2.194  -3.963  -1.179  0.00  0.00    -0.089 HD
ENDBRANCH  16  21
ENDBRANCH   4  16
TORSDOF 5
