REMARK  Name = ZINC06465594
REMARK  6 active torsions:
REMARK  status: ('A' for Active; 'I' for Inactive)
REMARK    1  A    between atoms: C_1  and  C_2
REMARK    2  A    between atoms: C_5  and  S_7
REMARK    3  A    between atoms: S_7  and  C_8
REMARK    4  A    between atoms: C_8  and  C_10
REMARK    5  A    between atoms: C_8  and  C_11
REMARK    6  A    between atoms: C_23  and  C_27
REMARK                            x       y       z     vdW  Elec       q    Type
REMARK                         _______ _______ _______ _____ _____    ______ ____
ROOT
ATOM      1  C   UNL     1      -1.220   3.240   0.030  0.00  0.00    +0.124 A 
ATOM      2  N   UNL     1      -1.183   1.883   0.018  0.00  0.00    -0.309 N 
ATOM      3  H   UNL     1      -2.041   1.370   0.016  0.00  0.00    +0.170 HD
ATOM      4  C   UNL     1      -0.015   1.215   0.009  0.00  0.00    +0.260 A 
ATOM      5  O   UNL     1       0.002  -0.004   0.002  0.00  0.00    -0.267 OA
ATOM      6  C   UNL     1       1.210   1.960   0.001  0.00  0.00    +0.075 A 
ATOM      7  C   UNL     1       2.582   1.454  -0.015  0.00  0.00    -0.023 A 
ATOM      8  C   UNL     1       3.572   2.371  -0.019  0.00  0.00    -0.004 A 
ATOM      9  S   UNL     1       2.747   3.939  -0.003  0.00  0.00    -0.073 S 
ATOM     10  C   UNL     1       1.070   3.357   0.010  0.00  0.00    +0.116 A 
ATOM     11  N   UNL     1      -0.122   3.947   0.024  0.00  0.00    -0.225 NA
ATOM     12  C   UNL     1       5.048   2.113  -0.036  0.00  0.00    +0.046 C 
ATOM     13  C   UNL     1       5.279   0.645  -0.423  0.00  0.00    -0.009 C 
ATOM     14  C   UNL     1       4.351  -0.236   0.419  0.00  0.00    +0.008 C 
ATOM     15  C   UNL     1       2.901  -0.038  -0.026  0.00  0.00    +0.037 C 
ATOM     16  C   UNL     1       6.735   0.264  -0.149  0.00  0.00    +0.008 C 
ENDROOT
BRANCH   1  17
ATOM     17  C   UNL     1      -2.553   3.944   0.046  0.00  0.00    +0.116 C 
ATOM     18  C   UNL     1      -2.958   4.301  -1.386  0.00  0.00    +0.027 C 
BRANCH  17  19
ATOM     19  S   UNL     1      -2.425   5.457   1.032  0.00  0.00    -0.086 S 
BRANCH  19  24
ATOM     20  C   UNL     1      -7.818   7.820   1.392  0.00  0.00    +0.075 C 
ATOM     21  C   UNL     1      -6.536   7.058   1.180  0.00  0.00    +0.100 A 
ATOM     22  N   UNL     1      -6.314   5.940   0.518  0.00  0.00    -0.146 NA
ATOM     23  N   UNL     1      -5.166   5.425   0.434  0.00  0.00    -0.135 NA
ATOM     24  C   UNL     1      -4.107   5.980   1.009  0.00  0.00    +0.159 A 
ATOM     25  S   UNL     1      -4.879   7.410   1.761  0.00  0.00    -0.044 S 
ENDBRANCH  19  24
ENDBRANCH  17  19
ENDBRANCH   1  17
TORSDOF 3
