REMARK  Name = ZINC08296805
REMARK  6 active torsions:
REMARK  status: ('A' for Active; 'I' for Inactive)
REMARK    1  A    between atoms: C_1  and  O_2
REMARK    2  A    between atoms: O_2  and  C_3
REMARK    3  A    between atoms: C_6  and  C_9
REMARK    4  A    between atoms: C_10  and  C_11
REMARK    5  A    between atoms: C_22  and  N_29
REMARK    6  A    between atoms: C_30  and  C_32
REMARK                            x       y       z     vdW  Elec       q    Type
REMARK                         _______ _______ _______ _____ _____    ______ ____
ROOT
ATOM      1  C   UNL     1       0.304   6.630  -0.712  0.00  0.00    -0.024 A 
ATOM      2  C   UNL     1      -0.896   6.588   0.008  0.00  0.00    +0.010 A 
ATOM      3  C   UNL     1      -1.217   5.475   0.744  0.00  0.00    +0.024 A 
ATOM      4  C   UNL     1      -0.359   4.369   0.791  0.00  0.00    +0.046 A 
ATOM      5  C   UNL     1       0.832   4.397   0.065  0.00  0.00    +0.059 A 
ATOM      6  C   UNL     1       1.162   5.536  -0.682  0.00  0.00    +0.022 A 
ATOM      7  C   UNL     1       1.779   3.272   0.036  0.00  0.00    +0.249 C 
ATOM      8  O   UNL     1       2.970   3.512   0.046  0.00  0.00    -0.270 OA
ATOM      9  N   UNL     1       1.383   1.993  -0.000  0.00  0.00    -0.284 N 
ATOM     10  C   UNL     1       2.261   0.812  -0.057  0.00  0.00    +0.111 C 
ATOM     11  C   UNL     1       1.416  -0.338   0.546  0.00  0.00    +0.043 C 
ATOM     12  C   UNL     1       0.002  -0.004   0.002  0.00  0.00    +0.104 C 
ATOM     13  C   UNL     1      -0.019   1.539   0.011  0.00  0.00    +0.183 C 
ATOM     14  C   UNL     1      -0.649   2.015   1.294  0.00  0.00    +0.240 C 
ATOM     15  O   UNL     1      -1.076   1.198   2.082  0.00  0.00    -0.273 OA
ATOM     16  N   UNL     1      -0.750   3.308   1.584  0.00  0.00    -0.283 N 
ATOM     17  H   UNL     1      -1.140   3.530   2.444  0.00  0.00    +0.155 HD
ENDROOT
BRANCH  12  18
ATOM     18  N   UNL     1      -0.163  -0.517  -1.360  0.00  0.00    -0.306 N 
ATOM     19  C   UNL     1      -0.668  -1.750  -1.560  0.00  0.00    +0.251 C 
ATOM     20  O   UNL     1      -0.987  -2.438  -0.608  0.00  0.00    -0.270 OA
ATOM     21  H   UNL     1       0.090   0.032  -2.119  0.00  0.00    +0.149 HD
BRANCH  19  22
ATOM     22  C   UNL     1      -0.834  -2.263  -2.923  0.00  0.00    +0.074 A 
ATOM     23  C   UNL     1      -1.328  -3.489  -3.341  0.00  0.00    +0.021 A 
ATOM     24  C   UNL     1      -1.376  -3.715  -4.694  0.00  0.00    +0.008 A 
ATOM     25  C   UNL     1      -0.945  -2.746  -5.544  0.00  0.00    +0.046 A 
ATOM     26  S   UNL     1      -0.459  -1.470  -4.476  0.00  0.00    -0.092 S 
ENDBRANCH  19  22
ENDBRANCH  12  18
BRANCH   1  28
ATOM     27  C   UNL     1      -0.176   8.880  -1.524  0.00  0.00    +0.008 C 
ATOM     28  C   UNL     1       0.656   7.826  -1.497  0.00  0.00    +0.008 C 
BRANCH  27  32
ATOM     29  C   UNL     1       0.838  12.326  -3.786  0.00  0.00    +0.120 A 
ATOM     30  C   UNL     1      -0.355  12.291  -3.074  0.00  0.00    +0.046 A 
ATOM     31  C   UNL     1      -0.688  11.175  -2.338  0.00  0.00    +0.011 A 
ATOM     32  C   UNL     1       0.176  10.076  -2.309  0.00  0.00    -0.025 A 
ATOM     33  C   UNL     1       1.377  10.119  -3.022  0.00  0.00    +0.011 A 
ATOM     34  C   UNL     1       1.699  11.237  -3.760  0.00  0.00    +0.046 A 
BRANCH  29  36
ATOM     35  C   UNL     1       2.403  13.399  -5.218  0.00  0.00    +0.277 C 
ATOM     36  O   UNL     1       1.162  13.429  -4.510  0.00  0.00    -0.495 OA
ENDBRANCH  29  36
ENDBRANCH  27  32
ENDBRANCH   1  28
TORSDOF 5
