REMARK  Name = ZINC39272093
REMARK  6 active torsions:
REMARK  status: ('A' for Active; 'I' for Inactive)
REMARK    1  A    between atoms: C_1  and  C_2
REMARK    2  A    between atoms: C_2  and  C_3
REMARK    3  A    between atoms: C_2  and  C_4
REMARK    4  A    between atoms: C_4  and  C_5
REMARK    5  A    between atoms: C_7  and  C_11
REMARK    6  A    between atoms: C_15  and  C_20
REMARK                            x       y       z     vdW  Elec       q    Type
REMARK                         _______ _______ _______ _____ _____    ______ ____
ROOT
ATOM      1  C   UNL     1      -4.311  -0.743  -3.720  0.00  0.00    +0.182 C 
ATOM      2  N   UNL     1      -5.034   0.016  -4.775  0.00  0.00    -0.265 N 
ATOM      3  N   UNL     1      -4.747  -0.359  -6.054  0.00  0.00    -0.219 N 
ATOM      4  C   UNL     1      -4.845   0.193  -7.328  0.00  0.00    +0.200 A 
ATOM      5  N   UNL     1      -4.436  -0.708  -8.186  0.00  0.00    -0.125 NA
ATOM      6  N   UNL     1      -4.075  -1.775  -7.564  0.00  0.00    -0.120 NA
ATOM      7  C   UNL     1      -4.225  -1.606  -6.284  0.00  0.00    +0.211 A 
ATOM      8  S   UNL     1      -4.024  -2.306  -4.657  0.00  0.00    -0.058 S 
ATOM      9  H   UNL     1      -6.030   0.006  -4.610  0.00  0.00    +0.168 HD
ENDROOT
BRANCH   4  10
ATOM     10  C   UNL     1      -5.324   1.552  -7.654  0.00  0.00    +0.109 A 
ATOM     11  C   UNL     1      -5.372   1.970  -8.985  0.00  0.00    +0.031 A 
ATOM     12  C   UNL     1      -5.823   3.245  -9.273  0.00  0.00    +0.004 A 
ATOM     13  C   UNL     1      -6.212   4.064  -8.222  0.00  0.00    +0.020 A 
ATOM     14  C   UNL     1      -6.139   3.588  -6.926  0.00  0.00    +0.111 A 
ATOM     15  N   UNL     1      -5.710   2.367  -6.677  0.00  0.00    -0.252 NA
ENDBRANCH   4  10
BRANCH   1  18
ATOM     16  C   UNL     1      -2.125  -0.137  -1.266  0.00  0.00    +0.062 C 
ATOM     17  C   UNL     1      -2.218  -0.912  -2.349  0.00  0.00    +0.029 C 
ATOM     18  C   UNL     1      -2.994  -0.063  -3.340  0.00  0.00    +0.185 C 
ATOM     19  N   UNL     1      -3.242   1.179  -2.589  0.00  0.00    -0.177 NA
ATOM     20  N   UNL     1      -2.740   1.049  -1.470  0.00  0.00    -0.159 NA
BRANCH  16  21
ATOM     21  C   UNL     1      -1.433  -0.534   0.013  0.00  0.00    +0.060 C 
BRANCH  21  23
ATOM     22  C   UNL     1      -0.019   1.526   0.010  0.00  0.00    +0.007 C 
ATOM     23  C   UNL     1       0.002  -0.004   0.002  0.00  0.00    -0.011 C 
ATOM     24  C   UNL     1       0.742  -0.511   1.242  0.00  0.00    +0.007 C 
ENDBRANCH  21  23
ENDBRANCH  16  21
ENDBRANCH   1  18
TORSDOF 4
