REMARK  Name = ZINC01382425
REMARK  11 active torsions:
REMARK  status: ('A' for Active; 'I' for Inactive)
REMARK    1  A    between atoms: C_1  and  C_2
REMARK    2  A    between atoms: C_2  and  C_3
REMARK    3  A    between atoms: C_10  and  C_15
REMARK    4  A    between atoms: C_15  and  C_17
REMARK    5  A    between atoms: C_15  and  N_28
REMARK    6  A    between atoms: N_21  and  C_22
REMARK    7  A    between atoms: C_22  and  C_23
REMARK    8  A    between atoms: N_28  and  C_29
REMARK    9  A    between atoms: N_28  and  C_36
REMARK   10  A    between atoms: C_29  and  C_30
REMARK   11  A    between atoms: C_36  and  C_37
REMARK                            x       y       z     vdW  Elec       q    Type
REMARK                         _______ _______ _______ _____ _____    ______ ____
ROOT
ATOM      1  C   UNL     1       0.400  -1.953   6.857  0.00  0.00    +0.163 C 
ENDROOT
BRANCH   1   9
ATOM      2  C   UNL     1       1.724   0.785   1.469  0.00  0.00    -0.047 A 
ATOM      3  C   UNL     1       3.104   0.691   1.581  0.00  0.00    +0.005 A 
ATOM      4  C   UNL     1       3.682   0.106   2.687  0.00  0.00    +0.026 A 
ATOM      5  C   UNL     1       2.874  -0.396   3.703  0.00  0.00    +0.049 A 
ATOM      6  C   UNL     1       1.475  -0.298   3.586  0.00  0.00    -0.001 A 
ATOM      7  C   UNL     1       0.911   0.304   2.456  0.00  0.00    +0.013 A 
ATOM      8  C   UNL     1       0.634  -0.828   4.661  0.00  0.00    +0.021 A 
ATOM      9  C   UNL     1       1.237  -1.397   5.734  0.00  0.00    +0.042 A 
ATOM     10  C   UNL     1       2.644  -1.470   5.803  0.00  0.00    +0.254 A 
ATOM     11  O   UNL     1       3.166  -1.985   6.777  0.00  0.00    -0.268 OA
ATOM     12  N   UNL     1       3.425  -0.985   4.821  0.00  0.00    -0.322 N 
ATOM     13  H   UNL     1       4.389  -1.052   4.900  0.00  0.00    +0.169 HD
BRANCH   2  15
ATOM     14  C   UNL     1       0.951   2.930   0.495  0.00  0.00    +0.009 C 
ATOM     15  C   UNL     1       1.116   1.429   0.249  0.00  0.00    +0.032 C 
ENDBRANCH   2  15
ENDBRANCH   1   9
BRANCH   1  16
ATOM     16  C   UNL     1       0.590  -3.446   6.934  0.00  0.00    +0.174 A 
ATOM     17  N   UNL     1       1.634  -4.079   7.411  0.00  0.00    -0.111 NA
ATOM     18  N   UNL     1       1.416  -5.344   7.301  0.00  0.00    -0.023 NA
ATOM     19  N   UNL     1       0.261  -5.535   6.767  0.00  0.00    -0.043 NA
ATOM     20  N   UNL     1      -0.282  -4.389   6.530  0.00  0.00    -0.220 N 
BRANCH  20  21
ATOM     21  C   UNL     1      -1.599  -4.157   5.933  0.00  0.00    +0.221 C 
BRANCH  21  22
ATOM     22  C   UNL     1      -1.462  -4.069   4.434  0.00  0.00    +0.126 A 
ATOM     23  C   UNL     1      -1.551  -5.099   3.574  0.00  0.00    +0.046 A 
ATOM     24  C   UNL     1      -1.362  -4.568   2.278  0.00  0.00    +0.041 A 
ATOM     25  C   UNL     1      -1.169  -3.245   2.423  0.00  0.00    +0.195 A 
ATOM     26  O   UNL     1      -1.237  -2.947   3.731  0.00  0.00    -0.466 OA
ENDBRANCH  21  22
ENDBRANCH  20  21
ENDBRANCH   1  16
BRANCH   1  27
ATOM     27  N   UNL     1       0.816  -1.341   8.127  0.00  0.00    -0.280 NA
BRANCH  27  28
ATOM     28  C   UNL     1       0.733   0.124   8.057  0.00  0.00    +0.122 C 
BRANCH  28  29
ATOM     29  C   UNL     1       1.523   0.726   9.190  0.00  0.00    -0.015 A 
ATOM     30  C   UNL     1       0.894   1.082  10.373  0.00  0.00    +0.008 A 
ATOM     31  C   UNL     1       1.661   1.633  11.388  0.00  0.00    +0.020 A 
ATOM     32  C   UNL     1       3.017   1.808  11.189  0.00  0.00    +0.111 A 
ATOM     33  N   UNL     1       3.582   1.457  10.050  0.00  0.00    -0.263 NA
ATOM     34  C   UNL     1       2.885   0.925   9.065  0.00  0.00    +0.115 A 
ENDBRANCH  28  29
ENDBRANCH  27  28
BRANCH  27  35
ATOM     35  C   UNL     1       0.020  -1.861   9.247  0.00  0.00    +0.122 C 
BRANCH  35  36
ATOM     36  C   UNL     1       0.530  -3.224   9.636  0.00  0.00    -0.015 A 
ATOM     37  C   UNL     1      -0.250  -4.343   9.415  0.00  0.00    +0.006 A 
ATOM     38  C   UNL     1       0.218  -5.594   9.772  0.00  0.00    +0.000 A 
ATOM     39  C   UNL     1       1.467  -5.726  10.350  0.00  0.00    +0.001 A 
ATOM     40  C   UNL     1       2.248  -4.608  10.572  0.00  0.00    +0.020 A 
ATOM     41  C   UNL     1       1.782  -3.356  10.209  0.00  0.00    +0.045 A 
ATOM     42 CL   UNL     1       2.766  -1.952  10.481  0.00  0.00    -0.083 Cl
ENDBRANCH  35  36
ENDBRANCH  27  35
ENDBRANCH   1  27
TORSDOF 10
