REMARK  Name = ZINC52094744
REMARK  8 active torsions:
REMARK  status: ('A' for Active; 'I' for Inactive)
REMARK    1  A    between atoms: C_1  and  O_2
REMARK    2  A    between atoms: O_2  and  C_3
REMARK    3  A    between atoms: C_3  and  C_5
REMARK    4  A    between atoms: C_5  and  C_6
REMARK    5  A    between atoms: C_6  and  C_7
REMARK    6  A    between atoms: C_7  and  C_8
REMARK    7  A    between atoms: C_8  and  C_10
REMARK    8  A    between atoms: C_8  and  N_23
REMARK                            x       y       z     vdW  Elec       q    Type
REMARK                         _______ _______ _______ _____ _____    ______ ____
ROOT
ATOM      1  C   UNL     1       2.340  -5.962  -3.775  0.00  0.00    -0.046 A 
ATOM      2  C   UNL     1       1.480  -6.742  -4.524  0.00  0.00    +0.031 A 
ATOM      3  C   UNL     1       1.635  -8.119  -4.540  0.00  0.00    +0.067 A 
ATOM      4  C   UNL     1       2.658  -8.713  -3.799  0.00  0.00    +0.068 A 
ATOM      5  C   UNL     1       3.516  -7.923  -3.050  0.00  0.00    +0.043 A 
ATOM      6  C   UNL     1       3.358  -6.550  -3.044  0.00  0.00    +0.022 A 
ATOM      7 BR   UNL     1       4.534  -5.471  -2.029  0.00  0.00    -0.050 Br
ATOM      8  N   UNL     1       2.563 -10.087  -4.010  0.00  0.00    -0.306 N 
ATOM      9  H   UNL     1       3.142 -10.762  -3.623  0.00  0.00    +0.170 HD
ATOM     10  C   UNL     1       1.529 -10.318  -4.841  0.00  0.00    +0.325 A 
ATOM     11  O   UNL     1       1.172 -11.415  -5.227  0.00  0.00    -0.247 OA
ATOM     12  N   UNL     1       0.949  -9.150  -5.178  0.00  0.00    -0.306 N 
ATOM     13  H   UNL     1       0.184  -9.046  -5.766  0.00  0.00    +0.170 HD
ENDROOT
BRANCH   1  14
ATOM     14  C   UNL     1       2.172  -4.464  -3.758  0.00  0.00    -0.043 C 
BRANCH  14  15
ATOM     15  N   UNL     1       1.386  -4.046  -4.926  0.00  0.00    +0.383 N 
ATOM     16  H   UNL     1       1.274  -3.043  -4.914  0.00  0.00    -0.089 HD
ATOM     17  H   UNL     1       1.866  -4.321  -5.770  0.00  0.00    -0.089 HD
ATOM     18  H   UNL     1       0.479  -4.486  -4.896  0.00  0.00    -0.089 HD
ENDBRANCH  14  15
BRANCH  14  19
ATOM     19  C   UNL     1       1.445  -4.047  -2.478  0.00  0.00    -0.011 C 
BRANCH  19  20
ATOM     20  C   UNL     1       1.385  -2.521  -2.400  0.00  0.00    +0.010 C 
BRANCH  20  21
ATOM     21  C   UNL     1       0.657  -2.104  -1.120  0.00  0.00    +0.120 C 
BRANCH  21  22
ATOM     22  C   UNL     1       0.598  -0.600  -1.043  0.00  0.00    +0.307 C 
ATOM     23  O   UNL     1       1.088   0.070  -1.921  0.00  0.00    -0.251 OA
BRANCH  22  25
ATOM     24  C   UNL     1      -0.017   1.425   0.010  0.00  0.00    +0.280 C 
ATOM     25  O   UNL     1       0.002  -0.004   0.002  0.00  0.00    -0.468 OA
ENDBRANCH  22  25
ENDBRANCH  21  22
ENDBRANCH  20  21
ENDBRANCH  19  20
ENDBRANCH  14  19
ENDBRANCH   1  14
TORSDOF 7
