REMARK  Name = ZINC09483470
REMARK  6 active torsions:
REMARK  status: ('A' for Active; 'I' for Inactive)
REMARK    1  A    between atoms: C_1  and  C_2
REMARK    2  A    between atoms: C_2  and  C_4
REMARK    3  A    between atoms: C_2  and  S_17
REMARK    4  A    between atoms: N_6  and  C_7
REMARK    5  A    between atoms: C_10  and  N_14
REMARK    6  A    between atoms: S_17  and  C_18
REMARK                            x       y       z     vdW  Elec       q    Type
REMARK                         _______ _______ _______ _____ _____    ______ ____
ROOT
ATOM      1  C   UNL     1      -0.008   1.543   0.026  0.00  0.00    +0.029 C 
ATOM      2  C   UNL     1       0.007   0.013   0.006  0.00  0.00    +0.137 C 
ENDROOT
BRANCH   2   3
ATOM      3  C   UNL     1       0.733  -0.497   1.225  0.00  0.00    +0.230 C 
ATOM      4  O   UNL     1       1.912  -0.773   1.157  0.00  0.00    -0.274 OA
ATOM      5  N   UNL     1       0.071  -0.647   2.389  0.00  0.00    -0.283 N 
ATOM      6  H   UNL     1      -0.854  -0.366   2.461  0.00  0.00    +0.155 HD
BRANCH   5   7
ATOM      7  C   UNL     1       0.720  -1.209   3.495  0.00  0.00    +0.052 A 
ATOM      8  C   UNL     1       2.071  -0.968   3.706  0.00  0.00    +0.027 A 
ATOM      9  C   UNL     1       2.709  -1.523   4.798  0.00  0.00    +0.034 A 
ATOM     10  C   UNL     1       2.003  -2.319   5.683  0.00  0.00    +0.128 A 
ATOM     11  C   UNL     1       0.657  -2.561   5.476  0.00  0.00    +0.054 A 
ATOM     12  C   UNL     1       0.012  -2.005   4.388  0.00  0.00    +0.064 A 
ATOM     13 CL   UNL     1      -1.679  -2.303   4.134  0.00  0.00    -0.082 Cl
BRANCH  10  14
ATOM     14  N   UNL     1       2.690  -2.912   6.852  0.00  0.00    +0.056 N 
ATOM     15  O   UNL     1       3.866  -2.701   7.033  0.00  0.00    -0.126 OA
ATOM     16  O   UNL     1       2.074  -3.608   7.625  0.00  0.00    -0.126 OA
ENDBRANCH  10  14
ENDBRANCH   5   7
ENDBRANCH   2   3
BRANCH   2  17
ATOM     17  S   UNL     1       0.856  -0.565  -1.489  0.00  0.00    -0.075 S 
BRANCH  17  18
ATOM     18  C   UNL     1      -0.181  -0.020  -2.805  0.00  0.00    +0.168 A 
ATOM     19  N   UNL     1       0.058  -0.234  -4.133  0.00  0.00    -0.333 N 
ATOM     20  H   UNL     1       0.815  -0.707  -4.513  0.00  0.00    +0.168 HD
ATOM     21  C   UNL     1      -0.985   0.347  -4.837  0.00  0.00    +0.068 A 
ATOM     22  C   UNL     1      -1.292   0.455  -6.185  0.00  0.00    +0.047 A 
ATOM     23  C   UNL     1      -2.438   1.116  -6.577  0.00  0.00    +0.043 A 
ATOM     24  C   UNL     1      -3.287   1.673  -5.631  0.00  0.00    +0.022 A 
ATOM     25  C   UNL     1      -2.997   1.575  -4.288  0.00  0.00    +0.031 A 
ATOM     26  C   UNL     1      -1.840   0.909  -3.875  0.00  0.00    +0.090 A 
ATOM     27  N   UNL     1      -1.299   0.648  -2.656  0.00  0.00    -0.222 NA
ATOM     28 CL   UNL     1      -2.822   1.251  -8.265  0.00  0.00    -0.083 Cl
ENDBRANCH  17  18
ENDBRANCH   2  17
TORSDOF 5
