REMARK  Name = ZINC25155297
REMARK  10 active torsions:
REMARK  status: ('A' for Active; 'I' for Inactive)
REMARK    1  A    between atoms: C_1  and  C_2
REMARK    2  A    between atoms: C_3  and  C_16
REMARK    3  A    between atoms: C_4  and  C_15
REMARK    4  A    between atoms: C_9  and  C_11
REMARK    5  A    between atoms: C_16  and  C_17
REMARK    6  A    between atoms: C_17  and  C_18
REMARK    7  A    between atoms: N_20  and  C_21
REMARK    8  A    between atoms: C_21  and  C_22
REMARK    9  A    between atoms: C_22  and  C_24
REMARK   10  A    between atoms: C_22  and  N_29
REMARK                            x       y       z     vdW  Elec       q    Type
REMARK                         _______ _______ _______ _____ _____    ______ ____
ROOT
ATOM      1  C   UNL     1       2.617  -3.357  -0.917  0.00  0.00    +0.100 C 
ENDROOT
BRANCH   1   2
ATOM      2  C   UNL     1       2.423  -4.826  -1.193  0.00  0.00    +0.213 C 
ATOM      3  O   UNL     1       2.670  -5.643  -0.331  0.00  0.00    -0.276 OA
ATOM      4  N   UNL     1       1.974  -5.232  -2.397  0.00  0.00    -0.316 N 
ATOM      5  H   UNL     1       1.750  -4.492  -3.179  0.00  0.00    +0.149 HD
BRANCH   4   6
ATOM      6  C   UNL     1       1.785  -6.660  -2.665  0.00  0.00    +0.096 C 
BRANCH   6   7
ATOM      7  C   UNL     1       1.273  -6.847  -4.095  0.00  0.00    +0.016 C 
BRANCH   7   8
ATOM      8  N   UNL     1       2.192  -6.192  -5.034  0.00  0.00    +0.387 N 
ATOM      9  C   UNL     1       3.591  -6.641  -4.812  0.00  0.00    -0.078 C 
ATOM     10  C   UNL     1       4.291  -6.298  -6.150  0.00  0.00    -0.020 C 
ATOM     11  C   UNL     1       3.203  -6.615  -7.201  0.00  0.00    -0.020 C 
ATOM     12  C   UNL     1       1.870  -6.555  -6.431  0.00  0.00    -0.078 C 
ATOM     13  H   UNL     1       2.077  -5.112  -4.861  0.00  0.00    -0.081 HD
ENDBRANCH   7   8
BRANCH   7  14
ATOM     14  C   UNL     1       1.195  -8.319  -4.412  0.00  0.00    +0.093 A 
ATOM     15  C   UNL     1       0.066  -9.042  -4.517  0.00  0.00    +0.043 A 
ATOM     16  C   UNL     1       0.455 -10.366  -4.824  0.00  0.00    +0.041 A 
ATOM     17  C   UNL     1       1.798 -10.373  -4.888  0.00  0.00    +0.195 A 
ATOM     18  O   UNL     1       2.241  -9.129  -4.643  0.00  0.00    -0.469 OA
ENDBRANCH   7  14
ENDBRANCH   6   7
ENDBRANCH   4   6
ENDBRANCH   1   2
BRANCH   1  19
ATOM     19  C   UNL     1       3.130  -3.170   0.512  0.00  0.00    +0.048 C 
BRANCH  19  22
ATOM     20  C   UNL     1       0.949  -1.582   1.609  0.00  0.00    +0.066 C 
ATOM     21  C   UNL     1       2.278  -0.935   1.315  0.00  0.00    +0.047 A 
ATOM     22  C   UNL     1       3.324  -1.702   0.787  0.00  0.00    -0.005 A 
ATOM     23  C   UNL     1       4.517  -1.106   0.527  0.00  0.00    +0.048 A 
ATOM     24  N   UNL     1       4.662   0.221   0.787  0.00  0.00    -0.200 N 
ATOM     25  C   UNL     1       3.620   0.940   1.302  0.00  0.00    +0.254 A 
ATOM     26  N   UNL     1       2.449   0.345   1.555  0.00  0.00    -0.216 NA
ATOM     27  N   UNL     1       4.042   2.191   1.452  0.00  0.00    -0.186 NA
ATOM     28  C   UNL     1       5.303   2.289   1.053  0.00  0.00    +0.257 A 
ATOM     29  N   UNL     1       5.727   1.118   0.640  0.00  0.00    -0.139 NA
ATOM     30  C   UNL     1       5.662  -1.904  -0.041  0.00  0.00    +0.066 C 
BRANCH  28  31
ATOM     31  C   UNL     1       6.124   3.553   1.072  0.00  0.00    +0.454 C 
ATOM     32  F   UNL     1       5.717   4.388   0.026  0.00  0.00    -0.163 F 
ATOM     33  F   UNL     1       5.940   4.210   2.293  0.00  0.00    -0.163 F 
ATOM     34  F   UNL     1       7.477   3.233   0.913  0.00  0.00    -0.163 F 
ENDBRANCH  28  31
ENDBRANCH  19  22
ENDBRANCH   1  19
TORSDOF 8
