REMARK  Name = ZINC25074418
REMARK  7 active torsions:
REMARK  status: ('A' for Active; 'I' for Inactive)
REMARK    1  A    between atoms: C_1  and  C_2
REMARK    2  A    between atoms: C_2  and  N_3
REMARK    3  A    between atoms: N_3  and  C_4
REMARK    4  A    between atoms: N_3  and  C_14
REMARK    5  A    between atoms: C_4  and  C_5
REMARK    6  A    between atoms: C_14  and  C_15
REMARK    7  A    between atoms: C_28  and  C_30
REMARK                            x       y       z     vdW  Elec       q    Type
REMARK                         _______ _______ _______ _____ _____    ______ ____
ROOT
ATOM      1  C   UNL     1       2.387   0.714   0.365  0.00  0.00    +0.204 C 
ATOM      2  O   UNL     1       2.174  -0.356   0.895  0.00  0.00    -0.277 OA
ATOM      3  N   UNL     1       1.370   1.411  -0.179  0.00  0.00    -0.259 N 
ATOM      4  C   UNL     1       1.602   2.649  -0.795  0.00  0.00    +0.058 A 
ATOM      5  C   UNL     1       1.907   3.768  -0.038  0.00  0.00    +0.025 A 
ATOM      6  C   UNL     1       2.110   4.986  -0.662  0.00  0.00    +0.002 A 
ATOM      7  C   UNL     1       2.006   5.091  -2.037  0.00  0.00    +0.002 A 
ATOM      8  C   UNL     1       1.710   3.976  -2.800  0.00  0.00    +0.025 A 
ATOM      9  C   UNL     1       1.517   2.751  -2.184  0.00  0.00    +0.055 A 
ATOM     10  N   UNL     1       1.272   1.598  -2.939  0.00  0.00    -0.284 N 
ATOM     11  C   UNL     1       0.261   0.765  -2.609  0.00  0.00    +0.219 C 
ATOM     12  O   UNL     1       0.110  -0.271  -3.220  0.00  0.00    -0.275 OA
ATOM     13  C   UNL     1      -0.680   1.115  -1.487  0.00  0.00    +0.128 C 
ATOM     14  C   UNL     1       0.003   0.889  -0.137  0.00  0.00    +0.194 C 
ATOM     15  H   UNL     1       1.904   1.366  -3.809  0.00  0.00    +0.155 HD
ENDROOT
BRANCH  14  16
ATOM     16  C   UNL     1      -0.785   1.613   0.957  0.00  0.00    +0.409 C 
ATOM     17  F   UNL     1      -0.819   2.984   0.678  0.00  0.00    -0.169 F 
ATOM     18  F   UNL     1      -2.091   1.113   1.000  0.00  0.00    -0.169 F 
ATOM     19  F   UNL     1      -0.164   1.405   2.193  0.00  0.00    -0.169 F 
ENDBRANCH  14  16
BRANCH   1  20
ATOM     20  C   UNL     1       3.789   1.264   0.314  0.00  0.00    +0.020 C 
BRANCH  20  21
ATOM     21  N   UNL     1       4.727   0.265   0.844  0.00  0.00    +0.388 N 
ATOM     22  H   UNL     1       4.271  -0.185   1.738  0.00  0.00    -0.081 HD
BRANCH  21  24
ATOM     23  C   UNL     1       5.797   1.619   2.581  0.00  0.00    -0.017 C 
ATOM     24  C   UNL     1       5.992   0.892   1.249  0.00  0.00    -0.081 C 
ENDBRANCH  21  24
BRANCH  21  25
ATOM     25  C   UNL     1       4.960  -0.807  -0.133  0.00  0.00    -0.042 C 
BRANCH  25  26
ATOM     26  C   UNL     1       5.722  -1.929   0.524  0.00  0.00    -0.060 A 
ATOM     27  C   UNL     1       7.104  -1.930   0.502  0.00  0.00    +0.005 A 
ATOM     28  C   UNL     1       7.808  -2.954   1.109  0.00  0.00    +0.050 A 
ATOM     29  C   UNL     1       7.128  -3.988   1.731  0.00  0.00    +0.166 A 
ATOM     30  C   UNL     1       5.736  -3.990   1.749  0.00  0.00    +0.166 A 
ATOM     31  C   UNL     1       5.037  -2.957   1.144  0.00  0.00    +0.051 A 
ATOM     32  O   UNL     1       5.309  -5.102   2.415  0.00  0.00    -0.453 OA
ATOM     33  C   UNL     1       6.444  -5.989   2.448  0.00  0.00    +0.466 C 
ATOM     34  O   UNL     1       7.574  -5.099   2.386  0.00  0.00    -0.453 OA
ENDBRANCH  25  26
ENDBRANCH  21  25
ENDBRANCH  20  21
ENDBRANCH   1  20
TORSDOF 6
