REMARK  Name = ZINC63375066
REMARK  13 active torsions:
REMARK  status: ('A' for Active; 'I' for Inactive)
REMARK    1  A    between atoms: C_1  and  C_2
REMARK    2  A    between atoms: C_2  and  C_3
REMARK    3  A    between atoms: C_3  and  O_4
REMARK    4  A    between atoms: O_4  and  C_5
REMARK    5  A    between atoms: C_8  and  C_14
REMARK    6  A    between atoms: C_10  and  O_11
REMARK    7  A    between atoms: O_11  and  C_12
REMARK    8  A    between atoms: C_12  and  C_13
REMARK    9  A    between atoms: N_21  and  C_36
REMARK   10  A    between atoms: C_24  and  C_35
REMARK   11  A    between atoms: C_36  and  C_37
REMARK   12  A    between atoms: C_37  and  O_38
REMARK   13  A    between atoms: O_38  and  C_39
REMARK                            x       y       z     vdW  Elec       q    Type
REMARK                         _______ _______ _______ _____ _____    ______ ____
ROOT
ATOM      1  C   UNL     1      -6.403  -4.585   0.038  0.00  0.00    +0.065 C 
ATOM      2  C   UNL     1      -7.227  -4.162  -1.191  0.00  0.00    +0.121 C 
ATOM      3  N   UNL     1      -7.700  -2.776  -1.007  0.00  0.00    -0.283 N 
ATOM      4  C   UNL     1      -7.339  -1.862  -1.915  0.00  0.00    +0.234 C 
ATOM      5  O   UNL     1      -6.622  -2.226  -2.823  0.00  0.00    -0.274 OA
ATOM      6  C   UNL     1      -7.753  -0.429  -1.893  0.00  0.00    +0.203 C 
ATOM      7  N   UNL     1      -8.617  -0.124  -0.764  0.00  0.00    -0.289 N 
ATOM      8  C   UNL     1      -8.973  -1.021   0.153  0.00  0.00    +0.242 C 
ATOM      9  O   UNL     1      -9.700  -0.654   1.052  0.00  0.00    -0.273 OA
ATOM     10  C   UNL     1      -8.537  -2.449   0.149  0.00  0.00    +0.135 C 
ATOM     11  C   UNL     1      -7.741  -2.758   1.421  0.00  0.00    +0.139 C 
ATOM     12  C   UNL     1      -7.193  -4.173   1.255  0.00  0.00    -0.027 C 
ATOM     13  C   UNL     1      -7.575  -4.852   2.329  0.00  0.00    -0.000 A 
ATOM     14  C   UNL     1      -7.271  -6.218   2.785  0.00  0.00    +0.010 A 
ATOM     15  C   UNL     1      -7.862  -6.609   3.945  0.00  0.00    +0.001 A 
ATOM     16  C   UNL     1      -8.716  -5.787   4.688  0.00  0.00    +0.002 A 
ATOM     17  C   UNL     1      -9.044  -4.515   4.348  0.00  0.00    +0.026 A 
ATOM     18  C   UNL     1      -8.475  -3.988   3.153  0.00  0.00    +0.043 A 
ATOM     19  N   UNL     1      -8.590  -2.782   2.612  0.00  0.00    -0.375 N 
ATOM     20  C   UNL     1      -9.777  -3.345   0.131  0.00  0.00    +0.044 C 
ATOM     21  H   UNL     1      -9.136  -2.049   2.935  0.00  0.00    +0.160 HD
ENDROOT
BRANCH   1  25
ATOM     22  C   UNL     1      -2.617  -2.596   0.013  0.00  0.00    +0.162 A 
ATOM     23  C   UNL     1      -3.790  -1.859   0.022  0.00  0.00    +0.050 A 
ATOM     24  C   UNL     1      -5.013  -2.505   0.030  0.00  0.00    +0.008 A 
ATOM     25  C   UNL     1      -5.068  -3.886   0.029  0.00  0.00    -0.035 A 
ATOM     26  C   UNL     1      -3.901  -4.628   0.020  0.00  0.00    +0.053 A 
ATOM     27  C   UNL     1      -2.673  -3.987   0.006  0.00  0.00    +0.162 A 
BRANCH  22  28
ATOM     28  O   UNL     1      -1.414  -1.962   0.005  0.00  0.00    -0.488 OA
BRANCH  28  29
ATOM     29  C   UNL     1      -1.433  -0.534   0.013  0.00  0.00    +0.229 C 
BRANCH  29  31
ATOM     30  C   UNL     1      -0.019   1.526   0.010  0.00  0.00    +0.007 C 
ATOM     31  C   UNL     1       0.002  -0.004   0.002  0.00  0.00    +0.038 C 
ENDBRANCH  29  31
ENDBRANCH  28  29
ENDBRANCH  22  28
BRANCH  27  32
ATOM     32  O   UNL     1      -1.524  -4.715  -0.009  0.00  0.00    -0.489 OA
BRANCH  32  33
ATOM     33  C   UNL     1      -1.658  -6.138  -0.015  0.00  0.00    +0.226 C 
ATOM     34  C   UNL     1      -0.270  -6.780  -0.032  0.00  0.00    +0.048 C 
ENDBRANCH  32  33
ENDBRANCH  27  32
ENDBRANCH   1  25
BRANCH   7  35
ATOM     35  C   UNL     1      -9.121   1.244  -0.628  0.00  0.00    +0.136 C 
BRANCH  35  36
ATOM     36  C   UNL     1     -10.453   1.373  -1.370  0.00  0.00    +0.178 C 
BRANCH  36  37
ATOM     37  O   UNL     1     -11.432   0.544  -0.740  0.00  0.00    -0.381 OA
ATOM     38  C   UNL     1     -12.719   0.591  -1.358  0.00  0.00    +0.194 C 
ENDBRANCH  36  37
ENDBRANCH  35  36
ENDBRANCH   7  35
TORSDOF 9
