REMARK  Name = ZINC03378667
REMARK  13 active torsions:
REMARK  status: ('A' for Active; 'I' for Inactive)
REMARK    1  A    between atoms: C_1  and  C_2
REMARK    2  A    between atoms: C_2  and  C_3
REMARK    3  A    between atoms: C_3  and  C_4
REMARK    4  A    between atoms: C_4  and  N_5
REMARK    5  A    between atoms: N_5  and  C_6
REMARK    6  A    between atoms: C_7  and  N_22
REMARK    7  A    between atoms: N_8  and  C_15
REMARK    8  A    between atoms: C_15  and  C_16
REMARK    9  A    between atoms: C_23  and  C_25
REMARK   10  A    between atoms: C_25  and  S_26
REMARK   11  A    between atoms: S_26  and  C_27
REMARK   12  A    between atoms: C_30  and  C_33
REMARK   13  A    between atoms: N_31  and  C_32
REMARK                            x       y       z     vdW  Elec       q    Type
REMARK                         _______ _______ _______ _____ _____    ______ ____
ROOT
ATOM      1  N   UNL     1      -3.054  -2.688   0.051  0.00  0.00    -0.264 N 
ATOM      2  C   UNL     1      -3.534  -3.072   1.252  0.00  0.00    +0.230 C 
ATOM      3  O   UNL     1      -4.612  -3.624   1.327  0.00  0.00    -0.274 OA
ENDROOT
BRANCH   1   4
ATOM      4  C   UNL     1      -3.853  -2.824  -1.104  0.00  0.00    +0.140 A 
ATOM      5  C   UNL     1      -3.493  -3.701  -2.107  0.00  0.00    +0.128 A 
ATOM      6  N   UNL     1      -4.293  -3.812  -3.221  0.00  0.00    -0.276 N 
ATOM      7  C   UNL     1      -5.412  -3.074  -3.332  0.00  0.00    +0.331 A 
ATOM      8  O   UNL     1      -6.105  -3.186  -4.325  0.00  0.00    -0.246 OA
ATOM      9  N   UNL     1      -5.779  -2.215  -2.365  0.00  0.00    -0.273 N 
ATOM     10  H   UNL     1      -6.591  -1.694  -2.468  0.00  0.00    +0.173 HD
ATOM     11  C   UNL     1      -5.034  -2.073  -1.251  0.00  0.00    +0.277 A 
ATOM     12  O   UNL     1      -5.379  -1.294  -0.377  0.00  0.00    -0.266 OA
BRANCH   5  13
ATOM     13  N   UNL     1      -2.349  -4.454  -1.995  0.00  0.00    -0.343 N 
ATOM     14  H   UNL     1      -1.755  -4.324  -1.239  0.00  0.00    +0.144 HD
ATOM     15  H   UNL     1      -2.136  -5.116  -2.671  0.00  0.00    +0.144 HD
ENDBRANCH   5  13
BRANCH   6  16
ATOM     16  C   UNL     1      -3.922  -4.739  -4.294  0.00  0.00    +0.163 C 
BRANCH  16  17
ATOM     17  C   UNL     1      -4.538  -6.088  -4.026  0.00  0.00    -0.028 A 
ATOM     18  C   UNL     1      -3.847  -7.027  -3.284  0.00  0.00    +0.005 A 
ATOM     19  C   UNL     1      -4.412  -8.265  -3.038  0.00  0.00    +0.000 A 
ATOM     20  C   UNL     1      -5.667  -8.563  -3.535  0.00  0.00    +0.000 A 
ATOM     21  C   UNL     1      -6.357  -7.624  -4.277  0.00  0.00    +0.000 A 
ATOM     22  C   UNL     1      -5.795  -6.384  -4.519  0.00  0.00    +0.005 A 
ENDBRANCH  16  17
ENDBRANCH   6  16
ENDBRANCH   1   4
BRANCH   1  23
ATOM     23  C   UNL     1      -1.704  -2.129  -0.055  0.00  0.00    +0.114 C 
BRANCH  23  24
ATOM     24  C   UNL     1      -1.778  -0.602   0.003  0.00  0.00    +0.019 C 
BRANCH  24  26
ATOM     25  C   UNL     1      -0.442   1.508  -0.049  0.00  0.00    +0.004 C 
ATOM     26  C   UNL     1      -0.368  -0.019  -0.107  0.00  0.00    -0.002 C 
ENDBRANCH  24  26
ENDBRANCH  23  24
ENDBRANCH   1  23
BRANCH   2  27
ATOM     27  C   UNL     1      -2.730  -2.816   2.501  0.00  0.00    +0.173 C 
BRANCH  27  28
ATOM     28  S   UNL     1      -3.636  -3.443   3.942  0.00  0.00    -0.077 S 
BRANCH  28  29
ATOM     29  C   UNL     1      -2.580  -3.073   5.303  0.00  0.00    +0.192 A 
ATOM     30  N   UNL     1      -1.413  -2.472   5.244  0.00  0.00    -0.122 NA
ATOM     31  N   UNL     1      -0.913  -2.362   6.422  0.00  0.00    -0.128 NA
ATOM     32  C   UNL     1      -1.729  -2.886   7.306  0.00  0.00    +0.165 A 
ATOM     33  N   UNL     1      -2.825  -3.352   6.617  0.00  0.00    -0.305 N 
ATOM     34  C   UNL     1      -4.007  -4.013   7.177  0.00  0.00    +0.153 C 
BRANCH  32  35
ATOM     35  C   UNL     1      -1.514  -2.956   8.767  0.00  0.00    +0.019 A 
ATOM     36  C   UNL     1      -2.253  -3.853   9.542  0.00  0.00    +0.011 A 
ATOM     37  C   UNL     1      -2.047  -3.914  10.905  0.00  0.00    +0.001 A 
ATOM     38  C   UNL     1      -1.112  -3.089  11.504  0.00  0.00    +0.000 A 
ATOM     39  C   UNL     1      -0.377  -2.198  10.742  0.00  0.00    +0.001 A 
ATOM     40  C   UNL     1      -0.569  -2.131   9.377  0.00  0.00    +0.011 A 
ENDBRANCH  32  35
ENDBRANCH  28  29
ENDBRANCH  27  28
ENDBRANCH   2  27
TORSDOF 11
