REMARK  Name = ZINC45626453
REMARK  5 active torsions:
REMARK  status: ('A' for Active; 'I' for Inactive)
REMARK    1  A    between atoms: C_1  and  C_2
REMARK    2  A    between atoms: C_2  and  C_19
REMARK    3  A    between atoms: C_4  and  N_6
REMARK    4  A    between atoms: C_7  and  C_11
REMARK    5  A    between atoms: C_13  and  N_18
REMARK                            x       y       z     vdW  Elec       q    Type
REMARK                         _______ _______ _______ _____ _____    ______ ____
ROOT
ATOM      1  N   UNL     1       1.311   0.166   2.175  0.00  0.00    -0.221 N 
ATOM      2  C   UNL     1       2.584   0.120   2.639  0.00  0.00    +0.183 A 
ATOM      3  N   UNL     1       2.675   1.009   3.606  0.00  0.00    -0.108 NA
ATOM      4  N   UNL     1       1.550   1.604   3.776  0.00  0.00    -0.023 NA
ATOM      5  N   UNL     1       0.673   1.154   2.945  0.00  0.00    -0.043 NA
ENDROOT
BRANCH   2   6
ATOM      6  C   UNL     1       3.668  -0.762   2.151  0.00  0.00    +0.036 A 
ATOM      7  C   UNL     1       3.913  -0.878   0.784  0.00  0.00    +0.035 A 
ATOM      8  C   UNL     1       4.929  -1.706   0.334  0.00  0.00    +0.025 A 
ATOM      9  C   UNL     1       5.701  -2.419   1.245  0.00  0.00    +0.024 A 
ATOM     10  C   UNL     1       5.458  -2.304   2.600  0.00  0.00    +0.018 A 
ATOM     11  C   UNL     1       4.451  -1.477   3.059  0.00  0.00    +0.029 A 
ATOM     12 BR   UNL     1       4.129  -1.318   4.915  0.00  0.00    -0.050 Br
BRANCH   8  13
ATOM     13  N   UNL     1       5.179  -1.826  -1.036  0.00  0.00    -0.358 N 
ATOM     14  H   UNL     1       4.641  -1.329  -1.672  0.00  0.00    +0.142 HD
ATOM     15  H   UNL     1       5.890  -2.405  -1.351  0.00  0.00    +0.142 HD
ENDBRANCH   8  13
ENDBRANCH   2   6
BRANCH   1  19
ATOM     16  C   UNL     1       0.507   1.608  -0.226  0.00  0.00    +0.013 C 
ATOM     17  C   UNL     1       0.296   0.093  -0.175  0.00  0.00    -0.010 C 
ATOM     18  C   UNL     1      -0.760  -0.440   0.796  0.00  0.00    +0.036 C 
ATOM     19  C   UNL     1       0.727  -0.638   1.098  0.00  0.00    +0.117 C 
ATOM     20  C   UNL     1       0.469  -0.642  -1.505  0.00  0.00    +0.013 C 
ENDBRANCH   1  19
TORSDOF 3
