REMARK  Name = ZINC01892773
REMARK  8 active torsions:
REMARK  status: ('A' for Active; 'I' for Inactive)
REMARK    1  A    between atoms: C_1  and  C_2
REMARK    2  A    between atoms: C_2  and  C_3
REMARK    3  A    between atoms: C_3  and  C_4
REMARK    4  A    between atoms: C_4  and  C_5
REMARK    5  A    between atoms: C_8  and  N_11
REMARK    6  A    between atoms: C_12  and  C_14
REMARK    7  A    between atoms: C_14  and  N_15
REMARK    8  A    between atoms: C_26  and  C_30
REMARK                            x       y       z     vdW  Elec       q    Type
REMARK                         _______ _______ _______ _____ _____    ______ ____
ROOT
ATOM      1  C   UNL     1       2.295   5.673   0.225  0.00  0.00    +0.245 C 
ENDROOT
BRANCH   1   2
ATOM      2  N   UNL     1       3.668   6.178   0.312  0.00  0.00    -0.201 N 
ATOM      3  C   UNL     1       4.330   6.501  -0.815  0.00  0.00    +0.279 A 
ATOM      4  O   UNL     1       3.799   6.378  -1.905  0.00  0.00    -0.265 OA
ATOM      5  C   UNL     1       5.675   6.994  -0.709  0.00  0.00    +0.079 A 
ATOM      6  C   UNL     1       6.574   7.401  -1.786  0.00  0.00    -0.023 A 
ATOM      7  C   UNL     1       7.803   7.834  -1.428  0.00  0.00    -0.004 A 
ATOM      8  S   UNL     1       7.830   7.724   0.341  0.00  0.00    -0.071 S 
ATOM      9  C   UNL     1       6.188   7.096   0.593  0.00  0.00    +0.138 A 
ATOM     10  N   UNL     1       5.481   6.759   1.667  0.00  0.00    -0.123 NA
ATOM     11  N   UNL     1       4.273   6.322   1.564  0.00  0.00    -0.061 NA
ATOM     12  C   UNL     1       8.900   8.302  -2.334  0.00  0.00    +0.046 C 
ATOM     13  C   UNL     1       8.559   7.871  -3.768  0.00  0.00    -0.009 C 
ATOM     14  C   UNL     1       7.104   8.246  -4.062  0.00  0.00    +0.008 C 
ATOM     15  C   UNL     1       6.163   7.350  -3.255  0.00  0.00    +0.037 C 
ATOM     16  C   UNL     1       9.486   8.588  -4.753  0.00  0.00    +0.008 C 
ENDBRANCH   1   2
BRANCH   1  18
ATOM     17  N   UNL     1       1.162   3.485   0.009  0.00  0.00    -0.284 N 
ATOM     18  C   UNL     1       2.318   4.171   0.104  0.00  0.00    +0.239 C 
ATOM     19  O   UNL     1       3.377   3.580   0.091  0.00  0.00    -0.273 OA
ATOM     20  H   UNL     1       0.319   3.961  -0.058  0.00  0.00    +0.155 HD
BRANCH  17  24
ATOM     21  C   UNL     1       1.206  -0.681   0.005  0.00  0.00    -0.047 A 
ATOM     22  C   UNL     1       2.145   0.019   0.741  0.00  0.00    +0.005 A 
ATOM     23  C   UNL     1       2.133   1.400   0.745  0.00  0.00    +0.023 A 
ATOM     24  C   UNL     1       1.177   2.086   0.008  0.00  0.00    +0.033 A 
ATOM     25  C   UNL     1       0.236   1.381  -0.731  0.00  0.00    +0.023 A 
ATOM     26  C   UNL     1       0.253  -0.000  -0.730  0.00  0.00    +0.005 A 
BRANCH  21  27
ATOM     27  C   UNL     1       1.223  -2.188   0.004  0.00  0.00    +0.035 C 
BRANCH  27  28
ATOM     28  C   UNL     1       0.343  -2.708   1.142  0.00  0.00    +0.004 C 
BRANCH  28  30
ATOM     29  C   UNL     1      -0.520  -4.759   2.279  0.00  0.00    +0.004 C 
ATOM     30  C   UNL     1       0.359  -4.238   1.141  0.00  0.00    -0.003 C 
ENDBRANCH  28  30
ENDBRANCH  27  28
ENDBRANCH  21  27
ENDBRANCH  17  24
ENDBRANCH   1  18
TORSDOF 6
