REMARK  Name = ZINC36329585
REMARK  10 active torsions:
REMARK  status: ('A' for Active; 'I' for Inactive)
REMARK    1  A    between atoms: C_1  and  O_2
REMARK    2  A    between atoms: O_2  and  C_3
REMARK    3  A    between atoms: C_6  and  C_9
REMARK    4  A    between atoms: C_9  and  C_11
REMARK    5  A    between atoms: C_9  and  C_28
REMARK    6  A    between atoms: C_11  and  N_12
REMARK    7  A    between atoms: C_13  and  C_15
REMARK    8  A    between atoms: C_15  and  C_16
REMARK    9  A    between atoms: C_16  and  C_17
REMARK   10  A    between atoms: C_17  and  C_18
REMARK                            x       y       z     vdW  Elec       q    Type
REMARK                         _______ _______ _______ _____ _____    ______ ____
ROOT
ATOM      1  C   UNL     1       2.587  -2.550   4.310  0.00  0.00    +0.068 C 
ENDROOT
BRANCH   1   2
ATOM      2  C   UNL     1       3.726  -3.388   3.789  0.00  0.00    -0.013 A 
ATOM      3  C   UNL     1       3.635  -4.405   2.918  0.00  0.00    +0.088 A 
ATOM      4  N   UNL     1       4.877  -4.927   2.679  0.00  0.00    -0.360 N 
ATOM      5  H   UNL     1       5.065  -5.670   2.084  0.00  0.00    +0.165 HD
ATOM      6  C   UNL     1       5.822  -4.240   3.408  0.00  0.00    +0.047 A 
ATOM      7  C   UNL     1       5.143  -3.241   4.130  0.00  0.00    +0.003 A 
ATOM      8  C   UNL     1       5.856  -2.377   4.963  0.00  0.00    +0.010 A 
ATOM      9  C   UNL     1       7.213  -2.502   5.069  0.00  0.00    +0.001 A 
ATOM     10  C   UNL     1       7.888  -3.483   4.355  0.00  0.00    +0.002 A 
ATOM     11  C   UNL     1       7.202  -4.353   3.535  0.00  0.00    +0.026 A 
ENDBRANCH   1   2
BRANCH   1  15
ATOM     12  C   UNL     1       0.626  -0.618   1.042  0.00  0.00    +0.120 A 
ATOM     13  C   UNL     1       1.202   0.138   2.051  0.00  0.00    +0.046 A 
ATOM     14  C   UNL     1       1.835  -0.488   3.107  0.00  0.00    +0.008 A 
ATOM     15  C   UNL     1       1.895  -1.869   3.158  0.00  0.00    -0.038 A 
ATOM     16  C   UNL     1       1.322  -2.625   2.152  0.00  0.00    +0.008 A 
ATOM     17  C   UNL     1       0.682  -2.003   1.098  0.00  0.00    +0.046 A 
BRANCH  12  19
ATOM     18  C   UNL     1      -0.017   1.425   0.010  0.00  0.00    +0.277 C 
ATOM     19  O   UNL     1       0.002  -0.004   0.002  0.00  0.00    -0.495 OA
ENDBRANCH  12  19
ENDBRANCH   1  15
BRANCH   1  20
ATOM     20  C   UNL     1       1.589  -3.447   5.046  0.00  0.00    +0.117 C 
BRANCH  20  21
ATOM     21  N   UNL     1       2.228  -4.016   6.235  0.00  0.00    -0.314 N 
ATOM     22  C   UNL     1       1.535  -4.844   7.042  0.00  0.00    +0.213 C 
ATOM     23  O   UNL     1       0.382  -5.117   6.783  0.00  0.00    -0.276 OA
ATOM     24  H   UNL     1       3.150  -3.797   6.441  0.00  0.00    +0.149 HD
BRANCH  22  25
ATOM     25  C   UNL     1       2.192  -5.429   8.265  0.00  0.00    +0.096 C 
BRANCH  25  26
ATOM     26  C   UNL     1       1.194  -6.326   9.000  0.00  0.00    +0.014 C 
BRANCH  26  27
ATOM     27  C   UNL     1       1.862  -6.920  10.242  0.00  0.00    +0.038 C 
BRANCH  27  28
ATOM     28  C   UNL     1       0.879  -7.804  10.966  0.00  0.00    -0.022 A 
ATOM     29  C   UNL     1       0.089  -7.447  11.992  0.00  0.00    +0.087 A 
ATOM     30  N   UNL     1      -0.668  -8.514  12.390  0.00  0.00    -0.360 N 
ATOM     31  H   UNL     1      -1.315  -8.500  13.113  0.00  0.00    +0.165 HD
ATOM     32  C   UNL     1      -0.378  -9.612  11.611  0.00  0.00    +0.047 A 
ATOM     33  C   UNL     1       0.600  -9.213  10.681  0.00  0.00    +0.003 A 
ATOM     34  C   UNL     1       1.088 -10.129   9.747  0.00  0.00    +0.010 A 
ATOM     35  C   UNL     1       0.610 -11.409   9.739  0.00  0.00    +0.001 A 
ATOM     36  C   UNL     1      -0.358 -11.807  10.652  0.00  0.00    +0.002 A 
ATOM     37  C   UNL     1      -0.846 -10.921  11.588  0.00  0.00    +0.026 A 
ENDBRANCH  27  28
ENDBRANCH  26  27
ENDBRANCH  25  26
ENDBRANCH  22  25
ENDBRANCH  20  21
ENDBRANCH   1  20
TORSDOF 9
