REMARK  Name = ZINC24765269
REMARK  3 active torsions:
REMARK  status: ('A' for Active; 'I' for Inactive)
REMARK    1  A    between atoms: N_13  and  C_17
REMARK    2  A    between atoms: C_17  and  C_18
REMARK    3  A    between atoms: N_20  and  C_21
REMARK                            x       y       z     vdW  Elec       q    Type
REMARK                         _______ _______ _______ _____ _____    ______ ____
ROOT
ATOM      1  C   UNL     1      -3.744   7.702   1.663  0.00  0.00    +0.000 A 
ATOM      2  C   UNL     1      -2.839   6.755   1.218  0.00  0.00    +0.000 A 
ATOM      3  C   UNL     1      -3.272   5.478   0.926  0.00  0.00    +0.006 A 
ATOM      4  C   UNL     1      -4.610   5.135   1.074  0.00  0.00    -0.012 A 
ATOM      5  C   UNL     1      -5.510   6.078   1.520  0.00  0.00    -0.042 A 
ATOM      6  C   UNL     1      -5.072   7.363   1.812  0.00  0.00    +0.004 A 
ATOM      7  C   UNL     1      -6.971   5.770   1.715  0.00  0.00    +0.035 C 
ATOM      8  C   UNL     1      -7.365   4.511   0.945  0.00  0.00    +0.008 C 
ATOM      9  C   UNL     1      -6.386   3.390   1.316  0.00  0.00    +0.040 C 
ATOM     10  C   UNL     1      -5.019   3.729   0.734  0.00  0.00    +0.138 C 
ATOM     11  C   UNL     1      -3.984   2.745   1.231  0.00  0.00    +0.251 C 
ATOM     12  O   UNL     1      -3.649   2.550   2.380  0.00  0.00    -0.272 OA
ATOM     13  N   UNL     1      -3.511   2.130   0.127  0.00  0.00    -0.215 N 
ATOM     14  C   UNL     1      -4.106   2.583  -0.983  0.00  0.00    +0.310 C 
ATOM     15  O   UNL     1      -3.850   2.179  -2.100  0.00  0.00    -0.252 OA
ATOM     16  N   UNL     1      -5.020   3.537  -0.723  0.00  0.00    -0.281 N 
ATOM     17  H   UNL     1      -5.696   4.131  -1.356  0.00  0.00    +0.152 HD
ENDROOT
BRANCH  13  18
ATOM     18  C   UNL     1      -2.478   1.092   0.142  0.00  0.00    +0.214 C 
BRANCH  18  19
ATOM     19  C   UNL     1      -1.119   1.732   0.017  0.00  0.00    +0.235 C 
ATOM     20  O   UNL     1      -1.024   2.938  -0.077  0.00  0.00    -0.274 OA
ATOM     21  N   UNL     1      -0.011   0.966   0.007  0.00  0.00    -0.283 N 
ATOM     22  H   UNL     1      -0.100  -0.131   0.022  0.00  0.00    +0.155 HD
BRANCH  21  23
ATOM     23  C   UNL     1       1.255   1.565  -0.021  0.00  0.00    +0.056 A 
ATOM     24  C   UNL     1       1.448   2.748  -0.723  0.00  0.00    +0.074 A 
ATOM     25  C   UNL     1       2.699   3.342  -0.747  0.00  0.00    +0.168 A 
ATOM     26  C   UNL     1       3.764   2.747  -0.075  0.00  0.00    +0.168 A 
ATOM     27  C   UNL     1       3.569   1.565   0.620  0.00  0.00    +0.071 A 
ATOM     28  C   UNL     1       2.319   0.974   0.648  0.00  0.00    +0.066 A 
ATOM     29 CL   UNL     1       2.079  -0.508   1.521  0.00  0.00    -0.082 Cl
ATOM     30  O   UNL     1       4.878   3.517  -0.255  0.00  0.00    -0.453 OA
ATOM     31  C   UNL     1       4.392   4.797  -0.699  0.00  0.00    +0.466 C 
ATOM     32  O   UNL     1       3.145   4.484  -1.347  0.00  0.00    -0.453 OA
ENDBRANCH  21  23
ENDBRANCH  18  19
ENDBRANCH  13  18
TORSDOF 3
