REMARK  Name = ZINC49165239
REMARK  6 active torsions:
REMARK  status: ('A' for Active; 'I' for Inactive)
REMARK    1  A    between atoms: C_1  and  C_2
REMARK    2  A    between atoms: C_2  and  N_3
REMARK    3  A    between atoms: N_6  and  N_7
REMARK    4  A    between atoms: C_8  and  C_10
REMARK    5  A    between atoms: C_12  and  C_16
REMARK    6  A    between atoms: C_13  and  C_15
REMARK                            x       y       z     vdW  Elec       q    Type
REMARK                         _______ _______ _______ _____ _____    ______ ____
ROOT
ATOM      1  N   UNL     1      -3.942  -1.410   0.032  0.00  0.00    -0.229 N 
ATOM      2  C   UNL     1      -5.207  -1.877   0.042  0.00  0.00    +0.267 C 
ATOM      3  O   UNL     1      -5.413  -3.076   0.037  0.00  0.00    -0.268 OA
ATOM      4  H   UNL     1      -3.778  -0.454   0.036  0.00  0.00    +0.173 HD
ENDROOT
BRANCH   2   5
ATOM      5  C   UNL     1      -6.333  -0.939   0.058  0.00  0.00    +0.076 A 
ATOM      6  C   UNL     1      -7.694  -1.208   0.075  0.00  0.00    +0.024 A 
ATOM      7  C   UNL     1      -8.519  -0.110   0.088  0.00  0.00    -0.040 A 
ATOM      8  C   UNL     1      -7.968   1.129   0.083  0.00  0.00    -0.010 A 
ATOM      9  S   UNL     1      -6.312   0.843   0.068  0.00  0.00    -0.089 S 
ATOM     10  C   UNL     1      -8.677   2.459   0.094  0.00  0.00    +0.052 C 
ATOM     11  C   UNL     1     -10.016  -0.279   0.106  0.00  0.00    +0.044 C 
ENDBRANCH   2   5
BRANCH   1  15
ATOM     12  N   UNL     1      -1.372  -0.511   0.012  0.00  0.00    -0.298 N 
ATOM     13  C   UNL     1      -1.601  -1.839   0.007  0.00  0.00    +0.316 C 
ATOM     14  O   UNL     1      -0.666  -2.617  -0.006  0.00  0.00    -0.251 OA
ATOM     15  N   UNL     1      -2.865  -2.306   0.017  0.00  0.00    -0.218 N 
ATOM     16  H   UNL     1      -2.118   0.109   0.023  0.00  0.00    +0.150 HD
ATOM     17  H   UNL     1      -3.029  -3.262   0.013  0.00  0.00    +0.174 HD
BRANCH  12  19
ATOM     18  C   UNL     1      -0.019   1.526   0.010  0.00  0.00    +0.024 C 
ATOM     19  C   UNL     1       0.002  -0.004   0.002  0.00  0.00    +0.102 C 
ENDBRANCH  12  19
ENDBRANCH   1  15
TORSDOF 3
