REMARK  Name = ZINC36206300
REMARK  13 active torsions:
REMARK  status: ('A' for Active; 'I' for Inactive)
REMARK    1  A    between atoms: C_1  and  C_2
REMARK    2  A    between atoms: C_2  and  O_3
REMARK    3  A    between atoms: O_3  and  C_4
REMARK    4  A    between atoms: C_4  and  C_5
REMARK    5  A    between atoms: C_5  and  C_7
REMARK    6  A    between atoms: C_5  and  O_32
REMARK    7  A    between atoms: C_7  and  N_8
REMARK    8  A    between atoms: N_8  and  C_9
REMARK    9  A    between atoms: N_8  and  C_29
REMARK   10  A    between atoms: C_9  and  C_10
REMARK   11  A    between atoms: C_16  and  C_21
REMARK   12  A    between atoms: C_24  and  O_27
REMARK   13  A    between atoms: O_27  and  C_28
REMARK                            x       y       z     vdW  Elec       q    Type
REMARK                         _______ _______ _______ _____ _____    ______ ____
ROOT
ATOM      1  C   UNL     1       3.425  -5.953  -4.955  0.00  0.00    +0.094 A 
ATOM      2  N   UNL     1       3.617  -7.284  -5.147  0.00  0.00    -0.312 N 
ATOM      3  H   UNL     1       3.207  -7.916  -4.537  0.00  0.00    +0.170 HD
ATOM      4  C   UNL     1       4.365  -7.742  -6.168  0.00  0.00    +0.260 A 
ATOM      5  O   UNL     1       4.527  -8.939  -6.328  0.00  0.00    -0.267 OA
ATOM      6  C   UNL     1       4.966  -6.801  -7.064  0.00  0.00    +0.080 A 
ATOM      7  C   UNL     1       5.808  -7.045  -8.229  0.00  0.00    +0.004 A 
ATOM      8  C   UNL     1       6.268  -5.984  -8.934  0.00  0.00    +0.056 A 
ATOM      9  S   UNL     1       5.590  -4.584  -8.063  0.00  0.00    -0.076 S 
ATOM     10  C   UNL     1       4.713  -5.448  -6.786  0.00  0.00    +0.116 A 
ATOM     11  N   UNL     1       3.956  -5.071  -5.758  0.00  0.00    -0.229 NA
ENDROOT
BRANCH   7  12
ATOM     12  C   UNL     1       6.155  -8.428  -8.634  0.00  0.00    -0.016 A 
ATOM     13  C   UNL     1       6.651  -9.329  -7.693  0.00  0.00    +0.012 A 
ATOM     14  C   UNL     1       6.972 -10.615  -8.073  0.00  0.00    +0.046 A 
ATOM     15  C   UNL     1       6.801 -11.014  -9.392  0.00  0.00    +0.120 A 
ATOM     16  C   UNL     1       6.307 -10.120 -10.332  0.00  0.00    +0.046 A 
ATOM     17  C   UNL     1       5.979  -8.834  -9.957  0.00  0.00    +0.012 A 
BRANCH  15  18
ATOM     18  O   UNL     1       7.118 -12.282  -9.763  0.00  0.00    -0.495 OA
ATOM     19  C   UNL     1       6.917 -12.626 -11.135  0.00  0.00    +0.277 C 
ENDBRANCH  15  18
ENDBRANCH   7  12
BRANCH   1  20
ATOM     20  C   UNL     1       2.578  -5.487  -3.799  0.00  0.00    -0.003 C 
BRANCH  20  21
ATOM     21  N   UNL     1       2.512  -4.019  -3.801  0.00  0.00    +0.388 N 
ATOM     22  H   UNL     1       3.447  -3.640  -3.794  0.00  0.00    -0.081 HD
BRANCH  21  23
ATOM     23  C   UNL     1       1.808  -3.563  -5.007  0.00  0.00    -0.068 C 
ATOM     24  C   UNL     1       2.596  -2.715  -6.006  0.00  0.00    -0.017 C 
ATOM     25  C   UNL     1       1.520  -2.066  -5.133  0.00  0.00    -0.017 C 
ENDBRANCH  21  23
BRANCH  21  26
ATOM     26  C   UNL     1       1.788  -3.560  -2.608  0.00  0.00    -0.044 C 
BRANCH  26  27
ATOM     27  C   UNL     1       2.597  -3.905  -1.356  0.00  0.00    +0.124 C 
BRANCH  27  28
ATOM     28  O   UNL     1       3.866  -3.250  -1.413  0.00  0.00    -0.391 OA
ATOM     29  H   UNL     1       3.809  -2.286  -1.460  0.00  0.00    +0.210 HD
ENDBRANCH  27  28
BRANCH  27  30
ATOM     30  C   UNL     1       1.838  -3.438  -0.113  0.00  0.00    +0.189 C 
BRANCH  30  31
ATOM     31  O   UNL     1       2.536  -3.863   1.059  0.00  0.00    -0.378 OA
BRANCH  31  33
ATOM     32  C   UNL     1       2.736  -3.981   3.465  0.00  0.00    +0.034 C 
ATOM     33  C   UNL     1       1.907  -3.476   2.283  0.00  0.00    +0.156 C 
ENDBRANCH  31  33
ENDBRANCH  30  31
ENDBRANCH  27  30
ENDBRANCH  26  27
ENDBRANCH  21  26
ENDBRANCH  20  21
ENDBRANCH   1  20
TORSDOF 11
