REMARK  Name = ZINC48089215
REMARK  6 active torsions:
REMARK  status: ('A' for Active; 'I' for Inactive)
REMARK    1  A    between atoms: C_1  and  C_2
REMARK    2  A    between atoms: N_4  and  C_5
REMARK    3  A    between atoms: C_5  and  C_7
REMARK    4  A    between atoms: C_5  and  C_18
REMARK    5  A    between atoms: C_7  and  C_8
REMARK    6  A    between atoms: N_20  and  C_21
REMARK                            x       y       z     vdW  Elec       q    Type
REMARK                         _______ _______ _______ _____ _____    ______ ____
ROOT
ATOM      1  C   UNL     1      -1.149  -2.154  -0.007  0.00  0.00    +0.163 C 
ENDROOT
BRANCH   1   5
ATOM      2  C   UNL     1      -0.031   1.507   0.000  0.00  0.00    +0.109 C 
ATOM      3  C   UNL     1      -0.010   0.000  -0.004  0.00  0.00    +0.211 C 
ATOM      4  O   UNL     1       1.048  -0.592  -0.007  0.00  0.00    -0.276 OA
ATOM      5  N   UNL     1      -1.168  -0.689  -0.004  0.00  0.00    -0.304 N 
ATOM      6  H   UNL     1      -2.015  -0.215  -0.001  0.00  0.00    +0.149 HD
ENDBRANCH   1   5
BRANCH   1   7
ATOM      7  C   UNL     1      -0.434  -2.643  -1.240  0.00  0.00    +0.238 C 
ATOM      8  O   UNL     1       0.317  -1.903  -1.840  0.00  0.00    -0.273 OA
ATOM      9  N   UNL     1      -0.628  -3.904  -1.677  0.00  0.00    -0.282 N 
ATOM     10  H   UNL     1      -1.165  -4.521  -1.154  0.00  0.00    +0.155 HD
BRANCH   9  11
ATOM     11  C   UNL     1      -0.057  -4.323  -2.885  0.00  0.00    +0.069 A 
ATOM     12  C   UNL     1       0.253  -3.393  -3.868  0.00  0.00    +0.029 A 
ATOM     13  C   UNL     1       0.817  -3.808  -5.059  0.00  0.00    +0.040 A 
ATOM     14  C   UNL     1       1.074  -5.151  -5.274  0.00  0.00    +0.126 A 
ATOM     15  C   UNL     1       0.766  -6.083  -4.297  0.00  0.00    +0.078 A 
ATOM     16  C   UNL     1       0.207  -5.671  -3.100  0.00  0.00    +0.147 A 
ATOM     17  F   UNL     1      -0.088  -6.579  -2.144  0.00  0.00    -0.203 F 
ATOM     18  F   UNL     1       1.625  -5.554  -6.440  0.00  0.00    -0.205 F 
ENDBRANCH   9  11
ENDBRANCH   1   7
BRANCH   1  19
ATOM     19  C   UNL     1      -0.418  -2.658   1.239  0.00  0.00    +0.069 C 
BRANCH  19  20
ATOM     20  C   UNL     1      -1.200  -2.273   2.469  0.00  0.00    -0.020 A 
ATOM     21  C   UNL     1      -1.009  -1.181   3.227  0.00  0.00    +0.087 A 
ATOM     22  N   UNL     1      -1.907  -1.167   4.259  0.00  0.00    -0.360 N 
ATOM     23  H   UNL     1      -1.964  -0.478   4.939  0.00  0.00    +0.165 HD
ATOM     24  C   UNL     1      -2.719  -2.277   4.188  0.00  0.00    +0.047 A 
ATOM     25  C   UNL     1      -2.315  -3.015   3.060  0.00  0.00    +0.003 A 
ATOM     26  C   UNL     1      -2.972  -4.203   2.733  0.00  0.00    +0.010 A 
ATOM     27  C   UNL     1      -4.008  -4.641   3.510  0.00  0.00    +0.001 A 
ATOM     28  C   UNL     1      -4.413  -3.914   4.621  0.00  0.00    +0.002 A 
ATOM     29  C   UNL     1      -3.772  -2.745   4.967  0.00  0.00    +0.026 A 
ENDBRANCH  19  20
ENDBRANCH   1  19
TORSDOF 5
