REMARK  Name = ZINC17078119
REMARK  6 active torsions:
REMARK  status: ('A' for Active; 'I' for Inactive)
REMARK    1  A    between atoms: C_1  and  C_2
REMARK    2  A    between atoms: C_5  and  C_30
REMARK    3  A    between atoms: C_6  and  C_8
REMARK    4  A    between atoms: C_9  and  C_29
REMARK    5  A    between atoms: C_14  and  C_16
REMARK    6  A    between atoms: C_23  and  C_25
REMARK                            x       y       z     vdW  Elec       q    Type
REMARK                         _______ _______ _______ _____ _____    ______ ____
ROOT
ATOM      1  C   UNL     1       1.388  -2.167  -0.220  0.00  0.00    +0.083 A 
ATOM      2  C   UNL     1       2.607  -2.786  -0.201  0.00  0.00    +0.016 A 
ATOM      3  S   UNL     1       2.113  -4.496  -0.370  0.00  0.00    -0.057 S 
ATOM      4  C   UNL     1       0.350  -4.211  -0.457  0.00  0.00    +0.165 A 
ATOM      5  N   UNL     1       0.290  -2.897  -0.350  0.00  0.00    -0.224 NA
ATOM      6  N   UNL     1      -0.683  -5.130  -0.599  0.00  0.00    -0.264 N 
ATOM      7  C   UNL     1      -0.406  -6.446  -0.692  0.00  0.00    +0.223 C 
ATOM      8  O   UNL     1       0.744  -6.828  -0.652  0.00  0.00    -0.275 OA
ATOM      9  C   UNL     1       3.986  -2.191  -0.071  0.00  0.00    +0.054 C 
ATOM     10  H   UNL     1      -1.603  -4.824  -0.631  0.00  0.00    +0.157 HD
ENDROOT
BRANCH   1  16
ATOM     11  C   UNL     1       2.761   2.384  -1.748  0.00  0.00    +0.044 C 
ATOM     12  C   UNL     1       1.954   1.498  -0.834  0.00  0.00    -0.050 A 
ATOM     13  C   UNL     1       1.124   2.063   0.118  0.00  0.00    +0.003 A 
ATOM     14  C   UNL     1       0.380   1.257   0.961  0.00  0.00    +0.004 A 
ATOM     15  C   UNL     1       0.462  -0.117   0.855  0.00  0.00    -0.041 A 
ATOM     16  C   UNL     1       1.296  -0.691  -0.102  0.00  0.00    +0.004 A 
ATOM     17  C   UNL     1       2.043   0.126  -0.949  0.00  0.00    +0.013 A 
ATOM     18  C   UNL     1      -0.350  -0.994   1.773  0.00  0.00    +0.044 C 
ENDBRANCH   1  16
BRANCH   7  19
ATOM     19  C   UNL     1      -1.526  -7.442  -0.846  0.00  0.00    +0.097 C 
ATOM     20  C   UNL     1      -0.970  -8.901  -0.824  0.00  0.00    +0.025 C 
ATOM     21  C   UNL     1      -2.242  -9.682  -0.328  0.00  0.00    +0.016 C 
ATOM     22  C   UNL     1      -2.367  -8.827   0.986  0.00  0.00    +0.027 C 
ATOM     23  C   UNL     1      -2.472  -7.391   0.379  0.00  0.00    +0.121 C 
ATOM     24  C   UNL     1      -0.922  -8.913   1.492  0.00  0.00    -0.027 C 
ATOM     25  C   UNL     1      -0.117  -8.956   0.449  0.00  0.00    -0.027 C 
BRANCH  23  26
ATOM     26  C   UNL     1      -3.886  -7.101  -0.055  0.00  0.00    +0.360 C 
ATOM     27  O   UNL     1      -4.139  -6.946  -1.226  0.00  0.00    -0.246 OA
ATOM     28  O   UNL     1      -4.864  -7.016   0.860  0.00  0.00    -0.246 OA
ENDBRANCH  23  26
ENDBRANCH   7  19
TORSDOF 3
