REMARK  Name = ZINC12625684
REMARK  8 active torsions:
REMARK  status: ('A' for Active; 'I' for Inactive)
REMARK    1  A    between atoms: C_1  and  C_2
REMARK    2  A    between atoms: C_5  and  N_9
REMARK    3  A    between atoms: C_6  and  C_8
REMARK    4  A    between atoms: N_9  and  S_10
REMARK    5  A    between atoms: S_10  and  C_13
REMARK    6  A    between atoms: C_15  and  N_20
REMARK    7  A    between atoms: N_20  and  S_21
REMARK    8  A    between atoms: S_21  and  C_24
REMARK                            x       y       z     vdW  Elec       q    Type
REMARK                         _______ _______ _______ _____ _____    ______ ____
ROOT
ATOM      1  C   UNL     1       2.292   0.222  -2.618  0.00  0.00    +0.128 A 
ATOM      2  C   UNL     1       3.298  -0.046  -3.526  0.00  0.00    +0.054 A 
ATOM      3  C   UNL     1       3.153   0.335  -4.853  0.00  0.00    +0.050 A 
ATOM      4  C   UNL     1       2.001   0.995  -5.262  0.00  0.00    +0.026 A 
ATOM      5  C   UNL     1       1.001   1.266  -4.348  0.00  0.00    +0.024 A 
ATOM      6  C   UNL     1       1.146   0.880  -3.027  0.00  0.00    +0.068 A 
ATOM      7 CL   UNL     1      -0.113   1.222  -1.882  0.00  0.00    -0.082 Cl
ENDROOT
BRANCH   1   8
ATOM      8  S   UNL     1       2.472  -0.267  -0.934  0.00  0.00    +0.074 S 
ATOM      9  O   UNL     1       3.768  -0.838  -0.814  0.00  0.00    -0.150 OA
ATOM     10  O   UNL     1       1.292  -0.978  -0.590  0.00  0.00    -0.150 OA
BRANCH   8  11
ATOM     11  N   UNL     1       2.477   1.114  -0.021  0.00  0.00    -0.216 N 
ATOM     12  H   UNL     1       1.727   1.313   0.562  0.00  0.00    +0.174 HD
BRANCH  11  17
ATOM     13  C   UNL     1       6.875   4.683  -0.298  0.00  0.00    +0.044 C 
ATOM     14  C   UNL     1       5.706   3.735  -0.224  0.00  0.00    -0.050 A 
ATOM     15  C   UNL     1       5.298   3.053  -1.356  0.00  0.00    +0.005 A 
ATOM     16  C   UNL     1       4.224   2.188  -1.294  0.00  0.00    +0.025 A 
ATOM     17  C   UNL     1       3.560   1.993  -0.089  0.00  0.00    +0.051 A 
ATOM     18  C   UNL     1       3.976   2.675   1.048  0.00  0.00    -0.028 A 
ATOM     19  C   UNL     1       5.048   3.543   0.977  0.00  0.00    +0.008 A 
ATOM     20  C   UNL     1       3.259   2.467   2.356  0.00  0.00    +0.046 C 
ENDBRANCH  11  17
ENDBRANCH   8  11
ENDBRANCH   1   8
BRANCH   3  21
ATOM     21  N   UNL     1       4.166   0.061  -5.775  0.00  0.00    -0.216 N 
ATOM     22  H   UNL     1       4.583  -0.815  -5.791  0.00  0.00    +0.174 HD
BRANCH  21  23
ATOM     23  S   UNL     1       4.656   1.230  -6.840  0.00  0.00    +0.072 S 
ATOM     24  O   UNL     1       5.702   0.662  -7.615  0.00  0.00    -0.150 OA
ATOM     25  O   UNL     1       3.477   1.764  -7.427  0.00  0.00    -0.150 OA
BRANCH  23  26
ATOM     26  C   UNL     1       5.379   2.528  -5.893  0.00  0.00    +0.109 A 
ATOM     27  C   UNL     1       4.578   3.574  -5.437  0.00  0.00    +0.029 A 
ATOM     28  C   UNL     1       5.103   4.589  -4.699  0.00  0.00    +0.010 A 
ATOM     29  C   UNL     1       6.476   4.592  -4.399  0.00  0.00    -0.018 A 
ATOM     30  C   UNL     1       7.056   5.626  -3.645  0.00  0.00    +0.008 A 
ATOM     31  C   UNL     1       8.390   5.596  -3.373  0.00  0.00    +0.001 A 
ATOM     32  C   UNL     1       9.192   4.553  -3.834  0.00  0.00    +0.001 A 
ATOM     33  C   UNL     1       8.665   3.535  -4.567  0.00  0.00    +0.008 A 
ATOM     34  C   UNL     1       7.292   3.531  -4.867  0.00  0.00    -0.016 A 
ATOM     35  C   UNL     1       6.712   2.498  -5.622  0.00  0.00    +0.037 A 
ENDBRANCH  23  26
ENDBRANCH  21  23
ENDBRANCH   3  21
TORSDOF 6
