REMARK  Name = ZINC63589427
REMARK  11 active torsions:
REMARK  status: ('A' for Active; 'I' for Inactive)
REMARK    1  A    between atoms: C_1  and  C_2
REMARK    2  A    between atoms: C_5  and  C_8
REMARK    3  A    between atoms: C_8  and  N_10
REMARK    4  A    between atoms: N_12  and  C_13
REMARK    5  A    between atoms: C_15  and  O_21
REMARK    6  A    between atoms: C_17  and  O_19
REMARK    7  A    between atoms: O_19  and  C_20
REMARK    8  A    between atoms: O_21  and  C_22
REMARK    9  A    between atoms: N_23  and  C_24
REMARK   10  A    between atoms: C_24  and  C_25
REMARK   11  A    between atoms: C_25  and  C_26
REMARK                            x       y       z     vdW  Elec       q    Type
REMARK                         _______ _______ _______ _____ _____    ______ ____
ROOT
ATOM      1  N   UNL     1      -0.603  -5.361   0.845  0.00  0.00    -0.143 NA
ATOM      2  C   UNL     1       0.375  -6.246   0.964  0.00  0.00    +0.194 C 
ATOM      3  N   UNL     1       0.879  -6.861  -0.146  0.00  0.00    -0.328 N 
ATOM      4  N   UNL     1       0.879  -6.544   2.197  0.00  0.00    -0.357 N 
ATOM      5  H   UNL     1       1.174  -7.784  -0.097  0.00  0.00    +0.169 HD
ATOM      6  H   UNL     1       0.474  -6.161   2.991  0.00  0.00    +0.162 HD
ENDROOT
BRANCH   3   7
ATOM      7  C   UNL     1       0.971  -6.160  -1.352  0.00  0.00    +0.049 A 
ATOM      8  C   UNL     1       0.942  -4.771  -1.353  0.00  0.00    +0.071 A 
ATOM      9  C   UNL     1       1.033  -4.077  -2.549  0.00  0.00    +0.126 A 
ATOM     10  C   UNL     1       1.154  -4.769  -3.745  0.00  0.00    +0.091 A 
ATOM     11  C   UNL     1       1.183  -6.155  -3.746  0.00  0.00    +0.126 A 
ATOM     12  C   UNL     1       1.097  -6.851  -2.550  0.00  0.00    +0.071 A 
BRANCH  11  13
ATOM     13  O   UNL     1       1.301  -6.832  -4.918  0.00  0.00    -0.495 OA
ATOM     14  C   UNL     1       1.390  -6.051  -6.112  0.00  0.00    +0.277 C 
ENDBRANCH  11  13
BRANCH   9  15
ATOM     15  O   UNL     1       1.004  -2.718  -2.550  0.00  0.00    -0.495 OA
ATOM     16  C   UNL     1       0.991  -2.070  -3.824  0.00  0.00    +0.277 C 
ENDBRANCH   9  15
ENDBRANCH   3   7
BRANCH   1  17
ATOM     17  C   UNL     1      -1.390  -5.375  -0.239  0.00  0.00    +0.270 C 
ATOM     18  O   UNL     1      -1.292  -6.278  -1.052  0.00  0.00    -0.268 OA
BRANCH  17  23
ATOM     19  C   UNL     1      -5.236  -1.171  -1.058  0.00  0.00    +0.044 C 
ATOM     20  C   UNL     1      -4.229  -2.271  -0.844  0.00  0.00    -0.050 A 
ATOM     21  C   UNL     1      -4.044  -3.235  -1.819  0.00  0.00    +0.004 A 
ATOM     22  C   UNL     1      -3.124  -4.245  -1.629  0.00  0.00    +0.013 A 
ATOM     23  C   UNL     1      -2.379  -4.293  -0.450  0.00  0.00    +0.039 A 
ATOM     24  C   UNL     1      -2.570  -3.319   0.529  0.00  0.00    +0.013 A 
ATOM     25  C   UNL     1      -3.490  -2.311   0.325  0.00  0.00    +0.004 A 
ENDBRANCH  17  23
ENDBRANCH   1  17
BRANCH   4  26
ATOM     26  C   UNL     1       2.030  -7.441   2.320  0.00  0.00    +0.120 C 
BRANCH  26  27
ATOM     27  C   UNL     1       2.322  -7.695   3.800  0.00  0.00    +0.054 C 
BRANCH  27  28
ATOM     28  C   UNL     1       3.577  -8.519   3.931  0.00  0.00    -0.040 C 
ATOM     29  C   UNL     1       4.833  -8.062   4.137  0.00  0.00    -0.001 A 
ATOM     30  C   UNL     1       5.386  -6.712   4.295  0.00  0.00    +0.010 A 
ATOM     31  C   UNL     1       6.716  -6.566   4.492  0.00  0.00    +0.001 A 
ATOM     32  C   UNL     1       7.578  -7.671   4.550  0.00  0.00    +0.002 A 
ATOM     33  C   UNL     1       7.144  -8.942   4.414  0.00  0.00    +0.026 A 
ATOM     34  C   UNL     1       5.764  -9.211   4.202  0.00  0.00    +0.043 A 
ATOM     35  N   UNL     1       5.109 -10.336   4.043  0.00  0.00    -0.380 N 
ATOM     36  C   UNL     1       3.686 -10.026   3.864  0.00  0.00    +0.144 C 
ATOM     37  H   UNL     1       5.499 -11.224   4.046  0.00  0.00    +0.160 HD
ENDBRANCH  27  28
ENDBRANCH  26  27
ENDBRANCH   4  26
TORSDOF 8
