REMARK  Name = ZINC01719482
REMARK  4 active torsions:
REMARK  status: ('A' for Active; 'I' for Inactive)
REMARK    1  A    between atoms: C_1  and  C_2
REMARK    2  A    between atoms: C_5  and  S_8
REMARK    3  A    between atoms: S_8  and  N_11
REMARK    4  A    between atoms: N_11  and  N_12
REMARK                            x       y       z     vdW  Elec       q    Type
REMARK                         _______ _______ _______ _____ _____    ______ ____
ROOT
ATOM      1  N   UNL     1      -3.627   3.845   0.059  0.00  0.00    -0.165 NA
ATOM      2  C   UNL     1      -2.348   4.121   0.014  0.00  0.00    +0.099 C 
ATOM      3  C   UNL     1      -1.256   3.179  -0.311  0.00  0.00    +0.010 A 
ATOM      4  C   UNL     1      -1.253   1.826  -0.645  0.00  0.00    +0.011 A 
ATOM      5  C   UNL     1      -0.058   1.184  -0.899  0.00  0.00    +0.001 A 
ATOM      6  C   UNL     1       1.139   1.879  -0.835  0.00  0.00    +0.001 A 
ATOM      7  C   UNL     1       1.153   3.220  -0.511  0.00  0.00    +0.009 A 
ATOM      8  C   UNL     1      -0.043   3.886  -0.245  0.00  0.00    -0.008 A 
ATOM      9  C   UNL     1      -0.333   5.288   0.120  0.00  0.00    -0.008 A 
ATOM     10  C   UNL     1      -1.722   5.434   0.278  0.00  0.00    +0.010 A 
ATOM     11  C   UNL     1      -2.254   6.674   0.626  0.00  0.00    +0.011 A 
ATOM     12  C   UNL     1      -1.415   7.753   0.815  0.00  0.00    +0.001 A 
ATOM     13  C   UNL     1      -0.045   7.611   0.660  0.00  0.00    +0.001 A 
ATOM     14  C   UNL     1       0.498   6.391   0.316  0.00  0.00    +0.009 A 
ENDROOT
BRANCH   1  15
ATOM     15  N   UNL     1      -4.061   2.518  -0.050  0.00  0.00    -0.136 N 
ATOM     16  H   UNL     1      -3.414   1.795  -0.061  0.00  0.00    +0.197 HD
BRANCH  15  17
ATOM     17  S   UNL     1      -5.679   2.182  -0.160  0.00  0.00    +0.086 S 
ATOM     18  O   UNL     1      -5.789   0.786  -0.401  0.00  0.00    -0.149 OA
ATOM     19  O   UNL     1      -6.301   2.815   0.950  0.00  0.00    -0.149 OA
BRANCH  17  24
ATOM     20  C   UNL     1      -7.745   4.956  -5.104  0.00  0.00    +0.044 C 
ATOM     21  C   UNL     1      -7.229   4.263  -3.869  0.00  0.00    -0.050 A 
ATOM     22  C   UNL     1      -6.745   2.970  -3.953  0.00  0.00    +0.005 A 
ATOM     23  C   UNL     1      -6.272   2.335  -2.820  0.00  0.00    +0.029 A 
ATOM     24  C   UNL     1      -6.282   2.992  -1.604  0.00  0.00    +0.110 A 
ATOM     25  C   UNL     1      -6.770   4.283  -1.519  0.00  0.00    +0.029 A 
ATOM     26  C   UNL     1      -7.239   4.920  -2.653  0.00  0.00    +0.005 A 
ENDBRANCH  17  24
ENDBRANCH  15  17
ENDBRANCH   1  15
TORSDOF 3
