REMARK  Name = ZINC62496582
REMARK  8 active torsions:
REMARK  status: ('A' for Active; 'I' for Inactive)
REMARK    1  A    between atoms: C_1  and  C_2
REMARK    2  A    between atoms: C_5  and  C_9
REMARK    3  A    between atoms: C_6  and  C_8
REMARK    4  A    between atoms: C_9  and  C_10
REMARK    5  A    between atoms: N_14  and  C_23
REMARK    6  A    between atoms: C_17  and  N_22
REMARK    7  A    between atoms: C_23  and  C_24
REMARK    8  A    between atoms: C_23  and  C_25
REMARK                            x       y       z     vdW  Elec       q    Type
REMARK                         _______ _______ _______ _____ _____    ______ ____
ROOT
ATOM      1  C   UNL     1      -1.245  -4.793   0.078  0.00  0.00    +0.263 C 
ATOM      2  C   UNL     1      -1.211  -6.294   0.210  0.00  0.00    +0.261 C 
ATOM      3  O   UNL     1      -1.070  -6.807   1.300  0.00  0.00    -0.271 OA
ATOM      4  N   UNL     1      -1.340  -7.066  -0.890  0.00  0.00    -0.263 N 
ATOM      5  C   UNL     1      -1.629  -6.461  -2.120  0.00  0.00    +0.080 A 
ATOM      6  C   UNL     1      -1.543  -7.186  -3.298  0.00  0.00    +0.050 A 
ATOM      7  C   UNL     1      -1.819  -6.569  -4.510  0.00  0.00    +0.027 A 
ATOM      8  C   UNL     1      -2.180  -5.228  -4.541  0.00  0.00    +0.026 A 
ATOM      9  C   UNL     1      -2.271  -4.505  -3.366  0.00  0.00    +0.049 A 
ATOM     10  C   UNL     1      -2.002  -5.119  -2.154  0.00  0.00    +0.143 A 
ATOM     11  O   UNL     1      -2.120  -4.424  -0.990  0.00  0.00    -0.477 OA
ENDROOT
BRANCH   7  12
ATOM     12  N   UNL     1      -1.734  -7.298  -5.702  0.00  0.00    -0.358 N 
ATOM     13  H   UNL     1      -1.482  -8.234  -5.680  0.00  0.00    +0.142 HD
ATOM     14  H   UNL     1      -1.927  -6.866  -6.549  0.00  0.00    +0.142 HD
ENDBRANCH   7  12
BRANCH   4  15
ATOM     15  C   UNL     1      -1.179  -8.519  -0.798  0.00  0.00    +0.076 C 
ATOM     16  C   UNL     1       0.213  -8.845  -0.253  0.00  0.00    +0.028 C 
ATOM     17  C   UNL     1      -2.242  -9.092   0.142  0.00  0.00    +0.028 C 
ENDBRANCH   4  15
BRANCH   1  18
ATOM     18  C   UNL     1       0.165  -4.276  -0.217  0.00  0.00    +0.089 C 
BRANCH  18  23
ATOM     19  C   UNL     1       0.127   1.502  -0.251  0.00  0.00    +0.044 C 
ATOM     20  C   UNL     1       0.137  -0.004  -0.242  0.00  0.00    -0.050 A 
ATOM     21  C   UNL     1       0.003  -0.703  -1.427  0.00  0.00    +0.003 A 
ATOM     22  C   UNL     1       0.012  -2.086  -1.419  0.00  0.00    +0.004 A 
ATOM     23  C   UNL     1       0.156  -2.769  -0.226  0.00  0.00    -0.040 A 
ATOM     24  C   UNL     1       0.291  -2.070   0.959  0.00  0.00    -0.047 A 
ATOM     25  C   UNL     1       0.286  -0.688   0.950  0.00  0.00    +0.007 A 
ATOM     26  C   UNL     1       0.447  -2.815   2.259  0.00  0.00    +0.044 C 
ENDBRANCH  18  23
ENDBRANCH   1  18
TORSDOF 4
