REMARK  Name = ZINC08453911
REMARK  13 active torsions:
REMARK  status: ('A' for Active; 'I' for Inactive)
REMARK    1  A    between atoms: C_1  and  C_2
REMARK    2  A    between atoms: N_6  and  C_7
REMARK    3  A    between atoms: C_15  and  O_26
REMARK    4  A    between atoms: C_16  and  O_17
REMARK    5  A    between atoms: O_17  and  C_18
REMARK    6  A    between atoms: C_18  and  C_19
REMARK    7  A    between atoms: C_19  and  C_21
REMARK    8  A    between atoms: C_19  and  O_25
REMARK    9  A    between atoms: C_21  and  N_54
REMARK   10  A    between atoms: C_22  and  C_23
REMARK   11  A    between atoms: C_22  and  C_24
REMARK   12  A    between atoms: C_22  and  N_54
REMARK   13  A    between atoms: O_26  and  C_27
REMARK                            x       y       z     vdW  Elec       q    Type
REMARK                         _______ _______ _______ _____ _____    ______ ____
ROOT
ATOM      1  C   UNL     1      -2.079  -3.537   5.938  0.00  0.00    +0.064 C 
ATOM      2  C   UNL     1      -1.339  -2.225   5.965  0.00  0.00    +0.022 A 
ATOM      3  C   UNL     1      -1.404  -1.283   5.012  0.00  0.00    +0.035 A 
ATOM      4  C   UNL     1      -0.540  -0.178   5.437  0.00  0.00    +0.046 A 
ATOM      5  C   UNL     1       0.009  -0.566   6.672  0.00  0.00    +0.059 A 
ATOM      6  N   UNL     1      -0.498  -1.815   6.969  0.00  0.00    -0.313 N 
ATOM      7  C   UNL     1       0.886   0.289   7.332  0.00  0.00    +0.046 A 
ATOM      8  C   UNL     1       1.215   1.506   6.773  0.00  0.00    +0.065 A 
ATOM      9  C   UNL     1       0.679   1.893   5.549  0.00  0.00    +0.176 A 
ATOM     10  C   UNL     1      -0.196   1.056   4.875  0.00  0.00    +0.172 A 
ATOM     11 BR   UNL     1       2.408   2.661   7.679  0.00  0.00    -0.046 Br
ENDROOT
BRANCH   6  12
ATOM     12  C   UNL     1      -0.199  -2.553   8.121  0.00  0.00    +0.047 A 
ATOM     13  C   UNL     1       1.093  -3.015   8.336  0.00  0.00    +0.026 A 
ATOM     14  C   UNL     1       1.385  -3.738   9.475  0.00  0.00    +0.002 A 
ATOM     15  C   UNL     1       0.391  -4.012  10.396  0.00  0.00    +0.000 A 
ATOM     16  C   UNL     1      -0.898  -3.559  10.182  0.00  0.00    +0.002 A 
ATOM     17  C   UNL     1      -1.196  -2.830   9.048  0.00  0.00    +0.026 A 
ENDBRANCH   6  12
BRANCH   9  18
ATOM     18  O   UNL     1       1.014   3.098   5.011  0.00  0.00    -0.490 OA
ATOM     19  C   UNL     1       0.192   4.214   5.357  0.00  0.00    +0.277 C 
ENDBRANCH   9  18
BRANCH  10  20
ATOM     20  O   UNL     1      -0.721   1.434   3.679  0.00  0.00    -0.485 OA
BRANCH  20  21
ATOM     21  C   UNL     1       0.011   1.072   2.506  0.00  0.00    +0.258 C 
BRANCH  21  22
ATOM     22  C   UNL     1      -0.729   1.579   1.267  0.00  0.00    +0.135 C 
BRANCH  22  23
ATOM     23  O   UNL     1      -0.748   3.008   1.275  0.00  0.00    -0.390 OA
ATOM     24  H   UNL     1       0.130   3.413   1.268  0.00  0.00    +0.210 HD
ENDBRANCH  22  23
BRANCH  22  25
ATOM     25  C   UNL     1      -0.013   1.086   0.008  0.00  0.00    -0.047 C 
BRANCH  25  26
ATOM     26  N   UNL     1      -0.732   1.579  -1.182  0.00  0.00    +0.382 N 
ATOM     27  H   UNL     1      -0.746   2.605  -1.168  0.00  0.00    -0.085 HD
ATOM     28  H   UNL     1      -1.695   1.223  -1.167  0.00  0.00    -0.085 HD
BRANCH  26  29
ATOM     29  C   UNL     1      -0.062   1.117  -2.413  0.00  0.00    -0.078 C 
ATOM     30  C   UNL     1      -0.560  -0.285  -2.770  0.00  0.00    -0.014 C 
ATOM     31  C   UNL     1      -0.391   2.081  -3.554  0.00  0.00    -0.014 C 
ENDBRANCH  26  29
ENDBRANCH  25  26
ENDBRANCH  22  25
ENDBRANCH  21  22
ENDBRANCH  20  21
ENDBRANCH  10  20
TORSDOF 9
