REMARK  Name = ZINC08950005
REMARK  16 active torsions:
REMARK  status: ('A' for Active; 'I' for Inactive)
REMARK    1  A    between atoms: C_1  and  C_2
REMARK    2  A    between atoms: C_2  and  C_3
REMARK    3  A    between atoms: C_3  and  C_4
REMARK    4  A    between atoms: C_4  and  O_5
REMARK    5  A    between atoms: O_5  and  C_6
REMARK    6  A    between atoms: C_6  and  C_8
REMARK    7  A    between atoms: C_11  and  N_14
REMARK    8  A    between atoms: C_15  and  C_17
REMARK    9  A    between atoms: C_17  and  N_18
REMARK   10  A    between atoms: C_25  and  C_35
REMARK   11  A    between atoms: C_26  and  C_28
REMARK   12  A    between atoms: C_28  and  O_30
REMARK   13  A    between atoms: O_30  and  C_31
REMARK   14  A    between atoms: C_31  and  C_32
REMARK   15  A    between atoms: C_32  and  C_33
REMARK   16  A    between atoms: C_32  and  C_34
REMARK                            x       y       z     vdW  Elec       q    Type
REMARK                         _______ _______ _______ _____ _____    ______ ____
ROOT
ATOM      1  C   UNL     1      -1.176  -0.878  -0.007  0.00  0.00    +0.222 C 
ENDROOT
BRANCH   1   2
ATOM      2  N   UNL     1       0.181  -0.327  -0.029  0.00  0.00    -0.290 N 
ATOM      3  C   UNL     1       1.241  -1.171   0.016  0.00  0.00    +0.203 A 
ATOM      4  N   UNL     1       2.471  -0.735  -0.001  0.00  0.00    -0.230 NA
ATOM      5  C   UNL     1       2.750   0.561  -0.062  0.00  0.00    +0.116 A 
ATOM      6  C   UNL     1       1.732   1.541  -0.113  0.00  0.00    +0.076 A 
ATOM      7  C   UNL     1       0.350   1.008  -0.093  0.00  0.00    +0.263 A 
ATOM      8  O   UNL     1      -0.609   1.758  -0.138  0.00  0.00    -0.267 OA
ATOM      9  C   UNL     1       2.166   2.866  -0.175  0.00  0.00    -0.015 A 
ATOM     10  C   UNL     1       3.502   3.143  -0.184  0.00  0.00    +0.102 A 
ATOM     11  S   UNL     1       4.242   1.521  -0.103  0.00  0.00    -0.062 S 
ATOM     12  C   UNL     1       1.161   3.988  -0.234  0.00  0.00    +0.046 C 
BRANCH  10  13
ATOM     13  C   UNL     1       4.165   4.448  -0.245  0.00  0.00    +0.346 C 
ATOM     14  O   UNL     1       3.500   5.465  -0.297  0.00  0.00    -0.244 OA
BRANCH  13  15
ATOM     15  O   UNL     1       5.512   4.521  -0.243  0.00  0.00    -0.461 OA
BRANCH  15  16
ATOM     16  C   UNL     1       6.100   5.847  -0.306  0.00  0.00    +0.235 C 
BRANCH  16  17
ATOM     17  C   UNL     1       7.625   5.730  -0.294  0.00  0.00    +0.020 C 
ATOM     18  C   UNL     1       8.092   5.020  -1.567  0.00  0.00    +0.010 C 
ATOM     19  C   UNL     1       8.244   7.128  -0.234  0.00  0.00    +0.010 C 
ENDBRANCH  16  17
ENDBRANCH  15  16
ENDBRANCH  13  15
ENDBRANCH  10  13
ENDBRANCH   1   2
BRANCH   1  21
ATOM     20  N   UNL     1      -2.863  -1.646  -1.645  0.00  0.00    -0.284 N 
ATOM     21  C   UNL     1      -1.636  -1.136  -1.419  0.00  0.00    +0.237 C 
ATOM     22  O   UNL     1      -0.903  -0.883  -2.352  0.00  0.00    -0.274 OA
ATOM     23  H   UNL     1      -3.420  -1.919  -0.900  0.00  0.00    +0.155 HD
BRANCH  20  27
ATOM     24  C   UNL     1      -4.263  -2.050  -5.548  0.00  0.00    +0.059 A 
ATOM     25  C   UNL     1      -4.632  -2.980  -4.571  0.00  0.00    +0.017 A 
ATOM     26  C   UNL     1      -4.167  -2.844  -3.283  0.00  0.00    +0.024 A 
ATOM     27  C   UNL     1      -3.332  -1.781  -2.951  0.00  0.00    +0.033 A 
ATOM     28  C   UNL     1      -2.967  -0.851  -3.920  0.00  0.00    +0.024 A 
ATOM     29  C   UNL     1      -3.423  -0.985  -5.212  0.00  0.00    +0.017 A 
BRANCH  24  30
ATOM     30  C   UNL     1      -4.758  -2.194  -6.929  0.00  0.00    +0.339 C 
ATOM     31  O   UNL     1      -5.488  -3.121  -7.220  0.00  0.00    -0.245 OA
BRANCH  30  32
ATOM     32  O   UNL     1      -4.402  -1.297  -7.869  0.00  0.00    -0.461 OA
BRANCH  32  33
ATOM     33  C   UNL     1      -4.926  -1.501  -9.208  0.00  0.00    +0.232 C 
BRANCH  33  34
ATOM     34  C   UNL     1      -4.417  -0.391 -10.130  0.00  0.00    +0.041 C 
BRANCH  34  36
ATOM     35  C   UNL     1      -4.460   0.503 -12.462  0.00  0.00    +0.004 C 
ATOM     36  C   UNL     1      -4.970  -0.606 -11.540  0.00  0.00    -0.000 C 
ENDBRANCH  34  36
ENDBRANCH  33  34
ENDBRANCH  32  33
ENDBRANCH  30  32
ENDBRANCH  24  30
ENDBRANCH  20  27
ENDBRANCH   1  21
TORSDOF 12
