REMARK  Name = ZINC12844452
REMARK  11 active torsions:
REMARK  status: ('A' for Active; 'I' for Inactive)
REMARK    1  A    between atoms: C_1  and  C_2
REMARK    2  A    between atoms: C_5  and  C_7
REMARK    3  A    between atoms: C_8  and  C_9
REMARK    4  A    between atoms: C_12  and  S_15
REMARK    5  A    between atoms: S_15  and  C_16
REMARK    6  A    between atoms: C_16  and  C_17
REMARK    7  A    between atoms: N_19  and  C_20
REMARK    8  A    between atoms: C_21  and  C_32
REMARK    9  A    between atoms: C_22  and  C_31
REMARK   10  A    between atoms: C_23  and  C_30
REMARK   11  A    between atoms: N_24  and  C_25
REMARK                            x       y       z     vdW  Elec       q    Type
REMARK                         _______ _______ _______ _____ _____    ______ ____
ROOT
ATOM      1  C   UNL     1     -12.016   4.449   6.496  0.00  0.00    +0.229 C 
ATOM      2  O   UNL     1     -12.687   4.287   7.494  0.00  0.00    -0.275 OA
ATOM      3  N   UNL     1     -12.606   4.810   5.339  0.00  0.00    -0.270 N 
ATOM      4  H   UNL     1     -12.084   4.855   4.523  0.00  0.00    +0.156 HD
ENDROOT
BRANCH   3   5
ATOM      5  C   UNL     1     -13.958   5.117   5.316  0.00  0.00    +0.124 A 
ATOM      6  C   UNL     1     -14.692   5.653   6.365  0.00  0.00    +0.095 A 
ATOM      7  C   UNL     1     -16.064   5.800   5.864  0.00  0.00    -0.011 A 
ATOM      8  C   UNL     1     -16.063   5.351   4.599  0.00  0.00    +0.022 A 
ATOM      9  N   UNL     1     -14.800   4.940   4.266  0.00  0.00    -0.329 N 
ATOM     10  C   UNL     1     -17.263   5.307   3.688  0.00  0.00    +0.064 C 
ATOM     11  C   UNL     1     -17.246   6.343   6.625  0.00  0.00    +0.047 C 
BRANCH   9  12
ATOM     12  C   UNL     1     -14.413   4.389   2.964  0.00  0.00    +0.089 C 
ATOM     13  C   UNL     1     -13.684   3.043   3.156  0.00  0.00    +0.025 C 
ATOM     14  C   UNL     1     -12.581   3.052   2.067  0.00  0.00    +0.002 C 
ATOM     15  C   UNL     1     -12.119   4.530   2.058  0.00  0.00    +0.002 C 
ATOM     16  C   UNL     1     -13.419   5.334   2.267  0.00  0.00    +0.025 C 
ENDBRANCH   9  12
BRANCH   6  17
ATOM     17  C   UNL     1     -14.209   5.995   7.669  0.00  0.00    +0.103 C 
ATOM     18  N   UNL     1     -13.826   6.266   8.704  0.00  0.00    -0.191 NA
ENDBRANCH   6  17
ENDBRANCH   3   5
BRANCH   1  19
ATOM     19  C   UNL     1     -10.524   4.245   6.550  0.00  0.00    +0.173 C 
BRANCH  19  20
ATOM     20  S   UNL     1     -10.022   3.913   8.257  0.00  0.00    -0.077 S 
BRANCH  20  24
ATOM     21  C   UNL     1      -6.148   3.390   8.367  0.00  0.00    +0.155 A 
ATOM     22  N   UNL     1      -7.368   3.443   9.008  0.00  0.00    -0.317 N 
ATOM     23  H   UNL     1      -7.540   3.312   9.954  0.00  0.00    +0.169 HD
ATOM     24  C   UNL     1      -8.285   3.721   8.033  0.00  0.00    +0.190 A 
ATOM     25  N   UNL     1      -7.631   3.813   6.896  0.00  0.00    -0.122 NA
ATOM     26  N   UNL     1      -6.375   3.619   7.089  0.00  0.00    -0.129 NA
BRANCH  21  28
ATOM     27  C   UNL     1      -3.731   3.096   8.227  0.00  0.00    +0.050 C 
ATOM     28  C   UNL     1      -4.849   3.123   8.986  0.00  0.00    +0.051 C 
BRANCH  27  33
ATOM     29  C   UNL     1      -0.252   2.097  11.687  0.00  0.00    +0.086 C 
ATOM     30  C   UNL     1      -0.900   2.391  10.358  0.00  0.00    +0.103 A 
ATOM     31  C   UNL     1      -0.258   2.493   9.176  0.00  0.00    +0.045 A 
ATOM     32  C   UNL     1      -1.230   2.774   8.199  0.00  0.00    +0.049 A 
ATOM     33  C   UNL     1      -2.432   2.830   8.847  0.00  0.00    +0.128 A 
ATOM     34  O   UNL     1      -2.213   2.590  10.155  0.00  0.00    -0.461 OA
ENDBRANCH  27  33
ENDBRANCH  21  28
ENDBRANCH  20  24
ENDBRANCH  19  20
ENDBRANCH   1  19
TORSDOF 8
