REMARK  Name = ZINC40206202
REMARK  11 active torsions:
REMARK  status: ('A' for Active; 'I' for Inactive)
REMARK    1  A    between atoms: C_1  and  C_2
REMARK    2  A    between atoms: C_5  and  C_9
REMARK    3  A    between atoms: C_6  and  C_8
REMARK    4  A    between atoms: N_11  and  C_12
REMARK    5  A    between atoms: C_12  and  C_13
REMARK    6  A    between atoms: C_13  and  C_14
REMARK    7  A    between atoms: C_14  and  C_15
REMARK    8  A    between atoms: N_23  and  C_24
REMARK    9  A    between atoms: C_24  and  C_25
REMARK   10  A    between atoms: N_27  and  C_28
REMARK   11  A    between atoms: N_27  and  C_34
REMARK                            x       y       z     vdW  Elec       q    Type
REMARK                         _______ _______ _______ _____ _____    ______ ____
ROOT
ATOM      1  C   UNL     1       2.077  -8.114  -3.304  0.00  0.00    +0.111 A 
ATOM      2  N   UNL     1       1.020  -8.642  -3.849  0.00  0.00    -0.232 NA
ATOM      3  C   UNL     1       1.382  -9.362  -4.942  0.00  0.00    +0.089 A 
ATOM      4  C   UNL     1       0.671 -10.118  -5.878  0.00  0.00    +0.030 A 
ATOM      5  C   UNL     1       1.335 -10.743  -6.894  0.00  0.00    +0.002 A 
ATOM      6  C   UNL     1       2.713 -10.637  -7.010  0.00  0.00    +0.002 A 
ATOM      7  C   UNL     1       3.436  -9.897  -6.099  0.00  0.00    +0.028 A 
ATOM      8  C   UNL     1       2.778  -9.254  -5.059  0.00  0.00    +0.069 A 
ATOM      9  N   UNL     1       3.188  -8.453  -4.012  0.00  0.00    -0.319 N 
ENDROOT
BRANCH   1  10
ATOM     10  C   UNL     1       2.070  -7.247  -2.071  0.00  0.00    +0.076 C 
BRANCH  10  11
ATOM     11  C   UNL     1       1.901  -5.782  -2.479  0.00  0.00    +0.026 C 
BRANCH  11  12
ATOM     12  C   UNL     1       1.894  -4.902  -1.227  0.00  0.00    +0.105 C 
BRANCH  12  15
ATOM     13  C   UNL     1       1.697  -2.537  -0.674  0.00  0.00    +0.244 C 
ATOM     14  O   UNL     1       1.801  -2.833   0.500  0.00  0.00    -0.270 OA
ATOM     15  N   UNL     1       1.731  -3.499  -1.617  0.00  0.00    -0.311 N 
ATOM     16  H   UNL     1       1.649  -3.263  -2.554  0.00  0.00    +0.149 HD
BRANCH  13  21
ATOM     17  C   UNL     1       1.058   2.973  -2.207  0.00  0.00    +0.044 C 
ATOM     18  C   UNL     1       1.225   1.530  -1.805  0.00  0.00    -0.050 A 
ATOM     19  C   UNL     1       1.447   0.567  -2.774  0.00  0.00    +0.004 A 
ATOM     20  C   UNL     1       1.601  -0.756  -2.413  0.00  0.00    +0.013 A 
ATOM     21  C   UNL     1       1.533  -1.122  -1.068  0.00  0.00    +0.040 A 
ATOM     22  C   UNL     1       1.309  -0.145  -0.096  0.00  0.00    -0.038 A 
ATOM     23  C   UNL     1       1.162   1.175  -0.470  0.00  0.00    +0.007 A 
ATOM     24  C   UNL     1       1.234  -0.531   1.359  0.00  0.00    +0.044 C 
ENDBRANCH  13  21
ENDBRANCH  12  15
ENDBRANCH  11  12
ENDBRANCH  10  11
ENDBRANCH   1  10
BRANCH   9  25
ATOM     25  C   UNL     1       4.564  -8.047  -3.716  0.00  0.00    +0.219 C 
BRANCH  25  26
ATOM     26  C   UNL     1       5.201  -9.062  -2.801  0.00  0.00    +0.236 C 
ATOM     27  O   UNL     1       4.787 -10.202  -2.778  0.00  0.00    -0.274 OA
ATOM     28  N   UNL     1       6.231  -8.703  -2.010  0.00  0.00    -0.294 N 
BRANCH  28  29
ATOM     29  C   UNL     1       6.738  -9.635  -0.999  0.00  0.00    +0.076 C 
ATOM     30  C   UNL     1       7.225 -10.914  -1.683  0.00  0.00    +0.022 C 
ATOM     31  C   UNL     1       7.754 -11.886  -0.627  0.00  0.00    +0.002 C 
ATOM     32  C   UNL     1       6.634 -12.229   0.357  0.00  0.00    +0.000 C 
ATOM     33  C   UNL     1       6.147 -10.950   1.041  0.00  0.00    +0.002 C 
ATOM     34  C   UNL     1       5.618  -9.977  -0.015  0.00  0.00    +0.022 C 
ENDBRANCH  28  29
BRANCH  28  35
ATOM     35  C   UNL     1       6.845  -7.381  -2.161  0.00  0.00    +0.076 C 
ATOM     36  C   UNL     1       5.937  -6.323  -1.531  0.00  0.00    +0.022 C 
ATOM     37  C   UNL     1       6.578  -4.942  -1.688  0.00  0.00    +0.002 C 
ATOM     38  C   UNL     1       6.765  -4.634  -3.175  0.00  0.00    +0.000 C 
ATOM     39  C   UNL     1       7.673  -5.692  -3.805  0.00  0.00    +0.002 C 
ATOM     40  C   UNL     1       7.032  -7.072  -3.648  0.00  0.00    +0.022 C 
ENDBRANCH  28  35
ENDBRANCH  25  26
ENDBRANCH   9  25
TORSDOF 9
