REMARK  Name = ZINC53522336
REMARK  11 active torsions:
REMARK  status: ('A' for Active; 'I' for Inactive)
REMARK    1  A    between atoms: C_1  and  C_2
REMARK    2  A    between atoms: C_4  and  C_32
REMARK    3  A    between atoms: N_5  and  C_7
REMARK    4  A    between atoms: C_7  and  C_8
REMARK    5  A    between atoms: C_8  and  C_10
REMARK    6  A    between atoms: C_8  and  C_11
REMARK    7  A    between atoms: C_11  and  N_12
REMARK    8  A    between atoms: C_13  and  C_15
REMARK    9  A    between atoms: C_15  and  C_17
REMARK   10  A    between atoms: C_15  and  N_28
REMARK   11  A    between atoms: C_17  and  C_18
REMARK                            x       y       z     vdW  Elec       q    Type
REMARK                         _______ _______ _______ _____ _____    ______ ____
ROOT
ATOM      1  C   UNL     1       4.603  -6.443   4.401  0.00  0.00    +0.165 C 
ENDROOT
BRANCH   1   2
ATOM      2  N   UNL     1       4.621  -7.186   5.664  0.00  0.00    -0.288 N 
ATOM      3  C   UNL     1       3.997  -8.378   5.753  0.00  0.00    +0.298 C 
ATOM      4  O   UNL     1       3.419  -8.835   4.787  0.00  0.00    -0.253 OA
ATOM      5  N   UNL     1       4.014  -9.061   6.915  0.00  0.00    -0.313 N 
ATOM      6  H   UNL     1       5.082  -6.821   6.435  0.00  0.00    +0.151 HD
ATOM      7  H   UNL     1       4.475  -8.696   7.686  0.00  0.00    +0.146 HD
ATOM      8  H   UNL     1       3.564  -9.918   6.980  0.00  0.00    +0.146 HD
ENDBRANCH   1   2
BRANCH   1  10
ATOM      9  N   UNL     1       2.912  -5.145   3.146  0.00  0.00    -0.313 N 
ATOM     10  C   UNL     1       3.178  -6.137   4.019  0.00  0.00    +0.234 C 
ATOM     11  O   UNL     1       2.270  -6.784   4.497  0.00  0.00    -0.274 OA
ATOM     12  H   UNL     1       3.639  -4.628   2.764  0.00  0.00    +0.149 HD
BRANCH   9  13
ATOM     13  C   UNL     1       1.527  -4.848   2.774  0.00  0.00    +0.109 C 
BRANCH  13  14
ATOM     14  C   UNL     1       1.504  -3.688   1.777  0.00  0.00    +0.024 C 
ATOM     15  C   UNL     1       2.188  -4.118   0.478  0.00  0.00    +0.011 C 
BRANCH  14  16
ATOM     16  C   UNL     1       0.055  -3.295   1.485  0.00  0.00    +0.148 C 
BRANCH  16  21
ATOM     17  C   UNL     1      -0.018   1.503   0.010  0.00  0.00    +0.067 C 
ATOM     18  C   UNL     1       0.002  -0.004   0.002  0.00  0.00    +0.060 A 
ATOM     19  C   UNL     1       0.008  -0.818  -1.135  0.00  0.00    +0.047 A 
ATOM     20  C   UNL     1       0.028  -2.107  -0.725  0.00  0.00    +0.036 A 
ATOM     21  N   UNL     1       0.034  -2.109   0.625  0.00  0.00    -0.268 N 
ATOM     22  N   UNL     1       0.023  -0.777   1.058  0.00  0.00    -0.176 NA
ATOM     23  C   UNL     1       0.040  -3.323  -1.615  0.00  0.00    +0.065 C 
ENDBRANCH  16  21
ENDBRANCH  14  16
ENDBRANCH  13  14
ENDBRANCH   9  13
ENDBRANCH   1  10
BRANCH   1  24
ATOM     24  C   UNL     1       5.256  -7.287   3.304  0.00  0.00    +0.069 C 
BRANCH  24  25
ATOM     25  C   UNL     1       6.714  -7.489   3.626  0.00  0.00    -0.020 A 
ATOM     26  C   UNL     1       7.740  -6.748   3.180  0.00  0.00    +0.087 A 
ATOM     27  N   UNL     1       8.918  -7.231   3.684  0.00  0.00    -0.360 N 
ATOM     28  H   UNL     1       9.795  -6.860   3.502  0.00  0.00    +0.165 HD
ATOM     29  C   UNL     1       8.671  -8.323   4.486  0.00  0.00    +0.047 A 
ATOM     30  C   UNL     1       7.279  -8.528   4.490  0.00  0.00    +0.003 A 
ATOM     31  C   UNL     1       6.732  -9.576   5.233  0.00  0.00    +0.010 A 
ATOM     32  C   UNL     1       7.552 -10.395   5.957  0.00  0.00    +0.001 A 
ATOM     33  C   UNL     1       8.925 -10.194   5.960  0.00  0.00    +0.002 A 
ATOM     34  C   UNL     1       9.487  -9.172   5.226  0.00  0.00    +0.026 A 
ENDBRANCH  24  25
ENDBRANCH   1  24
TORSDOF 8
