REMARK  Name = ZINC36585044
REMARK  12 active torsions:
REMARK  status: ('A' for Active; 'I' for Inactive)
REMARK    1  A    between atoms: C_1  and  C_2
REMARK    2  A    between atoms: C_5  and  S_8
REMARK    3  A    between atoms: S_8  and  C_11
REMARK    4  A    between atoms: C_11  and  N_12
REMARK    5  A    between atoms: C_13  and  C_15
REMARK    6  A    between atoms: C_15  and  C_17
REMARK    7  A    between atoms: C_15  and  N_26
REMARK    8  A    between atoms: N_26  and  C_34
REMARK    9  A    between atoms: C_27  and  C_29
REMARK   10  A    between atoms: C_34  and  C_35
REMARK   11  A    between atoms: C_34  and  C_36
REMARK   12  A    between atoms: C_34  and  C_37
REMARK                            x       y       z     vdW  Elec       q    Type
REMARK                         _______ _______ _______ _____ _____    ______ ____
ROOT
ATOM      1  C   UNL     1       1.506  -7.887   1.955  0.00  0.00    +0.193 C 
ENDROOT
BRANCH   1   2
ATOM      2  C   UNL     1       0.074  -8.139   2.350  0.00  0.00    -0.014 A 
ATOM      3  C   UNL     1      -0.272  -8.200   3.688  0.00  0.00    +0.010 A 
ATOM      4  C   UNL     1      -1.584  -8.431   4.056  0.00  0.00    +0.050 A 
ATOM      5  C   UNL     1      -2.557  -8.602   3.084  0.00  0.00    +0.166 A 
ATOM      6  C   UNL     1      -2.209  -8.541   1.737  0.00  0.00    +0.167 A 
ATOM      7  C   UNL     1      -0.892  -8.304   1.375  0.00  0.00    +0.055 A 
ATOM      8  O   UNL     1      -3.332  -8.739   0.986  0.00  0.00    -0.453 OA
ATOM      9  C   UNL     1      -4.294  -9.327   1.882  0.00  0.00    +0.466 C 
ATOM     10  O   UNL     1      -3.898  -8.839   3.177  0.00  0.00    -0.453 OA
ENDBRANCH   1   2
BRANCH   1  12
ATOM     11  N   UNL     1       2.730  -9.443   0.472  0.00  0.00    -0.294 N 
ATOM     12  C   UNL     1       2.191  -9.201   1.683  0.00  0.00    +0.239 C 
ATOM     13  O   UNL     1       2.257 -10.042   2.555  0.00  0.00    -0.273 OA
ATOM     14  H   UNL     1       2.677  -8.770  -0.225  0.00  0.00    +0.150 HD
BRANCH  11  15
ATOM     15  C   UNL     1       3.396 -10.720   0.208  0.00  0.00    +0.278 C 
BRANCH  15  16
ATOM     16  S   UNL     1       2.222 -11.866  -0.567  0.00  0.00    +0.013 S 
ATOM     17  O   UNL     1       0.993 -11.862   0.145  0.00  0.00    -0.168 OA
ATOM     18  O   UNL     1       2.870 -13.089  -0.887  0.00  0.00    -0.168 OA
BRANCH  16  23
ATOM     19  C   UNL     1       0.914  -9.375  -5.905  0.00  0.00    +0.044 C 
ATOM     20  C   UNL     1       1.241  -9.997  -4.572  0.00  0.00    -0.050 A 
ATOM     21  C   UNL     1       2.302 -10.876  -4.460  0.00  0.00    +0.005 A 
ATOM     22  C   UNL     1       2.601 -11.447  -3.238  0.00  0.00    +0.027 A 
ATOM     23  C   UNL     1       1.841 -11.138  -2.126  0.00  0.00    +0.090 A 
ATOM     24  C   UNL     1       0.780 -10.258  -2.236  0.00  0.00    +0.027 A 
ATOM     25  C   UNL     1       0.483  -9.684  -3.458  0.00  0.00    +0.005 A 
ENDBRANCH  16  23
ENDBRANCH  15  16
ENDBRANCH  11  15
ENDBRANCH   1  12
BRANCH   1  26
ATOM     26  N   UNL     1       2.198  -7.191   3.043  0.00  0.00    -0.274 N 
ATOM     27  C   UNL     1       1.874  -5.918   3.341  0.00  0.00    +0.283 C 
ATOM     28  O   UNL     1       2.366  -5.377   4.314  0.00  0.00    -0.267 OA
BRANCH  27  29
ATOM     29  C   UNL     1       0.929  -5.183   2.494  0.00  0.00    +0.189 A 
ATOM     30  C   UNL     1       0.540  -3.885   2.664  0.00  0.00    +0.054 A 
ATOM     31  C   UNL     1      -0.366  -3.597   1.632  0.00  0.00    +0.042 A 
ATOM     32  C   UNL     1      -0.489  -4.717   0.886  0.00  0.00    +0.196 A 
ATOM     33  O   UNL     1       0.297  -5.669   1.405  0.00  0.00    -0.458 OA
ENDBRANCH  27  29
BRANCH  26  34
ATOM     34  C   UNL     1       3.241  -7.880   3.806  0.00  0.00    +0.030 C 
ATOM     35  C   UNL     1       4.217  -8.556   2.841  0.00  0.00    +0.031 C 
ATOM     36  C   UNL     1       3.997  -6.866   4.668  0.00  0.00    +0.031 C 
ATOM     37  C   UNL     1       2.600  -8.938   4.707  0.00  0.00    +0.031 C 
ENDBRANCH  26  34
ENDBRANCH   1  26
TORSDOF 8
