REMARK  Name = ZINC09125518
REMARK  10 active torsions:
REMARK  status: ('A' for Active; 'I' for Inactive)
REMARK    1  A    between atoms: C_1  and  C_2
REMARK    2  A    between atoms: C_5  and  C_8
REMARK    3  A    between atoms: C_8  and  N_9
REMARK    4  A    between atoms: C_10  and  C_12
REMARK    5  A    between atoms: C_17  and  N_18
REMARK    6  A    between atoms: C_19  and  C_21
REMARK    7  A    between atoms: C_21  and  N_62
REMARK    8  A    between atoms: C_22  and  N_62
REMARK    9  A    between atoms: C_23  and  C_24
REMARK   10  A    between atoms: C_23  and  N_62
REMARK                            x       y       z     vdW  Elec       q    Type
REMARK                         _______ _______ _______ _____ _____    ______ ____
ROOT
ATOM      1  N   UNL     1      -1.704   4.166  -1.862  0.00  0.00    -0.286 N 
ATOM      2  C   UNL     1      -0.596   3.577  -1.370  0.00  0.00    +0.201 C 
ATOM      3  O   UNL     1       0.240   4.241  -0.795  0.00  0.00    -0.278 OA
ATOM      4  H   UNL     1      -2.333   3.651  -2.391  0.00  0.00    +0.155 HD
ENDROOT
BRANCH   1  10
ATOM      5  C   UNL     1      -2.744   6.263  -2.488  0.00  0.00    +0.058 A 
ATOM      6  C   UNL     1      -2.978   7.615  -2.226  0.00  0.00    +0.015 A 
ATOM      7  C   UNL     1      -2.423   8.205  -1.111  0.00  0.00    +0.001 A 
ATOM      8  C   UNL     1      -1.633   7.463  -0.247  0.00  0.00    +0.002 A 
ATOM      9  C   UNL     1      -1.398   6.125  -0.490  0.00  0.00    +0.024 A 
ATOM     10  C   UNL     1      -1.944   5.515  -1.612  0.00  0.00    +0.045 A 
BRANCH   5  12
ATOM     11  N   UNL     1      -4.020   6.368  -4.572  0.00  0.00    -0.307 N 
ATOM     12  C   UNL     1      -3.336   5.625  -3.680  0.00  0.00    +0.246 C 
ATOM     13  O   UNL     1      -3.206   4.429  -3.857  0.00  0.00    -0.270 OA
ATOM     14  H   UNL     1      -4.123   7.322  -4.431  0.00  0.00    +0.149 HD
BRANCH  11  15
ATOM     15  C   UNL     1      -4.607   5.735  -5.756  0.00  0.00    +0.139 C 
BRANCH  15  20
ATOM     16  C   UNL     1      -7.311   9.730  -8.937  0.00  0.00    +0.044 C 
ATOM     17  C   UNL     1      -6.606   8.688  -8.108  0.00  0.00    -0.050 A 
ATOM     18  C   UNL     1      -5.271   8.411  -8.335  0.00  0.00    +0.003 A 
ATOM     19  C   UNL     1      -4.624   7.455  -7.574  0.00  0.00    +0.005 A 
ATOM     20  C   UNL     1      -5.312   6.777  -6.585  0.00  0.00    -0.030 A 
ATOM     21  C   UNL     1      -6.648   7.051  -6.361  0.00  0.00    +0.005 A 
ATOM     22  C   UNL     1      -7.294   8.010  -7.119  0.00  0.00    +0.003 A 
ENDBRANCH  15  20
ENDBRANCH  11  15
ENDBRANCH   5  12
ENDBRANCH   1  10
BRANCH   2  23
ATOM     23  C   UNL     1      -0.397   2.092  -1.534  0.00  0.00    +0.019 C 
BRANCH  23  25
ATOM     24  C   UNL     1       2.015   2.285  -1.635  0.00  0.00    -0.095 C 
ATOM     25  N   UNL     1       0.877   1.708  -0.889  0.00  0.00    +0.388 N 
ATOM     26  H   UNL     1       0.888   2.073   0.071  0.00  0.00    -0.081 HD
BRANCH  25  27
ATOM     27  C   UNL     1       0.997   0.236  -0.844  0.00  0.00    -0.003 C 
BRANCH  27  28
ATOM     28  C   UNL     1       2.186  -0.130   0.007  0.00  0.00    +0.094 A 
ATOM     29  N   UNL     1       2.464  -1.446   0.194  0.00  0.00    -0.312 N 
ATOM     30  H   UNL     1       1.901  -2.120  -0.218  0.00  0.00    +0.170 HD
ATOM     31  C   UNL     1       3.521  -1.826   0.949  0.00  0.00    +0.259 A 
ATOM     32  O   UNL     1       3.782  -3.002   1.124  0.00  0.00    -0.267 OA
ATOM     33  C   UNL     1       4.342  -0.764   1.548  0.00  0.00    +0.065 A 
ATOM     34  C   UNL     1       5.451  -1.048   2.342  0.00  0.00    +0.015 A 
ATOM     35  C   UNL     1       6.186  -0.013   2.878  0.00  0.00    +0.001 A 
ATOM     36  C   UNL     1       5.829   1.306   2.634  0.00  0.00    +0.002 A 
ATOM     37  C   UNL     1       4.736   1.609   1.853  0.00  0.00    +0.028 A 
ATOM     38  C   UNL     1       3.976   0.577   1.299  0.00  0.00    +0.078 A 
ATOM     39  N   UNL     1       2.895   0.830   0.519  0.00  0.00    -0.236 NA
ENDBRANCH  27  28
ENDBRANCH  25  27
ENDBRANCH  23  25
ENDBRANCH   2  23
TORSDOF 8
