REMARK  Name = ZINC09210671
REMARK  8 active torsions:
REMARK  status: ('A' for Active; 'I' for Inactive)
REMARK    1  A    between atoms: C_1  and  C_2
REMARK    2  A    between atoms: C_2  and  O_3
REMARK    3  A    between atoms: O_3  and  C_4
REMARK    4  A    between atoms: C_7  and  C_10
REMARK    5  A    between atoms: C_17  and  N_33
REMARK    6  A    between atoms: C_18  and  C_31
REMARK    7  A    between atoms: C_19  and  C_21
REMARK    8  A    between atoms: C_24  and  C_27
REMARK                            x       y       z     vdW  Elec       q    Type
REMARK                         _______ _______ _______ _____ _____    ______ ____
ROOT
ATOM      1  C   UNL     1      -1.980  -6.002  -0.043  0.00  0.00    +0.074 A 
ATOM      2  C   UNL     1      -2.902  -6.728  -0.719  0.00  0.00    +0.054 A 
ATOM      3  C   UNL     1      -2.697  -8.088  -0.415  0.00  0.00    +0.245 A 
ATOM      4  N   UNL     1      -1.693  -8.176   0.411  0.00  0.00    -0.135 NA
ATOM      5  N   UNL     1      -1.211  -6.883   0.664  0.00  0.00    -0.273 N 
ATOM      6  H   UNL     1      -0.465  -6.654   1.241  0.00  0.00    +0.189 HD
ATOM      7  O   UNL     1      -3.472  -9.071  -0.948  0.00  0.00    -0.421 OA
ATOM      8  C   UNL     1      -4.267  -8.741  -1.985  0.00  0.00    +0.201 C 
ATOM      9  C   UNL     1      -4.546  -7.476  -2.362  0.00  0.00    +0.098 C 
ATOM     10  C   UNL     1      -3.993  -6.266  -1.651  0.00  0.00    +0.102 C 
ENDROOT
BRANCH   1  14
ATOM     11  C   UNL     1      -1.546  -1.775  -0.122  0.00  0.00    +0.121 A 
ATOM     12  C   UNL     1      -1.535  -2.449   1.091  0.00  0.00    +0.046 A 
ATOM     13  C   UNL     1      -1.676  -3.821   1.121  0.00  0.00    +0.013 A 
ATOM     14  C   UNL     1      -1.829  -4.530  -0.071  0.00  0.00    +0.000 A 
ATOM     15  C   UNL     1      -1.840  -3.849  -1.288  0.00  0.00    +0.013 A 
ATOM     16  C   UNL     1      -1.703  -2.477  -1.310  0.00  0.00    +0.046 A 
BRANCH  11  17
ATOM     17  O   UNL     1      -1.407  -0.423  -0.147  0.00  0.00    -0.492 OA
BRANCH  17  19
ATOM     18  C   UNL     1      -1.108   1.743   0.882  0.00  0.00    +0.048 C 
ATOM     19  C   UNL     1      -1.248   0.236   1.111  0.00  0.00    +0.225 C 
ENDBRANCH  17  19
ENDBRANCH  11  17
ENDBRANCH   1  14
BRANCH  10  20
ATOM     20  C   UNL     1      -5.087  -5.596  -0.862  0.00  0.00    -0.035 A 
ATOM     21  C   UNL     1      -5.715  -6.276   0.166  0.00  0.00    +0.005 A 
ATOM     22  C   UNL     1      -6.718  -5.661   0.890  0.00  0.00    +0.012 A 
ATOM     23  C   UNL     1      -7.094  -4.365   0.588  0.00  0.00    +0.055 A 
ATOM     24  C   UNL     1      -6.466  -3.685  -0.438  0.00  0.00    +0.012 A 
ATOM     25  C   UNL     1      -5.460  -4.298  -1.160  0.00  0.00    +0.005 A 
BRANCH  23  26
ATOM     26  C   UNL     1      -8.189  -3.695   1.378  0.00  0.00    +0.417 C 
ATOM     27  F   UNL     1      -7.632  -3.029   2.474  0.00  0.00    -0.166 F 
ATOM     28  F   UNL     1      -8.855  -2.774   0.562  0.00  0.00    -0.166 F 
ATOM     29  F   UNL     1      -9.096  -4.660   1.829  0.00  0.00    -0.166 F 
ENDBRANCH  23  26
ENDBRANCH  10  20
BRANCH   8  30
ATOM     30  N   UNL     1      -4.833  -9.762  -2.707  0.00  0.00    -0.328 N 
ATOM     31  H   UNL     1      -4.655 -10.684  -2.464  0.00  0.00    +0.145 HD
ATOM     32  H   UNL     1      -5.411  -9.562  -3.459  0.00  0.00    +0.145 HD
ENDBRANCH   8  30
BRANCH   9  33
ATOM     33  C   UNL     1      -5.407  -7.272  -3.489  0.00  0.00    +0.101 C 
ATOM     34  N   UNL     1      -6.089  -7.111  -4.382  0.00  0.00    -0.191 NA
ENDBRANCH   9  33
TORSDOF 7
