REMARK  Name = ZINC20266932
REMARK  7 active torsions:
REMARK  status: ('A' for Active; 'I' for Inactive)
REMARK    1  A    between atoms: C_1  and  C_2
REMARK    2  A    between atoms: C_2  and  O_3
REMARK    3  A    between atoms: O_3  and  C_4
REMARK    4  A    between atoms: C_9  and  N_10
REMARK    5  A    between atoms: C_14  and  N_15
REMARK    6  A    between atoms: N_15  and  C_16
REMARK    7  A    between atoms: C_22  and  N_24
REMARK                            x       y       z     vdW  Elec       q    Type
REMARK                         _______ _______ _______ _____ _____    ______ ____
ROOT
ATOM      1  N   UNL     1       1.840  -1.142  -3.250  0.00  0.00    -0.186 N 
ATOM      2  C   UNL     1       3.170  -0.917  -3.241  0.00  0.00    +0.265 C 
ATOM      3  O   UNL     1       3.895  -1.486  -2.447  0.00  0.00    -0.269 OA
ATOM      4  C   UNL     1       3.721   0.036  -4.221  0.00  0.00    +0.113 C 
ATOM      5  C   UNL     1       5.074   0.316  -4.273  0.00  0.00    +0.086 C 
ATOM      6  C   UNL     1       2.767   0.677  -5.144  0.00  0.00    +0.258 C 
ATOM      7  O   UNL     1       3.147   1.474  -5.981  0.00  0.00    -0.270 OA
ATOM      8  N   UNL     1       1.462   0.355  -5.037  0.00  0.00    -0.235 N 
ATOM      9  C   UNL     1       1.030  -0.526  -4.123  0.00  0.00    +0.320 C 
ATOM     10  O   UNL     1      -0.158  -0.776  -4.081  0.00  0.00    -0.251 OA
ATOM     11  H   UNL     1       0.821   0.768  -5.636  0.00  0.00    +0.159 HD
ENDROOT
BRANCH   1  17
ATOM     12  C   UNL     1       0.857  -1.595  -1.083  0.00  0.00    +0.142 A 
ATOM     13  C   UNL     1       0.311  -2.490  -0.177  0.00  0.00    +0.047 A 
ATOM     14  C   UNL     1       0.204  -3.828  -0.507  0.00  0.00    +0.004 A 
ATOM     15  C   UNL     1       0.641  -4.277  -1.740  0.00  0.00    +0.002 A 
ATOM     16  C   UNL     1       1.187  -3.390  -2.648  0.00  0.00    +0.028 A 
ATOM     17  C   UNL     1       1.292  -2.045  -2.326  0.00  0.00    +0.087 A 
BRANCH  12  18
ATOM     18  O   UNL     1       0.962  -0.278  -0.759  0.00  0.00    -0.490 OA
BRANCH  18  20
ATOM     19  C   UNL     1       0.695   1.618   0.715  0.00  0.00    +0.048 C 
ATOM     20  C   UNL     1       0.496   0.112   0.534  0.00  0.00    +0.226 C 
ENDBRANCH  18  20
ENDBRANCH  12  18
ENDBRANCH   1  17
BRANCH   5  21
ATOM     21  N   UNL     1       5.570   1.063  -5.280  0.00  0.00    -0.348 N 
ATOM     22  H   UNL     1       4.993   1.336  -6.011  0.00  0.00    +0.146 HD
BRANCH  21  23
ATOM     23  C   UNL     1       6.980   1.461  -5.271  0.00  0.00    +0.055 C 
ATOM     24  C   UNL     1       7.830   0.343  -5.876  0.00  0.00    +0.020 C 
ATOM     25  C   UNL     1       7.382   0.085  -7.316  0.00  0.00    +0.002 C 
ATOM     26  C   UNL     1       7.556   1.361  -8.141  0.00  0.00    -0.001 C 
ATOM     27  C   UNL     1       6.706   2.480  -7.535  0.00  0.00    -0.014 C 
ATOM     28  C   UNL     1       7.154   2.738  -6.095  0.00  0.00    -0.055 C 
BRANCH  28  29
ATOM     29  N   UNL     1       6.337   3.812  -5.514  0.00  0.00    +0.381 N 
ATOM     30  H   UNL     1       6.633   3.982  -4.564  0.00  0.00    -0.090 HD
ATOM     31  H   UNL     1       6.452   4.654  -6.058  0.00  0.00    -0.090 HD
ATOM     32  H   UNL     1       5.367   3.537  -5.520  0.00  0.00    -0.090 HD
ENDBRANCH  28  29
ENDBRANCH  21  23
ENDBRANCH   5  21
TORSDOF 6
