REMARK  Name = ZINC10507774
REMARK  9 active torsions:
REMARK  status: ('A' for Active; 'I' for Inactive)
REMARK    1  A    between atoms: C_1  and  N_49
REMARK    2  A    between atoms: C_2  and  N_49
REMARK    3  A    between atoms: C_3  and  C_5
REMARK    4  A    between atoms: C_3  and  C_19
REMARK    5  A    between atoms: C_3  and  N_49
REMARK    6  A    between atoms: C_5  and  N_6
REMARK    7  A    between atoms: N_6  and  S_7
REMARK    8  A    between atoms: S_7  and  C_10
REMARK    9  A    between atoms: C_14  and  N_16
REMARK                            x       y       z     vdW  Elec       q    Type
REMARK                         _______ _______ _______ _____ _____    ______ ____
ROOT
ATOM      1  C   UNL     1       3.933   2.248  -0.159  0.00  0.00    -0.022 C 
ENDROOT
BRANCH   1   2
ATOM      2  C   UNL     1       2.617   1.602  -0.509  0.00  0.00    -0.052 A 
ATOM      3  C   UNL     1       2.455   0.989  -1.714  0.00  0.00    +0.002 A 
ATOM      4  C   UNL     1       1.246   0.386  -2.056  0.00  0.00    +0.001 A 
ATOM      5  C   UNL     1       0.192   0.392  -1.194  0.00  0.00    +0.008 A 
ATOM      6  C   UNL     1       0.322   1.015   0.058  0.00  0.00    -0.018 A 
ATOM      7  C   UNL     1       1.551   1.628   0.406  0.00  0.00    -0.016 A 
ATOM      8  C   UNL     1       1.681   2.252   1.659  0.00  0.00    +0.009 A 
ATOM      9  C   UNL     1       0.626   2.258   2.520  0.00  0.00    +0.001 A 
ATOM     10  C   UNL     1      -0.583   1.655   2.178  0.00  0.00    +0.001 A 
ATOM     11  C   UNL     1      -0.746   1.046   0.972  0.00  0.00    +0.008 A 
ENDBRANCH   1   2
BRANCH   1  14
ATOM     12  C   UNL     1       4.249   0.998   1.891  0.00  0.00    -0.096 C 
ATOM     13  C   UNL     1       4.930   0.042  -0.227  0.00  0.00    -0.096 C 
ATOM     14  N   UNL     1       4.806   1.291   0.553  0.00  0.00    +0.381 N 
ATOM     15  H   UNL     1       5.737   1.709   0.664  0.00  0.00    -0.082 HD
ENDBRANCH   1  14
BRANCH   1  16
ATOM     16  C   UNL     1       4.637   2.699  -1.440  0.00  0.00    +0.095 C 
BRANCH  16  17
ATOM     17  N   UNL     1       5.966   3.218  -1.110  0.00  0.00    -0.191 NA
ATOM     18  H   UNL     1       6.187   3.437  -0.191  0.00  0.00    +0.148 HD
BRANCH  17  19
ATOM     19  S   UNL     1       7.092   3.432  -2.305  0.00  0.00    +0.058 S 
ATOM     20  O   UNL     1       8.252   3.965  -1.681  0.00  0.00    -0.153 OA
ATOM     21  O   UNL     1       7.119   2.227  -3.058  0.00  0.00    -0.153 OA
BRANCH  19  22
ATOM     22  C   UNL     1       6.479   4.684  -3.381  0.00  0.00    +0.107 A 
ATOM     23  C   UNL     1       5.698   4.340  -4.469  0.00  0.00    +0.028 A 
ATOM     24  C   UNL     1       5.213   5.323  -5.311  0.00  0.00    +0.004 A 
ATOM     25  C   UNL     1       5.516   6.650  -5.070  0.00  0.00    +0.033 A 
ATOM     26  C   UNL     1       6.301   6.994  -3.986  0.00  0.00    +0.128 A 
ATOM     27  C   UNL     1       6.782   6.011  -3.142  0.00  0.00    +0.061 A 
BRANCH  26  28
ATOM     28  N   UNL     1       6.626   8.415  -3.729  0.00  0.00    +0.056 N 
ATOM     29  O   UNL     1       7.318   8.718  -2.773  0.00  0.00    -0.126 OA
ATOM     30  O   UNL     1       6.202   9.281  -4.473  0.00  0.00    -0.126 OA
ENDBRANCH  26  28
ENDBRANCH  19  22
ENDBRANCH  17  19
ENDBRANCH  16  17
ENDBRANCH   1  16
TORSDOF 7
