REMARK  Name = ZINC40138450
REMARK  11 active torsions:
REMARK  status: ('A' for Active; 'I' for Inactive)
REMARK    1  A    between atoms: C_1  and  C_2
REMARK    2  A    between atoms: C_6  and  O_8
REMARK    3  A    between atoms: O_8  and  C_9
REMARK    4  A    between atoms: C_9  and  C_10
REMARK    5  A    between atoms: C_10  and  C_11
REMARK    6  A    between atoms: C_11  and  N_12
REMARK    7  A    between atoms: C_16  and  C_36
REMARK    8  A    between atoms: N_20  and  N_21
REMARK    9  A    between atoms: C_22  and  C_24
REMARK   10  A    between atoms: C_24  and  N_25
REMARK   11  A    between atoms: C_26  and  C_28
REMARK                            x       y       z     vdW  Elec       q    Type
REMARK                         _______ _______ _______ _____ _____    ______ ____
ROOT
ATOM      1  N   UNL     1       0.116  -6.893   4.943  0.00  0.00    -0.265 N 
ATOM      2  C   UNL     1       1.273  -7.177   5.661  0.00  0.00    +0.046 A 
ATOM      3  C   UNL     1       2.618  -7.022   5.345  0.00  0.00    +0.024 A 
ATOM      4  C   UNL     1       3.590  -7.390   6.253  0.00  0.00    +0.005 A 
ATOM      5  C   UNL     1       3.241  -7.915   7.486  0.00  0.00    -0.050 A 
ATOM      6  C   UNL     1       1.910  -8.077   7.817  0.00  0.00    +0.015 A 
ATOM      7  C   UNL     1       0.924  -7.709   6.909  0.00  0.00    +0.029 A 
ATOM      8  C   UNL     1      -0.556  -7.750   6.947  0.00  0.00    +0.153 C 
ATOM      9  N   UNL     1      -1.318  -8.174   7.926  0.00  0.00    -0.174 NA
ATOM     10  C   UNL     1      -0.987  -7.201   5.645  0.00  0.00    +0.271 C 
ATOM     11  O   UNL     1      -2.136  -7.057   5.273  0.00  0.00    -0.268 OA
ATOM     12  C   UNL     1       4.314  -8.313   8.466  0.00  0.00    +0.044 C 
ENDROOT
BRANCH   9  13
ATOM     13  N   UNL     1      -2.713  -8.142   7.793  0.00  0.00    -0.205 N 
ATOM     14  C   UNL     1      -3.496  -8.578   8.799  0.00  0.00    +0.249 C 
ATOM     15  O   UNL     1      -2.994  -8.999   9.819  0.00  0.00    -0.272 OA
ATOM     16  H   UNL     1      -3.114  -7.804   6.977  0.00  0.00    +0.177 HD
BRANCH  14  17
ATOM     17  C   UNL     1      -4.996  -8.543   8.656  0.00  0.00    +0.202 C 
BRANCH  17  18
ATOM     18  N   UNL     1      -5.615  -9.067   9.876  0.00  0.00    -0.303 N 
ATOM     19  C   UNL     1      -6.957  -9.131   9.976  0.00  0.00    +0.244 C 
ATOM     20  O   UNL     1      -7.654  -8.755   9.054  0.00  0.00    -0.270 OA
ATOM     21  H   UNL     1      -5.059  -9.367  10.612  0.00  0.00    +0.150 HD
BRANCH  19  22
ATOM     22  C   UNL     1      -7.582  -9.660  11.207  0.00  0.00    +0.037 A 
ATOM     23  C   UNL     1      -6.785 -10.088  12.270  0.00  0.00    +0.013 A 
ATOM     24  C   UNL     1      -7.375 -10.580  13.416  0.00  0.00    +0.001 A 
ATOM     25  C   UNL     1      -8.753 -10.650  13.513  0.00  0.00    +0.000 A 
ATOM     26  C   UNL     1      -9.549 -10.228  12.463  0.00  0.00    +0.001 A 
ATOM     27  C   UNL     1      -8.972  -9.728  11.314  0.00  0.00    +0.013 A 
ENDBRANCH  19  22
ENDBRANCH  17  18
ENDBRANCH  14  17
ENDBRANCH   9  13
BRANCH   1  28
ATOM     28  C   UNL     1       0.103  -6.324   3.593  0.00  0.00    +0.117 C 
BRANCH  28  29
ATOM     29  C   UNL     1       0.083  -4.796   3.683  0.00  0.00    +0.060 C 
BRANCH  29  30
ATOM     30  C   UNL     1       0.069  -4.202   2.274  0.00  0.00    +0.230 C 
BRANCH  30  31
ATOM     31  O   UNL     1       0.050  -2.776   2.358  0.00  0.00    -0.492 OA
BRANCH  31  37
ATOM     32  C   UNL     1      -0.018   1.503   0.010  0.00  0.00    +0.044 C 
ATOM     33  C   UNL     1       0.002  -0.004   0.002  0.00  0.00    -0.047 A 
ATOM     34  C   UNL     1       0.006  -0.688  -1.200  0.00  0.00    +0.003 A 
ATOM     35  C   UNL     1       0.024  -2.071  -1.211  0.00  0.00    +0.004 A 
ATOM     36  C   UNL     1       0.039  -2.772  -0.020  0.00  0.00    +0.045 A 
ATOM     37  C   UNL     1       0.035  -2.088   1.186  0.00  0.00    +0.121 A 
ATOM     38  C   UNL     1       0.023  -0.700   1.195  0.00  0.00    +0.049 A 
ENDBRANCH  31  37
ENDBRANCH  30  31
ENDBRANCH  29  30
ENDBRANCH  28  29
ENDBRANCH   1  28
TORSDOF 9
