REMARK  Name = ZINC40822185
REMARK  10 active torsions:
REMARK  status: ('A' for Active; 'I' for Inactive)
REMARK    1  A    between atoms: C_1  and  C_2
REMARK    2  A    between atoms: C_5  and  O_33
REMARK    3  A    between atoms: C_6  and  N_8
REMARK    4  A    between atoms: C_9  and  C_11
REMARK    5  A    between atoms: C_12  and  C_32
REMARK    6  A    between atoms: N_20  and  N_21
REMARK    7  A    between atoms: C_22  and  C_24
REMARK    8  A    between atoms: C_28  and  O_30
REMARK    9  A    between atoms: O_30  and  C_31
REMARK   10  A    between atoms: O_33  and  C_34
REMARK                            x       y       z     vdW  Elec       q    Type
REMARK                         _______ _______ _______ _____ _____    ______ ____
ROOT
ATOM      1  C   UNL     1       0.277  -2.873   4.825  0.00  0.00    +0.193 A 
ATOM      2  C   UNL     1       0.379  -2.322   6.072  0.00  0.00    +0.009 A 
ATOM      3  C   UNL     1       0.479  -3.394   6.967  0.00  0.00    +0.042 A 
ATOM      4  C   UNL     1       0.436  -4.553   6.229  0.00  0.00    +0.115 A 
ATOM      5  O   UNL     1       0.306  -4.220   4.947  0.00  0.00    -0.454 OA
ATOM      6  C   UNL     1       0.523  -5.924   6.850  0.00  0.00    +0.075 C 
ATOM      7  C   UNL     1       1.160  -5.814   8.238  0.00  0.00    +0.014 C 
ATOM      8  C   UNL     1       0.424  -4.775   9.090  0.00  0.00    +0.058 C 
ATOM      9  C   UNL     1       0.608  -3.411   8.441  0.00  0.00    +0.070 C 
ATOM     10  N   UNL     1       0.861  -2.341   9.130  0.00  0.00    -0.184 NA
ATOM     11  C   UNL     1       0.382  -0.854   6.414  0.00  0.00    +0.048 C 
ENDROOT
BRANCH   1  13
ATOM     12  N   UNL     1       0.051  -2.794   2.398  0.00  0.00    -0.276 N 
ATOM     13  C   UNL     1       0.150  -2.130   3.567  0.00  0.00    +0.284 C 
ATOM     14  O   UNL     1       0.134  -0.913   3.578  0.00  0.00    -0.266 OA
ATOM     15  H   UNL     1      -0.017  -3.762   2.395  0.00  0.00    +0.155 HD
BRANCH  12  21
ATOM     16  C   UNL     1       1.264   1.227  -0.158  0.00  0.00    +0.044 C 
ATOM     17  C   UNL     1       0.627  -0.137  -0.079  0.00  0.00    -0.048 A 
ATOM     18  C   UNL     1       0.040  -0.689  -1.202  0.00  0.00    +0.007 A 
ATOM     19  C   UNL     1      -0.546  -1.940  -1.136  0.00  0.00    +0.048 A 
ATOM     20  C   UNL     1      -0.545  -2.644   0.058  0.00  0.00    +0.141 A 
ATOM     21  C   UNL     1       0.047  -2.088   1.189  0.00  0.00    +0.076 A 
ATOM     22  C   UNL     1       0.638  -0.835   1.114  0.00  0.00    +0.030 A 
BRANCH  20  23
ATOM     23  O   UNL     1      -1.121  -3.874   0.124  0.00  0.00    -0.493 OA
ATOM     24  C   UNL     1      -1.710  -4.380  -1.075  0.00  0.00    +0.277 C 
ENDBRANCH  20  23
ENDBRANCH  12  21
ENDBRANCH   1  13
BRANCH  10  25
ATOM     25  N   UNL     1       0.973  -2.416  10.525  0.00  0.00    -0.203 N 
ATOM     26  C   UNL     1       1.236  -1.304  11.241  0.00  0.00    +0.263 C 
ATOM     27  O   UNL     1       1.375  -0.236  10.676  0.00  0.00    -0.268 OA
ATOM     28  H   UNL     1       0.862  -3.268  10.975  0.00  0.00    +0.178 HD
BRANCH  26  29
ATOM     29  C   UNL     1       1.354  -1.383  12.712  0.00  0.00    +0.042 A 
ATOM     30  C   UNL     1       1.200  -2.609  13.362  0.00  0.00    +0.013 A 
ATOM     31  C   UNL     1       1.311  -2.679  14.735  0.00  0.00    +0.004 A 
ATOM     32  C   UNL     1       1.574  -1.539  15.471  0.00  0.00    +0.045 A 
ATOM     33  C   UNL     1       1.729  -0.315  14.834  0.00  0.00    +0.121 A 
ATOM     34  C   UNL     1       1.625  -0.234  13.455  0.00  0.00    +0.058 A 
BRANCH  33  35
ATOM     35  O   UNL     1       1.988   0.802  15.562  0.00  0.00    -0.495 OA
ATOM     36  C   UNL     1       2.088   0.645  16.979  0.00  0.00    +0.277 C 
ENDBRANCH  33  35
ENDBRANCH  26  29
ENDBRANCH  10  25
TORSDOF 6
