REMARK  Name = ZINC06921174
REMARK  24 active torsions:
REMARK  status: ('A' for Active; 'I' for Inactive)
REMARK    1  A    between atoms: C_1  and  C_2
REMARK    2  A    between atoms: C_2  and  C_3
REMARK    3  A    between atoms: C_2  and  C_4
REMARK    4  A    between atoms: C_4  and  C_5
REMARK    5  A    between atoms: C_5  and  C_6
REMARK    6  A    between atoms: C_6  and  C_7
REMARK    7  A    between atoms: C_7  and  C_8
REMARK    8  A    between atoms: C_8  and  C_9
REMARK    9  A    between atoms: C_9  and  C_10
REMARK   10  A    between atoms: C_10  and  O_11
REMARK   11  A    between atoms: O_11  and  P_12
REMARK   12  A    between atoms: P_12  and  O_13
REMARK   13  A    between atoms: P_12  and  O_24
REMARK   14  A    between atoms: O_13  and  C_14
REMARK   15  A    between atoms: C_14  and  C_15
REMARK   16  A    between atoms: C_15  and  C_16
REMARK   17  A    between atoms: C_16  and  C_17
REMARK   18  A    between atoms: C_17  and  C_18
REMARK   19  A    between atoms: C_18  and  C_19
REMARK   20  A    between atoms: C_19  and  C_20
REMARK   21  A    between atoms: C_20  and  C_21
REMARK   22  A    between atoms: C_21  and  C_22
REMARK   23  A    between atoms: C_21  and  C_23
REMARK   24  A    between atoms: O_24  and  C_25
REMARK                            x       y       z     vdW  Elec       q    Type
REMARK                         _______ _______ _______ _____ _____    ______ ____
ROOT
ATOM      1  P   UNL     1       4.143  -0.942  -1.515  0.00  0.00    +0.399 P 
ENDROOT
BRANCH   1   2
ATOM      2  O   UNL     1       3.364  -2.247  -2.048  0.00  0.00    -0.302 OA
BRANCH   2   3
ATOM      3  C   UNL     1       2.046  -2.195  -2.599  0.00  0.00    +0.170 C 
BRANCH   3   4
ATOM      4  C   UNL     1       1.607  -3.604  -3.003  0.00  0.00    +0.029 C 
BRANCH   4   5
ATOM      5  C   UNL     1       0.197  -3.550  -3.593  0.00  0.00    +0.002 C 
BRANCH   5   6
ATOM      6  C   UNL     1      -0.242  -4.958  -3.998  0.00  0.00    +0.000 C 
BRANCH   6   7
ATOM      7  C   UNL     1      -1.653  -4.904  -4.588  0.00  0.00    +0.000 C 
BRANCH   7   8
ATOM      8  C   UNL     1      -2.091  -6.312  -4.992  0.00  0.00    +0.000 C 
BRANCH   8   9
ATOM      9  C   UNL     1      -3.502  -6.258  -5.582  0.00  0.00    +0.003 C 
BRANCH   9  10
ATOM     10  C   UNL     1      -3.941  -7.666  -5.986  0.00  0.00    -0.017 C 
ATOM     11  C   UNL     1      -5.395  -7.631  -6.460  0.00  0.00    +0.007 C 
ATOM     12  C   UNL     1      -3.047  -8.173  -7.120  0.00  0.00    +0.007 C 
ENDBRANCH   9  10
ENDBRANCH   8   9
ENDBRANCH   7   8
ENDBRANCH   6   7
ENDBRANCH   5   6
ENDBRANCH   4   5
ENDBRANCH   3   4
ENDBRANCH   2   3
ENDBRANCH   1   2
BRANCH   1  13
ATOM     13  O   UNL     1       3.586  -0.632  -0.037  0.00  0.00    -0.426 OA
BRANCH  13  14
ATOM     14  C   UNL     1       2.399   0.030  -0.021  0.00  0.00    +0.129 A 
ATOM     15  C   UNL     1       1.207  -0.680  -0.014  0.00  0.00    +0.046 A 
ATOM     16  C   UNL     1       0.002  -0.004   0.002  0.00  0.00    +0.004 A 
ATOM     17  C   UNL     1      -0.017   1.378   0.010  0.00  0.00    +0.000 A 
ATOM     18  C   UNL     1       1.170   2.088   0.002  0.00  0.00    +0.004 A 
ATOM     19  C   UNL     1       2.377   1.417  -0.013  0.00  0.00    +0.046 A 
ENDBRANCH  13  14
ENDBRANCH   1  13
BRANCH   1  20
ATOM     20  O   UNL     1       5.692  -1.351  -1.358  0.00  0.00    -0.302 OA
BRANCH  20  21
ATOM     21  C   UNL     1       6.739  -0.390  -1.209  0.00  0.00    +0.170 C 
BRANCH  21  22
ATOM     22  C   UNL     1       8.082  -1.113  -1.086  0.00  0.00    +0.029 C 
BRANCH  22  23
ATOM     23  C   UNL     1       9.203  -0.084  -0.927  0.00  0.00    +0.002 C 
BRANCH  23  24
ATOM     24  C   UNL     1      10.545  -0.807  -0.804  0.00  0.00    +0.000 C 
BRANCH  24  25
ATOM     25  C   UNL     1      11.666   0.222  -0.644  0.00  0.00    +0.000 C 
BRANCH  25  26
ATOM     26  C   UNL     1      13.009  -0.502  -0.521  0.00  0.00    +0.000 C 
BRANCH  26  27
ATOM     27  C   UNL     1      14.130   0.527  -0.361  0.00  0.00    +0.003 C 
BRANCH  27  29
ATOM     28  C   UNL     1      16.604   0.833  -0.204  0.00  0.00    +0.007 C 
ATOM     29  C   UNL     1      15.472  -0.196  -0.238  0.00  0.00    -0.017 C 
ATOM     30  C   UNL     1      15.492  -1.019   1.052  0.00  0.00    +0.007 C 
ENDBRANCH  27  29
ENDBRANCH  26  27
ENDBRANCH  25  26
ENDBRANCH  24  25
ENDBRANCH  23  24
ENDBRANCH  22  23
ENDBRANCH  21  22
ENDBRANCH  20  21
ENDBRANCH   1  20
TORSDOF 20
