REMARK  Name = ZINC13963392
REMARK  6 active torsions:
REMARK  status: ('A' for Active; 'I' for Inactive)
REMARK    1  A    between atoms: C_2  and  C_3
REMARK    2  A    between atoms: C_3  and  N_4
REMARK    3  A    between atoms: N_13  and  C_14
REMARK    4  A    between atoms: C_14  and  C_16
REMARK    5  A    between atoms: N_21  and  S_23
REMARK    6  A    between atoms: S_23  and  C_26
REMARK                            x       y       z     vdW  Elec       q    Type
REMARK                         _______ _______ _______ _____ _____    ______ ____
ROOT
ATOM      1  C   UNL     1       2.910   8.126   0.019  0.00  0.00    +0.243 C 
ATOM      2  O   UNL     1       3.782   7.278   0.006  0.00  0.00    -0.273 OA
ENDROOT
BRANCH   1  12
ATOM      3  N   UNL     1       0.065   5.918   0.033  0.00  0.00    -0.317 N 
ATOM      4  C   UNL     1      -0.079   4.542   0.026  0.00  0.00    +0.058 A 
ATOM      5  C   UNL     1      -1.265   3.791   0.033  0.00  0.00    +0.028 A 
ATOM      6  C   UNL     1      -1.226   2.417   0.021  0.00  0.00    +0.022 A 
ATOM      7  C   UNL     1      -0.021   1.732   0.012  0.00  0.00    +0.042 A 
ATOM      8  C   UNL     1       1.163   2.449   0.004  0.00  0.00    +0.037 A 
ATOM      9  C   UNL     1       1.125   3.823   0.011  0.00  0.00    +0.040 A 
ATOM     10  S   UNL     1       2.361   5.097   0.007  0.00  0.00    -0.052 S 
ATOM     11  C   UNL     1       1.305   6.473   0.024  0.00  0.00    +0.167 A 
ATOM     12  N   UNL     1       1.632   7.764   0.029  0.00  0.00    -0.156 NA
ATOM     13 CL   UNL     1       0.002  -0.004   0.002  0.00  0.00    -0.084 Cl
BRANCH   3  14
ATOM     14  C   UNL     1      -1.121   6.777   0.049  0.00  0.00    +0.151 C 
BRANCH  14  16
ATOM     15  C   UNL     1      -1.639   8.302   1.883  0.00  0.00    +0.005 C 
ATOM     16  C   UNL     1      -1.515   7.064   1.475  0.00  0.00    -0.013 C 
ENDBRANCH  14  16
ENDBRANCH   3  14
ENDBRANCH   1  12
BRANCH   1  17
ATOM     17  C   UNL     1       3.280   9.587   0.024  0.00  0.00    +0.093 C 
ATOM     18  C   UNL     1       2.694  10.266  -1.217  0.00  0.00    +0.015 C 
ATOM     19  C   UNL     1       3.041  11.756  -1.196  0.00  0.00    +0.018 C 
ATOM     20  C   UNL     1       4.564  11.922  -1.227  0.00  0.00    +0.109 C 
ATOM     21  N   UNL     1       5.146  11.152  -0.120  0.00  0.00    -0.175 NA
ATOM     22  C   UNL     1       4.805   9.728   0.006  0.00  0.00    +0.122 C 
BRANCH  21  23
ATOM     23  S   UNL     1       6.168  11.874   0.965  0.00  0.00    +0.067 S 
ATOM     24  O   UNL     1       6.968  10.839   1.520  0.00  0.00    -0.152 OA
ATOM     25  O   UNL     1       6.731  13.000   0.305  0.00  0.00    -0.152 OA
BRANCH  23  26
ATOM     26  C   UNL     1       5.176  12.503   2.277  0.00  0.00    +0.144 A 
ATOM     27  C   UNL     1       4.790  11.893   3.424  0.00  0.00    +0.038 A 
ATOM     28  C   UNL     1       4.005  12.589   4.324  0.00  0.00    +0.030 A 
ATOM     29  C   UNL     1       3.634  13.860   4.026  0.00  0.00    +0.080 A 
ATOM     30  S   UNL     1       4.410  14.108   2.437  0.00  0.00    -0.057 S 
ATOM     31 CL   UNL     1       2.658  14.958   4.949  0.00  0.00    -0.076 Cl
ENDBRANCH  23  26
ENDBRANCH  21  23
ENDBRANCH   1  17
TORSDOF 6
