REMARK  Name = ZINC64581711
REMARK  10 active torsions:
REMARK  status: ('A' for Active; 'I' for Inactive)
REMARK    1  A    between atoms: C_1  and  C_2
REMARK    2  A    between atoms: C_2  and  C_3
REMARK    3  A    between atoms: C_2  and  C_4
REMARK    4  A    between atoms: C_4  and  N_5
REMARK    5  A    between atoms: C_11  and  C_28
REMARK    6  A    between atoms: N_17  and  C_20
REMARK    7  A    between atoms: C_20  and  C_21
REMARK    8  A    between atoms: N_30  and  C_31
REMARK    9  A    between atoms: C_31  and  C_32
REMARK   10  A    between atoms: C_31  and  C_33
REMARK                            x       y       z     vdW  Elec       q    Type
REMARK                         _______ _______ _______ _____ _____    ______ ____
ROOT
ATOM      1  N   UNL     1      -0.008  -0.140   2.444  0.00  0.00    -0.276 N 
ATOM      2  C   UNL     1       0.242   1.041   3.043  0.00  0.00    +0.263 A 
ATOM      3  O   UNL     1       1.083   1.795   2.594  0.00  0.00    -0.267 OA
ATOM      4  C   UNL     1      -0.521   1.404   4.255  0.00  0.00    +0.064 A 
ATOM      5  C   UNL     1      -0.297   2.615   4.908  0.00  0.00    +0.016 A 
ATOM      6  C   UNL     1      -1.024   2.929   6.036  0.00  0.00    +0.014 A 
ATOM      7  C   UNL     1      -1.983   2.038   6.525  0.00  0.00    +0.039 A 
ATOM      8  C   UNL     1      -2.211   0.827   5.876  0.00  0.00    +0.040 A 
ATOM      9  C   UNL     1      -1.482   0.507   4.742  0.00  0.00    +0.067 A 
ATOM     10  N   UNL     1      -1.693  -0.700   4.074  0.00  0.00    -0.229 N 
ATOM     11  C   UNL     1      -0.969  -1.008   2.944  0.00  0.00    +0.240 A 
ATOM     12  N   UNL     1      -1.358  -2.177   2.512  0.00  0.00    -0.129 NA
ATOM     13  N   UNL     1      -2.361  -2.648   3.369  0.00  0.00    -0.206 N 
ATOM     14  C   UNL     1      -2.541  -1.718   4.329  0.00  0.00    +0.353 A 
ATOM     15  O   UNL     1      -3.334  -1.781   5.251  0.00  0.00    -0.244 OA
ENDROOT
BRANCH   7  16
ATOM     16  C   UNL     1      -2.759   2.383   7.738  0.00  0.00    +0.244 C 
ATOM     17  O   UNL     1      -3.593   1.610   8.166  0.00  0.00    -0.270 OA
ATOM     18  N   UNL     1      -2.540   3.554   8.368  0.00  0.00    -0.309 N 
ATOM     19  H   UNL     1      -1.874   4.172   8.026  0.00  0.00    +0.149 HD
BRANCH  18  20
ATOM     20  C   UNL     1      -3.308   3.896   9.568  0.00  0.00    +0.067 C 
ATOM     21  C   UNL     1      -2.636   3.278  10.796  0.00  0.00    +0.027 C 
ATOM     22  C   UNL     1      -3.359   5.417   9.725  0.00  0.00    +0.027 C 
ENDBRANCH  18  20
ENDBRANCH   7  16
BRANCH   1  23
ATOM     23  C   UNL     1       0.742  -0.511   1.242  0.00  0.00    +0.131 C 
BRANCH  23  25
ATOM     24  C   UNL     1      -0.019   1.526   0.010  0.00  0.00    +0.009 C 
ATOM     25  C   UNL     1       0.002  -0.004   0.002  0.00  0.00    +0.003 C 
ATOM     26  C   UNL     1       0.718  -0.497  -1.257  0.00  0.00    +0.009 C 
ENDBRANCH  23  25
ENDBRANCH   1  23
BRANCH  13  27
ATOM     27  C   UNL     1      -3.074  -3.922   3.252  0.00  0.00    +0.185 C 
BRANCH  27  28
ATOM     28  C   UNL     1      -4.304  -3.733   2.402  0.00  0.00    -0.008 A 
ATOM     29  C   UNL     1      -5.541  -3.580   3.000  0.00  0.00    +0.007 A 
ATOM     30  C   UNL     1      -6.669  -3.406   2.221  0.00  0.00    +0.000 A 
ATOM     31  C   UNL     1      -6.562  -3.385   0.843  0.00  0.00    +0.001 A 
ATOM     32  C   UNL     1      -5.326  -3.538   0.243  0.00  0.00    +0.020 A 
ATOM     33  C   UNL     1      -4.195  -3.706   1.023  0.00  0.00    +0.046 A 
ATOM     34 CL   UNL     1      -2.642  -3.892   0.271  0.00  0.00    -0.083 Cl
ENDBRANCH  27  28
ENDBRANCH  13  27
TORSDOF 6
