REMARK  Name = ZINC01044995
REMARK  7 active torsions:
REMARK  status: ('A' for Active; 'I' for Inactive)
REMARK    1  A    between atoms: C_4  and  N_11
REMARK    2  A    between atoms: C_5  and  C_7
REMARK    3  A    between atoms: N_11  and  S_12
REMARK    4  A    between atoms: S_12  and  C_15
REMARK    5  A    between atoms: C_18  and  N_21
REMARK    6  A    between atoms: N_21  and  S_22
REMARK    7  A    between atoms: S_22  and  C_25
REMARK                            x       y       z     vdW  Elec       q    Type
REMARK                         _______ _______ _______ _____ _____    ______ ____
ROOT
ATOM      1  C   UNL     1      -2.164   2.091  -1.791  0.00  0.00    +0.109 A 
ATOM      2  C   UNL     1      -1.713   3.369  -2.069  0.00  0.00    +0.030 A 
ATOM      3  C   UNL     1      -1.804   3.871  -3.352  0.00  0.00    +0.026 A 
ATOM      4  C   UNL     1      -2.359   3.095  -4.362  0.00  0.00    +0.048 A 
ATOM      5  C   UNL     1      -2.817   1.815  -4.078  0.00  0.00    +0.026 A 
ATOM      6  C   UNL     1      -2.718   1.317  -2.794  0.00  0.00    +0.030 A 
ENDROOT
BRANCH   1   7
ATOM      7  S   UNL     1      -2.040   1.452  -0.154  0.00  0.00    +0.072 S 
ATOM      8  O   UNL     1      -3.034   0.444  -0.035  0.00  0.00    -0.150 OA
ATOM      9  O   UNL     1      -1.984   2.573   0.717  0.00  0.00    -0.150 OA
BRANCH   7  10
ATOM     10  N   UNL     1      -0.575   0.688  -0.036  0.00  0.00    -0.216 N 
ATOM     11  H   UNL     1      -0.537  -0.260   0.166  0.00  0.00    +0.174 HD
BRANCH  10  15
ATOM     12  C   UNL     1       2.944   2.834  -0.627  0.00  0.00    +0.001 A 
ATOM     13  C   UNL     1       1.865   3.436  -0.004  0.00  0.00    +0.002 A 
ATOM     14  C   UNL     1       0.695   2.728   0.189  0.00  0.00    +0.025 A 
ATOM     15  C   UNL     1       0.605   1.408  -0.234  0.00  0.00    +0.060 A 
ATOM     16  C   UNL     1       1.690   0.807  -0.859  0.00  0.00    +0.077 A 
ATOM     17  C   UNL     1       2.856   1.522  -1.054  0.00  0.00    +0.014 A 
BRANCH  16  18
ATOM     18  C   UNL     1       1.595  -0.623  -1.325  0.00  0.00    +0.419 C 
ATOM     19  F   UNL     1       2.804  -1.000  -1.919  0.00  0.00    -0.166 F 
ATOM     20  F   UNL     1       1.334  -1.454  -0.231  0.00  0.00    -0.166 F 
ATOM     21  F   UNL     1       0.560  -0.741  -2.258  0.00  0.00    -0.166 F 
ENDBRANCH  16  18
ENDBRANCH  10  15
ENDBRANCH   7  10
ENDBRANCH   1   7
BRANCH   4  22
ATOM     22  N   UNL     1      -2.458   3.602  -5.660  0.00  0.00    -0.216 N 
ATOM     23  H   UNL     1      -2.204   3.051  -6.416  0.00  0.00    +0.174 HD
BRANCH  22  24
ATOM     24  S   UNL     1      -3.010   5.144  -5.906  0.00  0.00    +0.072 S 
ATOM     25  O   UNL     1      -2.270   5.985  -5.031  0.00  0.00    -0.150 OA
ATOM     26  O   UNL     1      -3.038   5.345  -7.313  0.00  0.00    -0.150 OA
BRANCH  24  27
ATOM     27  C   UNL     1      -4.683   5.194  -5.356  0.00  0.00    +0.109 A 
ATOM     28  C   UNL     1      -5.702   4.809  -6.208  0.00  0.00    +0.030 A 
ATOM     29  C   UNL     1      -7.014   4.842  -5.776  0.00  0.00    +0.022 A 
ATOM     30  C   UNL     1      -7.309   5.271  -4.494  0.00  0.00    +0.041 A 
ATOM     31  C   UNL     1      -6.290   5.661  -3.644  0.00  0.00    +0.022 A 
ATOM     32  C   UNL     1      -4.977   5.622  -4.076  0.00  0.00    +0.030 A 
ATOM     33 CL   UNL     1      -8.958   5.319  -3.952  0.00  0.00    -0.084 Cl
ENDBRANCH  24  27
ENDBRANCH  22  24
ENDBRANCH   4  22
TORSDOF 7
