REMARK  Name = ZINC10077699
REMARK  8 active torsions:
REMARK  status: ('A' for Active; 'I' for Inactive)
REMARK    1  A    between atoms: C_6  and  C_7
REMARK    2  A    between atoms: C_8  and  C_13
REMARK    3  A    between atoms: N_15  and  C_16
REMARK    4  A    between atoms: C_16  and  C_17
REMARK    5  A    between atoms: C_17  and  N_18
REMARK    6  A    between atoms: N_18  and  C_19
REMARK    7  A    between atoms: C_22  and  C_28
REMARK    8  A    between atoms: C_24  and  N_25
REMARK                            x       y       z     vdW  Elec       q    Type
REMARK                         _______ _______ _______ _____ _____    ______ ____
ROOT
ATOM      1  C   UNL     1      -5.612   1.752   0.408  0.00  0.00    +0.248 C 
ATOM      2  O   UNL     1      -4.728   2.571   0.572  0.00  0.00    -0.270 OA
ATOM      3  N   UNL     1      -6.730   1.809   1.157  0.00  0.00    -0.310 N 
ATOM      4  H   UNL     1      -7.435   1.156   1.026  0.00  0.00    +0.149 HD
ENDROOT
BRANCH   1   6
ATOM      5  C   UNL     1      -4.313   0.497  -1.501  0.00  0.00    +0.105 A 
ATOM      6  C   UNL     1      -5.459   0.698  -0.609  0.00  0.00    +0.082 A 
ATOM      7  C   UNL     1      -6.366  -0.297  -0.911  0.00  0.00    +0.118 A 
ATOM      8  N   UNL     1      -5.844  -1.047  -1.892  0.00  0.00    -0.283 N 
ATOM      9  H   UNL     1      -6.286  -1.843  -2.306  0.00  0.00    +0.188 HD
ATOM     10  N   UNL     1      -4.588  -0.547  -2.249  0.00  0.00    -0.173 NA
BRANCH   5  16
ATOM     11  C   UNL     1      -3.147   2.693  -1.326  0.00  0.00    +0.014 A 
ATOM     12  C   UNL     1      -2.000   3.457  -1.379  0.00  0.00    +0.050 A 
ATOM     13  C   UNL     1      -0.775   2.862  -1.651  0.00  0.00    +0.162 A 
ATOM     14  C   UNL     1      -0.703   1.490  -1.876  0.00  0.00    +0.163 A 
ATOM     15  C   UNL     1      -1.852   0.720  -1.828  0.00  0.00    +0.059 A 
ATOM     16  C   UNL     1      -3.080   1.319  -1.553  0.00  0.00    +0.007 A 
ATOM     17  O   UNL     1       0.490   0.891  -2.143  0.00  0.00    -0.485 OA
ATOM     18  C   UNL     1       1.562   1.746  -2.553  0.00  0.00    +0.270 C 
ATOM     19  C   UNL     1       1.600   2.954  -1.608  0.00  0.00    +0.270 C 
ATOM     20  O   UNL     1       0.344   3.635  -1.699  0.00  0.00    -0.485 OA
ENDBRANCH   5  16
ENDBRANCH   1   6
BRANCH   3  21
ATOM     21  C   UNL     1      -6.882   2.858   2.168  0.00  0.00    +0.123 C 
BRANCH  21  22
ATOM     22  C   UNL     1      -8.232   2.698   2.871  0.00  0.00    +0.120 C 
BRANCH  22  23
ATOM     23  N   UNL     1      -8.383   3.747   3.883  0.00  0.00    -0.341 N 
ATOM     24  H   UNL     1      -7.678   4.400   4.013  0.00  0.00    +0.146 HD
BRANCH  23  25
ATOM     25  C   UNL     1      -9.543   3.806   4.659  0.00  0.00    +0.058 A 
ATOM     26  C   UNL     1     -10.604   2.949   4.393  0.00  0.00    +0.026 A 
ATOM     27  C   UNL     1     -11.748   3.010   5.162  0.00  0.00    +0.014 A 
ATOM     28  C   UNL     1     -11.840   3.923   6.197  0.00  0.00    +0.057 A 
ATOM     29  C   UNL     1     -10.786   4.777   6.465  0.00  0.00    +0.047 A 
ATOM     30  C   UNL     1      -9.636   4.717   5.703  0.00  0.00    +0.147 A 
BRANCH  28  31
ATOM     31  C   UNL     1     -13.091   3.987   7.035  0.00  0.00    +0.417 C 
ATOM     32  F   UNL     1     -14.008   3.034   6.577  0.00  0.00    -0.166 F 
ATOM     33  F   UNL     1     -12.771   3.722   8.371  0.00  0.00    -0.166 F 
ATOM     34  F   UNL     1     -13.655   5.263   6.934  0.00  0.00    -0.166 F 
ENDBRANCH  28  31
BRANCH  30  35
ATOM     35  N   UNL     1      -8.506   5.628   5.994  0.00  0.00    +0.058 N 
ATOM     36  O   UNL     1      -7.360   5.229   5.889  0.00  0.00    -0.126 OA
ATOM     37  O   UNL     1      -8.722   6.776   6.340  0.00  0.00    -0.126 OA
ENDBRANCH  30  35
ENDBRANCH  23  25
ENDBRANCH  22  23
ENDBRANCH  21  22
ENDBRANCH   3  21
TORSDOF 8
