REMARK  Name = ZINC36017136
REMARK  17 active torsions:
REMARK  status: ('A' for Active; 'I' for Inactive)
REMARK    1  A    between atoms: C_1  and  C_2
REMARK    2  A    between atoms: C_2  and  N_3
REMARK    3  A    between atoms: C_4  and  C_26
REMARK    4  A    between atoms: C_5  and  C_21
REMARK    5  A    between atoms: C_6  and  C_11
REMARK    6  A    between atoms: C_13  and  O_19
REMARK    7  A    between atoms: C_15  and  O_17
REMARK    8  A    between atoms: O_17  and  C_18
REMARK    9  A    between atoms: O_19  and  C_20
REMARK   10  A    between atoms: C_21  and  O_23
REMARK   11  A    between atoms: O_23  and  C_24
REMARK   12  A    between atoms: C_24  and  C_25
REMARK   13  A    between atoms: C_26  and  N_27
REMARK   14  A    between atoms: C_31  and  C_34
REMARK   15  A    between atoms: N_37  and  C_38
REMARK   16  A    between atoms: C_38  and  C_39
REMARK   17  A    between atoms: C_38  and  C_40
REMARK                            x       y       z     vdW  Elec       q    Type
REMARK                         _______ _______ _______ _____ _____    ______ ____
ROOT
ATOM      1  N   UNL     1       0.761  -0.572  -1.066  0.00  0.00    -0.258 N 
ATOM      2  C   UNL     1       0.360  -0.588  -2.372  0.00  0.00    +0.041 C 
ATOM      3  C   UNL     1       1.203  -0.969  -3.355  0.00  0.00    +0.080 C 
ATOM      4  C   UNL     1       2.608  -1.378  -2.961  0.00  0.00    +0.144 C 
ATOM      5  N   UNL     1       2.941  -1.326  -1.528  0.00  0.00    -0.288 N 
ATOM      6  C   UNL     1       1.990  -0.918  -0.663  0.00  0.00    +0.307 C 
ATOM      7  O   UNL     1       2.256  -0.868   0.522  0.00  0.00    -0.252 OA
ATOM      8  H   UNL     1       3.824  -1.575  -1.213  0.00  0.00    +0.151 HD
ENDROOT
BRANCH   4   9
ATOM      9  C   UNL     1       3.575  -0.484  -3.695  0.00  0.00    -0.016 A 
ATOM     10  C   UNL     1       3.834   0.787  -3.221  0.00  0.00    +0.051 A 
ATOM     11  C   UNL     1       4.724   1.612  -3.894  0.00  0.00    +0.124 A 
ATOM     12  C   UNL     1       5.353   1.159  -5.043  0.00  0.00    +0.091 A 
ATOM     13  C   UNL     1       5.092  -0.118  -5.517  0.00  0.00    +0.124 A 
ATOM     14  C   UNL     1       4.205  -0.941  -4.836  0.00  0.00    +0.051 A 
BRANCH  13  15
ATOM     15  O   UNL     1       5.707  -0.565  -6.643  0.00  0.00    -0.495 OA
ATOM     16  C   UNL     1       6.611   0.334  -7.289  0.00  0.00    +0.277 C 
ENDBRANCH  13  15
BRANCH  11  17
ATOM     17  O   UNL     1       4.978   2.863  -3.428  0.00  0.00    -0.495 OA
ATOM     18  C   UNL     1       5.905   3.657  -4.172  0.00  0.00    +0.277 C 
ENDBRANCH  11  17
ENDBRANCH   4   9
BRANCH   1  20
ATOM     19  C   UNL     1      -0.106   1.366   0.146  0.00  0.00    +0.025 C 
ATOM     20  C   UNL     1      -0.206  -0.148  -0.051  0.00  0.00    +0.111 C 
ENDBRANCH   1  20
BRANCH   3  21
ATOM     21  C   UNL     1       0.789  -0.986  -4.708  0.00  0.00    +0.339 C 
ATOM     22  O   UNL     1       0.426  -2.029  -5.220  0.00  0.00    -0.245 OA
BRANCH  21  23
ATOM     23  O   UNL     1       0.795   0.153  -5.430  0.00  0.00    -0.462 OA
BRANCH  23  24
ATOM     24  C   UNL     1       0.364   0.062  -6.789  0.00  0.00    +0.229 C 
ATOM     25  C   UNL     1       0.439   1.444  -7.442  0.00  0.00    +0.048 C 
ENDBRANCH  23  24
ENDBRANCH  21  23
ENDBRANCH   3  21
BRANCH   2  26
ATOM     26  C   UNL     1      -1.046  -0.173  -2.720  0.00  0.00    +0.136 C 
BRANCH  26  27
ATOM     27  N   UNL     1      -1.995  -1.150  -2.169  0.00  0.00    -0.294 NA
ATOM     28  C   UNL     1      -1.839  -2.459  -2.817  0.00  0.00    +0.104 C 
ATOM     29  C   UNL     1      -2.713  -3.490  -2.096  0.00  0.00    +0.125 C 
ATOM     30  N   UNL     1      -4.092  -2.982  -2.048  0.00  0.00    -0.280 N 
ATOM     31  C   UNL     1      -4.314  -1.620  -1.537  0.00  0.00    +0.088 C 
ATOM     32  C   UNL     1      -3.377  -0.663  -2.280  0.00  0.00    +0.107 C 
ATOM     33  C   UNL     1      -5.769  -1.212  -1.778  0.00  0.00    +0.029 C 
ATOM     34  C   UNL     1      -5.125  -3.743  -2.460  0.00  0.00    +0.303 C 
ATOM     35  O   UNL     1      -6.247  -3.276  -2.496  0.00  0.00    -0.253 OA
ATOM     36  N   UNL     1      -4.914  -5.021  -2.833  0.00  0.00    -0.297 N 
ATOM     37  H   UNL     1      -4.032  -5.413  -2.740  0.00  0.00    +0.150 HD
BRANCH  36  38
ATOM     38  C   UNL     1      -6.017  -5.817  -3.377  0.00  0.00    +0.068 C 
ATOM     39  C   UNL     1      -6.143  -5.554  -4.879  0.00  0.00    +0.027 C 
ATOM     40  C   UNL     1      -5.739  -7.302  -3.141  0.00  0.00    +0.027 C 
ENDBRANCH  36  38
ENDBRANCH  26  27
ENDBRANCH   2  26
TORSDOF 10
