REMARK  Name = ZINC39611646
REMARK  12 active torsions:
REMARK  status: ('A' for Active; 'I' for Inactive)
REMARK    1  A    between atoms: C_1  and  C_2
REMARK    2  A    between atoms: C_5  and  N_9
REMARK    3  A    between atoms: C_6  and  C_8
REMARK    4  A    between atoms: C_13  and  C_15
REMARK    5  A    between atoms: C_15  and  O_16
REMARK    6  A    between atoms: O_16  and  C_17
REMARK    7  A    between atoms: C_17  and  C_19
REMARK    8  A    between atoms: C_19  and  C_21
REMARK    9  A    between atoms: C_19  and  N_24
REMARK   10  A    between atoms: C_21  and  C_22
REMARK   11  A    between atoms: C_21  and  C_23
REMARK   12  A    between atoms: C_25  and  C_27
REMARK                            x       y       z     vdW  Elec       q    Type
REMARK                         _______ _______ _______ _____ _____    ______ ____
ROOT
ATOM      1  O   UNL     1      -0.412  -8.828  -3.699  0.00  0.00    -0.454 OA
ENDROOT
BRANCH   1   2
ATOM      2  C   UNL     1      -0.503 -10.155  -3.875  0.00  0.00    +0.328 C 
ATOM      3  O   UNL     1      -0.502 -10.893  -2.918  0.00  0.00    -0.249 OA
BRANCH   2   4
ATOM      4  C   UNL     1      -0.607 -10.726  -5.266  0.00  0.00    +0.185 C 
BRANCH   4   5
ATOM      5  N   UNL     1      -0.695 -12.186  -5.189  0.00  0.00    -0.298 N 
ATOM      6  C   UNL     1      -1.281 -12.879  -6.185  0.00  0.00    +0.246 C 
ATOM      7  O   UNL     1      -1.738 -12.293  -7.147  0.00  0.00    -0.270 OA
ATOM      8  H   UNL     1      -0.330 -12.655  -4.422  0.00  0.00    +0.150 HD
BRANCH   6   9
ATOM      9  C   UNL     1      -1.369 -14.352  -6.108  0.00  0.00    +0.055 A 
ATOM     10  C   UNL     1      -0.851 -15.029  -5.003  0.00  0.00    +0.014 A 
ATOM     11  C   UNL     1      -0.936 -16.404  -4.937  0.00  0.00    +0.001 A 
ATOM     12  C   UNL     1      -1.534 -17.114  -5.963  0.00  0.00    +0.001 A 
ATOM     13  C   UNL     1      -2.050 -16.451  -7.062  0.00  0.00    +0.021 A 
ATOM     14  C   UNL     1      -1.977 -15.074  -7.138  0.00  0.00    +0.053 A 
ATOM     15 CL   UNL     1      -2.632 -14.243  -8.515  0.00  0.00    -0.083 Cl
ENDBRANCH   6   9
ENDBRANCH   4   5
BRANCH   4  16
ATOM     16  C   UNL     1       0.631 -10.330  -6.073  0.00  0.00    +0.014 C 
ATOM     17  C   UNL     1       0.525 -10.909  -7.485  0.00  0.00    +0.009 C 
ATOM     18  C   UNL     1       0.722  -8.805  -6.153  0.00  0.00    +0.009 C 
ENDBRANCH   4  16
ENDBRANCH   2   4
ENDBRANCH   1   2
BRANCH   1  19
ATOM     19  C   UNL     1      -0.317  -8.357  -2.353  0.00  0.00    +0.328 C 
BRANCH  19  24
ATOM     20  N   UNL     1       0.059  -4.170  -0.021  0.00  0.00    -0.269 N 
ATOM     21  C   UNL     1      -0.040  -4.839  -1.187  0.00  0.00    +0.310 C 
ATOM     22  O   UNL     1      -0.054  -4.229  -2.238  0.00  0.00    -0.252 OA
ATOM     23  N   UNL     1      -0.124  -6.184  -1.187  0.00  0.00    -0.237 N 
ATOM     24  C   UNL     1      -0.223  -6.853  -2.353  0.00  0.00    +0.258 C 
ATOM     25  O   UNL     1      -0.237  -6.244  -3.401  0.00  0.00    -0.272 OA
ATOM     26  H   UNL     1       0.135  -4.658   0.814  0.00  0.00    +0.156 HD
ATOM     27  H   UNL     1      -0.113  -6.671  -0.348  0.00  0.00    +0.159 HD
BRANCH  20  32
ATOM     28  C   UNL     1       0.025   1.503   0.005  0.00  0.00    +0.044 C 
ATOM     29  C   UNL     1       0.034  -0.004  -0.002  0.00  0.00    -0.050 A 
ATOM     30  C   UNL     1       0.632  -0.685  -1.046  0.00  0.00    +0.005 A 
ATOM     31  C   UNL     1       0.641  -2.066  -1.055  0.00  0.00    +0.024 A 
ATOM     32  C   UNL     1       0.051  -2.771  -0.014  0.00  0.00    +0.038 A 
ATOM     33  C   UNL     1      -0.548  -2.083   1.033  0.00  0.00    -0.029 A 
ATOM     34  C   UNL     1      -0.551  -0.702   1.039  0.00  0.00    +0.008 A 
ATOM     35  C   UNL     1      -1.191  -2.843   2.165  0.00  0.00    +0.045 C 
ENDBRANCH  20  32
ENDBRANCH  19  24
ENDBRANCH   1  19
TORSDOF 8
