REMARK  Name = ZINC62038772
REMARK  10 active torsions:
REMARK  status: ('A' for Active; 'I' for Inactive)
REMARK    1  A    between atoms: C_1  and  C_2
REMARK    2  A    between atoms: C_2  and  C_3
REMARK    3  A    between atoms: C_4  and  C_29
REMARK    4  A    between atoms: C_9  and  S_13
REMARK    5  A    between atoms: S_13  and  C_14
REMARK    6  A    between atoms: C_14  and  C_16
REMARK    7  A    between atoms: C_14  and  C_17
REMARK    8  A    between atoms: N_19  and  C_20
REMARK    9  A    between atoms: C_22  and  C_27
REMARK   10  A    between atoms: C_25  and  O_26
REMARK                            x       y       z     vdW  Elec       q    Type
REMARK                         _______ _______ _______ _____ _____    ______ ____
ROOT
ATOM      1  C   UNL     1       0.742  -0.421  -1.246  0.00  0.00    +0.000 A 
ATOM      2  C   UNL     1       2.059  -0.695  -1.416  0.00  0.00    +0.013 A 
ATOM      3  C   UNL     1       2.513  -1.170  -2.720  0.00  0.00    +0.080 A 
ATOM      4  C   UNL     1       3.876  -1.536  -3.166  0.00  0.00    +0.283 A 
ATOM      5  O   UNL     1       4.819  -1.459  -2.394  0.00  0.00    -0.265 OA
ATOM      6  N   UNL     1       4.065  -1.952  -4.421  0.00  0.00    -0.185 NA
ATOM      7  C   UNL     1       3.078  -2.051  -5.287  0.00  0.00    +0.171 A 
ATOM      8  N   UNL     1       1.799  -1.730  -4.944  0.00  0.00    -0.328 N 
ATOM      9  C   UNL     1       1.513  -1.297  -3.685  0.00  0.00    +0.093 A 
ATOM     10  S   UNL     1       0.037  -0.798  -2.840  0.00  0.00    -0.075 S 
ATOM     11  H   UNL     1       1.088  -1.812  -5.600  0.00  0.00    +0.168 HD
ENDROOT
BRANCH   2  12
ATOM     12  C   UNL     1       3.017  -0.515  -0.304  0.00  0.00    +0.021 A 
ATOM     13  C   UNL     1       3.761  -1.457   0.353  0.00  0.00    +0.016 A 
ATOM     14  C   UNL     1       4.597  -1.048   1.371  0.00  0.00    +0.008 A 
ATOM     15  C   UNL     1       4.656   0.270   1.689  0.00  0.00    +0.046 A 
ATOM     16  S   UNL     1       3.508   0.987   0.525  0.00  0.00    -0.097 S 
ENDBRANCH   2  12
BRANCH   1  18
ATOM     17  C   UNL     1       0.027   1.605  -0.008  0.00  0.00    +0.009 C 
ATOM     18  C   UNL     1       0.042   0.076  -0.007  0.00  0.00    +0.040 C 
ENDBRANCH   1  18
BRANCH   7  19
ATOM     19  S   UNL     1       3.419  -2.609  -6.923  0.00  0.00    -0.075 S 
BRANCH  19  20
ATOM     20  C   UNL     1       5.208  -2.909  -6.921  0.00  0.00    +0.137 C 
ATOM     21  C   UNL     1       5.947  -1.585  -6.714  0.00  0.00    +0.029 C 
BRANCH  20  22
ATOM     22  C   UNL     1       5.618  -3.512  -8.240  0.00  0.00    +0.230 C 
ATOM     23  O   UNL     1       4.947  -3.316  -9.231  0.00  0.00    -0.274 OA
ATOM     24  N   UNL     1       6.730  -4.270  -8.318  0.00  0.00    -0.282 N 
ATOM     25  H   UNL     1       7.301  -4.373  -7.541  0.00  0.00    +0.155 HD
BRANCH  24  26
ATOM     26  C   UNL     1       7.060  -4.907  -9.521  0.00  0.00    +0.076 A 
ATOM     27  C   UNL     1       6.778  -4.296 -10.728  0.00  0.00    +0.038 A 
ATOM     28  C   UNL     1       7.110  -4.937 -11.928  0.00  0.00    +0.016 A 
ATOM     29  C   UNL     1       7.726  -6.194 -11.898  0.00  0.00    +0.015 A 
ATOM     30  C   UNL     1       8.003  -6.797 -10.692  0.00  0.00    +0.048 A 
ATOM     31  C   UNL     1       7.679  -6.159  -9.501  0.00  0.00    +0.138 A 
BRANCH  31  32
ATOM     32  O   UNL     1       7.960  -6.756  -8.315  0.00  0.00    -0.505 OA
ATOM     33  H   UNL     1       7.250  -7.321  -7.981  0.00  0.00    +0.292 HD
ENDBRANCH  31  32
BRANCH  28  34
ATOM     34  C   UNL     1       6.813  -4.292 -13.213  0.00  0.00    +0.258 C 
ATOM     35  O   UNL     1       7.101  -4.849 -14.252  0.00  0.00    -0.296 OA
ENDBRANCH  28  34
ENDBRANCH  24  26
ENDBRANCH  20  22
ENDBRANCH  19  20
ENDBRANCH   7  19
TORSDOF 8
