REMARK  Name = ZINC28712498
REMARK  11 active torsions:
REMARK  status: ('A' for Active; 'I' for Inactive)
REMARK    1  A    between atoms: C_1  and  C_2
REMARK    2  A    between atoms: C_4  and  C_7
REMARK    3  A    between atoms: N_15  and  C_18
REMARK    4  A    between atoms: C_18  and  C_19
REMARK    5  A    between atoms: C_19  and  C_20
REMARK    6  A    between atoms: C_20  and  S_21
REMARK    7  A    between atoms: S_21  and  C_22
REMARK    8  A    between atoms: C_25  and  C_28
REMARK    9  A    between atoms: N_26  and  C_27
REMARK   10  A    between atoms: C_31  and  O_34
REMARK   11  A    between atoms: O_34  and  C_35
REMARK                            x       y       z     vdW  Elec       q    Type
REMARK                         _______ _______ _______ _____ _____    ______ ____
ROOT
ATOM      1  C   UNL     1      -2.613   5.629   3.439  0.00  0.00    +0.004 A 
ATOM      2  C   UNL     1      -2.938   5.851   2.102  0.00  0.00    +0.010 A 
ATOM      3  C   UNL     1      -2.222   5.220   1.104  0.00  0.00    +0.004 A 
ATOM      4  C   UNL     1      -1.184   4.368   1.437  0.00  0.00    -0.046 A 
ATOM      5  C   UNL     1      -0.860   4.145   2.754  0.00  0.00    -0.045 A 
ATOM      6  C   UNL     1      -1.566   4.769   3.764  0.00  0.00    +0.014 A 
ATOM      7  C   UNL     1       0.280   3.209   3.102  0.00  0.00    +0.017 C 
ATOM      8  C   UNL     1      -0.148   1.780   2.752  0.00  0.00    -0.074 C 
ATOM      9  N   UNL     1       0.106   1.493   1.350  0.00  0.00    +0.380 N 
ATOM     10  C   UNL     1      -0.730   2.182   0.381  0.00  0.00    -0.074 C 
ATOM     11  C   UNL     1      -0.400   3.677   0.341  0.00  0.00    +0.017 C 
ATOM     12  H   UNL     1       1.102   1.927   1.179  0.00  0.00    -0.082 HD
ENDROOT
BRANCH   1  16
ATOM     13  C   UNL     1      -5.920   8.472   6.033  0.00  0.00    +0.089 C 
ATOM     14  C   UNL     1      -4.814   7.537   5.615  0.00  0.00    +0.135 A 
ATOM     15  C   UNL     1      -4.467   7.211   4.349  0.00  0.00    +0.075 A 
ATOM     16  C   UNL     1      -3.381   6.306   4.514  0.00  0.00    +0.114 A 
ATOM     17  N   UNL     1      -3.192   6.196   5.805  0.00  0.00    -0.078 NA
ATOM     18  O   UNL     1      -3.979   6.872   6.426  0.00  0.00    -0.359 OA
ENDBRANCH   1  16
BRANCH   9  19
ATOM     19  C   UNL     1       0.114   0.045   1.102  0.00  0.00    -0.078 C 
BRANCH  19  20
ATOM     20  C   UNL     1      -1.294  -0.516   1.313  0.00  0.00    -0.008 C 
BRANCH  20  21
ATOM     21  C   UNL     1      -1.263  -2.039   1.164  0.00  0.00    +0.075 C 
BRANCH  21  22
ATOM     22  S   UNL     1      -2.928  -2.703   1.413  0.00  0.00    -0.086 S 
BRANCH  22  23
ATOM     23  C   UNL     1      -2.609  -4.421   1.192  0.00  0.00    +0.192 A 
ATOM     24  N   UNL     1      -1.445  -4.970   0.924  0.00  0.00    -0.122 NA
ATOM     25  N   UNL     1      -1.570  -6.245   0.827  0.00  0.00    -0.128 NA
ATOM     26  C   UNL     1      -2.820  -6.590   1.029  0.00  0.00    +0.166 A 
ATOM     27  N   UNL     1      -3.523  -5.433   1.274  0.00  0.00    -0.305 N 
ATOM     28  C   UNL     1      -4.955  -5.311   1.560  0.00  0.00    +0.153 C 
BRANCH  26  29
ATOM     29  C   UNL     1      -3.368  -7.963   1.003  0.00  0.00    +0.038 A 
ATOM     30  C   UNL     1      -4.747  -8.176   0.868  0.00  0.00    +0.018 A 
ATOM     31  C   UNL     1      -5.210  -9.476   0.844  0.00  0.00    +0.068 A 
ATOM     32  C   UNL     1      -4.303 -10.523   0.965  0.00  0.00    +0.214 A 
ATOM     33  N   UNL     1      -3.008 -10.289   1.097  0.00  0.00    -0.221 NA
ATOM     34  C   UNL     1      -2.522  -9.064   1.119  0.00  0.00    +0.126 A 
BRANCH  32  35
ATOM     35  O   UNL     1      -4.753 -11.803   0.947  0.00  0.00    -0.480 OA
ATOM     36  C   UNL     1      -3.774 -12.836   1.075  0.00  0.00    +0.279 C 
ENDBRANCH  32  35
ENDBRANCH  26  29
ENDBRANCH  22  23
ENDBRANCH  21  22
ENDBRANCH  20  21
ENDBRANCH  19  20
ENDBRANCH   9  19
TORSDOF 8
