REMARK  Name = ZINC66925917
REMARK  10 active torsions:
REMARK  status: ('A' for Active; 'I' for Inactive)
REMARK    1  A    between atoms: C_1  and  C_2
REMARK    2  A    between atoms: C_2  and  C_3
REMARK    3  A    between atoms: C_3  and  C_5
REMARK    4  A    between atoms: C_3  and  N_6
REMARK    5  A    between atoms: C_7  and  C_9
REMARK    6  A    between atoms: C_9  and  C_11
REMARK    7  A    between atoms: C_9  and  N_12
REMARK    8  A    between atoms: C_18  and  N_21
REMARK    9  A    between atoms: C_22  and  C_24
REMARK   10  A    between atoms: C_24  and  C_25
REMARK                            x       y       z     vdW  Elec       q    Type
REMARK                         _______ _______ _______ _____ _____    ______ ____
ROOT
ATOM      1  N   UNL     1       7.011   0.155   2.723  0.00  0.00    -0.288 N 
ATOM      2  C   UNL     1       6.197   0.366   3.776  0.00  0.00    +0.303 C 
ATOM      3  O   UNL     1       5.015   0.590   3.596  0.00  0.00    -0.253 OA
ATOM      4  N   UNL     1       6.693   0.329   5.029  0.00  0.00    -0.286 N 
ATOM      5  C   UNL     1       5.800   0.441   6.191  0.00  0.00    +0.111 C 
ATOM      6  C   UNL     1       6.052  -0.748   7.123  0.00  0.00    +0.041 C 
ATOM      7  C   UNL     1       7.540  -0.808   7.476  0.00  0.00    +0.076 C 
ATOM      8  C   UNL     1       8.361  -1.012   6.201  0.00  0.00    +0.041 C 
ATOM      9  C   UNL     1       8.135   0.169   5.259  0.00  0.00    +0.111 C 
ATOM     10  H   UNL     1       7.965   0.050   2.861  0.00  0.00    +0.151 HD
ENDROOT
BRANCH   7  11
ATOM     11  N   UNL     1       7.779  -1.925   8.394  0.00  0.00    -0.312 N 
ATOM     12  C   UNL     1       8.839  -1.899   9.225  0.00  0.00    +0.214 C 
ATOM     13  O   UNL     1       9.596  -0.951   9.214  0.00  0.00    -0.276 OA
ATOM     14  H   UNL     1       7.174  -2.683   8.403  0.00  0.00    +0.149 HD
BRANCH  12  15
ATOM     15  C   UNL     1       9.085  -3.048  10.169  0.00  0.00    +0.099 C 
BRANCH  15  16
ATOM     16  C   UNL     1      10.343  -2.769  10.995  0.00  0.00    -0.002 C 
ATOM     17  C   UNL     1      11.562  -2.736  10.071  0.00  0.00    +0.004 C 
ATOM     18  C   UNL     1      12.820  -2.458  10.896  0.00  0.00    +0.000 C 
ATOM     19  C   UNL     1      13.000  -3.563  11.940  0.00  0.00    +0.000 C 
ATOM     20  C   UNL     1      11.781  -3.596  12.863  0.00  0.00    +0.000 C 
ATOM     21  C   UNL     1      10.523  -3.874  12.038  0.00  0.00    +0.004 C 
ENDBRANCH  15  16
ENDBRANCH  12  15
ENDBRANCH   7  11
BRANCH   1  22
ATOM     22  C   UNL     1       6.454   0.085   1.369  0.00  0.00    +0.157 C 
ATOM     23  C   UNL     1       5.967  -1.339   1.092  0.00  0.00    +0.038 C 
BRANCH  22  25
ATOM     24  N   UNL     1       7.231   0.461  -0.948  0.00  0.00    -0.311 N 
ATOM     25  C   UNL     1       7.518   0.456   0.369  0.00  0.00    +0.233 C 
ATOM     26  O   UNL     1       8.631   0.750   0.749  0.00  0.00    -0.274 OA
ATOM     27  H   UNL     1       6.341   0.226  -1.252  0.00  0.00    +0.149 HD
BRANCH  24  28
ATOM     28  C   UNL     1       8.266   0.822  -1.921  0.00  0.00    +0.070 C 
ATOM     29  C   UNL     1       8.312   2.344  -2.075  0.00  0.00    +0.028 C 
BRANCH  28  31
ATOM     30  C   UNL     1       8.016  -1.340  -3.147  0.00  0.00    +0.005 C 
ATOM     31  C   UNL     1       7.940   0.183  -3.272  0.00  0.00    +0.018 C 
ENDBRANCH  28  31
ENDBRANCH  24  28
ENDBRANCH  22  25
ENDBRANCH   1  22
TORSDOF 7
