REMARK  Name = ZINC09018616
REMARK  12 active torsions:
REMARK  status: ('A' for Active; 'I' for Inactive)
REMARK    1  A    between atoms: C_1  and  C_2
REMARK    2  A    between atoms: C_2  and  O_3
REMARK    3  A    between atoms: O_3  and  C_4
REMARK    4  A    between atoms: C_4  and  C_6
REMARK    5  A    between atoms: C_10  and  N_11
REMARK    6  A    between atoms: C_12  and  C_14
REMARK    7  A    between atoms: C_14  and  C_16
REMARK    8  A    between atoms: C_14  and  S_17
REMARK    9  A    between atoms: S_17  and  C_18
REMARK   10  A    between atoms: C_23  and  C_29
REMARK   11  A    between atoms: C_29  and  C_30
REMARK   12  A    between atoms: C_29  and  C_31
REMARK                            x       y       z     vdW  Elec       q    Type
REMARK                         _______ _______ _______ _____ _____    ______ ____
ROOT
ATOM      1  N   UNL     1       5.063  -3.000  -0.875  0.00  0.00    -0.278 N 
ATOM      2  C   UNL     1       4.319  -1.892  -0.688  0.00  0.00    +0.231 C 
ATOM      3  O   UNL     1       4.386  -1.285   0.360  0.00  0.00    -0.274 OA
ATOM      4  H   UNL     1       5.008  -3.485  -1.713  0.00  0.00    +0.155 HD
ENDROOT
BRANCH   1   9
ATOM      5  C   UNL     1       6.735  -4.556   0.130  0.00  0.00    +0.091 A 
ATOM      6  C   UNL     1       7.533  -4.805   1.330  0.00  0.00    -0.021 A 
ATOM      7  C   UNL     1       7.362  -3.917   2.325  0.00  0.00    -0.004 A 
ATOM      8  S   UNL     1       6.170  -2.759   1.697  0.00  0.00    -0.077 S 
ATOM      9  C   UNL     1       5.905  -3.447   0.131  0.00  0.00    +0.086 A 
ATOM     10  C   UNL     1       8.212  -4.240   3.524  0.00  0.00    +0.043 C 
ATOM     11  C   UNL     1       9.278  -5.222   2.990  0.00  0.00    +0.010 C 
ATOM     12  C   UNL     1       8.551  -5.852   1.786  0.00  0.00    +0.037 C 
BRANCH   5  13
ATOM     13  C   UNL     1       6.814  -5.443  -1.032  0.00  0.00    +0.342 C 
ATOM     14  O   UNL     1       7.629  -5.227  -1.909  0.00  0.00    -0.245 OA
BRANCH  13  15
ATOM     15  O   UNL     1       5.983  -6.501  -1.130  0.00  0.00    -0.461 OA
BRANCH  15  17
ATOM     16  C   UNL     1       5.099  -8.478  -2.245  0.00  0.00    +0.048 C 
ATOM     17  C   UNL     1       6.118  -7.338  -2.309  0.00  0.00    +0.229 C 
ENDBRANCH  15  17
ENDBRANCH  13  15
ENDBRANCH   5  13
ENDBRANCH   1   9
BRANCH   2  18
ATOM     18  C   UNL     1       3.403  -1.406  -1.782  0.00  0.00    +0.137 C 
ATOM     19  C   UNL     1       4.217  -0.637  -2.825  0.00  0.00    +0.029 C 
BRANCH  18  20
ATOM     20  S   UNL     1       2.142  -0.311  -1.073  0.00  0.00    -0.073 S 
BRANCH  20  21
ATOM     21  C   UNL     1       1.077   0.047  -2.430  0.00  0.00    +0.198 A 
ATOM     22  N   UNL     1       1.211  -0.401  -3.654  0.00  0.00    -0.120 NA
ATOM     23  N   UNL     1       0.156   0.107  -4.423  0.00  0.00    -0.109 NA
ATOM     24  C   UNL     1      -0.585   0.861  -3.648  0.00  0.00    +0.237 A 
ATOM     25  N   UNL     1      -0.036   0.844  -2.391  0.00  0.00    -0.260 N 
ATOM     26  C   UNL     1      -0.624   1.554  -1.369  0.00  0.00    +0.037 A 
ATOM     27  C   UNL     1      -1.734   2.276  -1.600  0.00  0.00    +0.092 A 
ATOM     28  C   UNL     1      -2.304   2.303  -2.898  0.00  0.00    +0.253 A 
ATOM     29  O   UNL     1      -3.310   2.956  -3.111  0.00  0.00    -0.268 OA
ATOM     30  N   UNL     1      -1.729   1.602  -3.896  0.00  0.00    -0.291 N 
ATOM     31  H   UNL     1      -2.114   1.618  -4.786  0.00  0.00    +0.172 HD
BRANCH  26  32
ATOM     32  C   UNL     1      -0.019   1.526   0.010  0.00  0.00    +0.030 C 
ATOM     33  C   UNL     1       1.207   2.441   0.048  0.00  0.00    +0.013 C 
ATOM     34  C   UNL     1      -1.050   2.013   1.030  0.00  0.00    +0.013 C 
ENDBRANCH  26  32
ENDBRANCH  20  21
ENDBRANCH  18  20
ENDBRANCH   2  18
TORSDOF 8
