REMARK  Name = ZINC43347699
REMARK  10 active torsions:
REMARK  status: ('A' for Active; 'I' for Inactive)
REMARK    1  A    between atoms: C_1  and  C_2
REMARK    2  A    between atoms: C_3  and  N_11
REMARK    3  A    between atoms: C_7  and  N_8
REMARK    4  A    between atoms: N_14  and  C_15
REMARK    5  A    between atoms: C_15  and  C_16
REMARK    6  A    between atoms: C_16  and  C_17
REMARK    7  A    between atoms: C_17  and  O_18
REMARK    8  A    between atoms: O_18  and  C_19
REMARK    9  A    between atoms: C_19  and  C_21
REMARK   10  A    between atoms: C_19  and  C_22
REMARK                            x       y       z     vdW  Elec       q    Type
REMARK                         _______ _______ _______ _____ _____    ______ ____
ROOT
ATOM      1  N   UNL     1      -0.409   0.193  -2.478  0.00  0.00    -0.269 N 
ATOM      2  C   UNL     1      -0.692  -0.489  -3.606  0.00  0.00    +0.304 C 
ATOM      3  O   UNL     1      -0.661  -1.704  -3.606  0.00  0.00    -0.253 OA
ATOM      4  N   UNL     1      -1.010   0.177  -4.734  0.00  0.00    -0.299 N 
ATOM      5  H   UNL     1      -0.382   1.162  -2.491  0.00  0.00    +0.156 HD
ATOM      6  H   UNL     1      -1.035   1.147  -4.734  0.00  0.00    +0.150 HD
ENDROOT
BRANCH   1   9
ATOM      7  C   UNL     1      -1.254   1.373  -0.030  0.00  0.00    +0.048 C 
ATOM      8  C   UNL     1      -0.549   0.041  -0.072  0.00  0.00    +0.001 A 
ATOM      9  C   UNL     1      -0.154  -0.499  -1.289  0.00  0.00    +0.040 A 
ATOM     10  C   UNL     1       0.495  -1.726  -1.322  0.00  0.00    +0.024 A 
ATOM     11  C   UNL     1       0.745  -2.406  -0.146  0.00  0.00    +0.004 A 
ATOM     12  C   UNL     1       0.350  -1.866   1.063  0.00  0.00    +0.033 A 
ATOM     13  C   UNL     1      -0.292  -0.641   1.101  0.00  0.00    +0.131 A 
BRANCH  13  14
ATOM     14  N   UNL     1      -0.708  -0.064   2.399  0.00  0.00    +0.057 N 
ATOM     15  O   UNL     1      -0.804   1.134   2.525  0.00  0.00    -0.126 OA
ATOM     16  O   UNL     1      -0.952  -0.791   3.333  0.00  0.00    -0.126 OA
ENDBRANCH  13  14
ENDBRANCH   1   9
BRANCH   4  17
ATOM     17  C   UNL     1      -1.318  -0.563  -5.960  0.00  0.00    +0.108 C 
BRANCH  17  18
ATOM     18  C   UNL     1      -1.644   0.423  -7.083  0.00  0.00    +0.047 C 
BRANCH  18  19
ATOM     19  C   UNL     1      -1.965  -0.350  -8.364  0.00  0.00    +0.162 C 
BRANCH  19  20
ATOM     20  O   UNL     1      -2.269   0.571  -9.413  0.00  0.00    -0.372 OA
BRANCH  20  21
ATOM     21  C   UNL     1      -2.586  -0.052 -10.660  0.00  0.00    +0.145 C 
ATOM     22  C   UNL     1      -1.305  -0.238 -11.476  0.00  0.00    +0.043 C 
BRANCH  21  23
ATOM     23  C   UNL     1      -3.548   0.818 -11.426  0.00  0.00    -0.019 A 
ATOM     24  C   UNL     1      -3.386   2.191 -11.430  0.00  0.00    +0.006 A 
ATOM     25  C   UNL     1      -4.269   2.990 -12.133  0.00  0.00    +0.000 A 
ATOM     26  C   UNL     1      -5.314   2.415 -12.832  0.00  0.00    +0.000 A 
ATOM     27  C   UNL     1      -5.475   1.042 -12.829  0.00  0.00    +0.000 A 
ATOM     28  C   UNL     1      -4.590   0.243 -12.129  0.00  0.00    +0.006 A 
ENDBRANCH  21  23
ENDBRANCH  20  21
ENDBRANCH  19  20
ENDBRANCH  18  19
ENDBRANCH  17  18
ENDBRANCH   4  17
TORSDOF 8
