REMARK  Name = ZINC13506982
REMARK  9 active torsions:
REMARK  status: ('A' for Active; 'I' for Inactive)
REMARK    1  A    between atoms: C_5  and  C_7
REMARK    2  A    between atoms: C_7  and  C_9
REMARK    3  A    between atoms: C_7  and  N_17
REMARK    4  A    between atoms: N_11  and  C_12
REMARK    5  A    between atoms: N_17  and  C_18
REMARK    6  A    between atoms: C_18  and  C_19
REMARK    7  A    between atoms: C_26  and  C_28
REMARK    8  A    between atoms: C_28  and  N_29
REMARK    9  A    between atoms: C_30  and  C_32
REMARK                            x       y       z     vdW  Elec       q    Type
REMARK                         _______ _______ _______ _____ _____    ______ ____
ROOT
ATOM      1  N   UNL     1       1.207  -2.860  -1.576  0.00  0.00    -0.280 N 
ATOM      2  C   UNL     1       2.135  -3.421  -2.376  0.00  0.00    +0.234 C 
ATOM      3  O   UNL     1       1.824  -3.819  -3.479  0.00  0.00    -0.274 OA
ENDROOT
BRANCH   1   4
ATOM      4  C   UNL     1      -0.199  -2.843  -1.985  0.00  0.00    +0.195 C 
BRANCH   4   9
ATOM      5  C   UNL     1       0.587  -0.727  -5.012  0.00  0.00    +0.001 A 
ATOM      6  C   UNL     1      -0.668  -0.264  -5.360  0.00  0.00    +0.003 A 
ATOM      7  C   UNL     1      -1.773  -0.634  -4.617  0.00  0.00    +0.039 A 
ATOM      8  C   UNL     1      -1.622  -1.470  -3.524  0.00  0.00    +0.129 A 
ATOM      9  C   UNL     1      -0.365  -1.933  -3.175  0.00  0.00    +0.017 A 
ATOM     10  C   UNL     1       0.739  -1.556  -3.917  0.00  0.00    +0.009 A 
ATOM     11  F   UNL     1      -2.701  -1.833  -2.796  0.00  0.00    -0.205 F 
ENDBRANCH   4   9
BRANCH   4  12
ATOM     12  C   UNL     1      -0.632  -4.238  -2.356  0.00  0.00    +0.238 C 
ATOM     13  O   UNL     1       0.151  -5.160  -2.264  0.00  0.00    -0.273 OA
ATOM     14  N   UNL     1      -1.889  -4.461  -2.788  0.00  0.00    -0.311 N 
ATOM     15  H   UNL     1      -2.515  -3.724  -2.861  0.00  0.00    +0.149 HD
BRANCH  14  16
ATOM     16  C   UNL     1      -2.309  -5.818  -3.148  0.00  0.00    +0.073 C 
ATOM     17  C   UNL     1      -1.982  -6.097  -4.629  0.00  0.00    +0.022 C 
ATOM     18  C   UNL     1      -3.175  -6.951  -5.127  0.00  0.00    +0.002 C 
ATOM     19  C   UNL     1      -4.382  -6.309  -4.399  0.00  0.00    +0.002 C 
ATOM     20  C   UNL     1      -3.835  -5.953  -3.002  0.00  0.00    +0.022 C 
ENDBRANCH  14  16
ENDBRANCH   4  12
ENDBRANCH   1   4
BRANCH   1  21
ATOM     21  C   UNL     1       1.605  -2.268  -0.296  0.00  0.00    +0.144 C 
BRANCH  21  22
ATOM     22  C   UNL     1       1.826  -0.788  -0.475  0.00  0.00    -0.030 A 
ATOM     23  C   UNL     1       0.754   0.084  -0.408  0.00  0.00    +0.008 A 
ATOM     24  C   UNL     1       0.956   1.441  -0.572  0.00  0.00    +0.038 A 
ATOM     25  C   UNL     1       2.231   1.928  -0.803  0.00  0.00    +0.123 A 
ATOM     26  C   UNL     1       3.303   1.055  -0.871  0.00  0.00    +0.038 A 
ATOM     27  C   UNL     1       3.099  -0.302  -0.707  0.00  0.00    +0.008 A 
ATOM     28  F   UNL     1       2.429   3.255  -0.964  0.00  0.00    -0.205 F 
ENDBRANCH  21  22
ENDBRANCH   1  21
BRANCH   2  29
ATOM     29  C   UNL     1       3.559  -3.553  -1.901  0.00  0.00    +0.200 C 
BRANCH  29  30
ATOM     30  N   UNL     1       4.386  -4.096  -2.982  0.00  0.00    -0.300 N 
ATOM     31  C   UNL     1       5.703  -4.301  -2.784  0.00  0.00    +0.280 C 
ATOM     32  O   UNL     1       6.206  -4.036  -1.708  0.00  0.00    -0.267 OA
ATOM     33  H   UNL     1       3.986  -4.307  -3.840  0.00  0.00    +0.150 HD
BRANCH  31  34
ATOM     34  C   UNL     1       6.531  -4.845  -3.866  0.00  0.00    +0.189 A 
ATOM     35  C   UNL     1       7.871  -5.100  -3.801  0.00  0.00    +0.054 A 
ATOM     36  C   UNL     1       8.247  -5.609  -5.054  0.00  0.00    +0.042 A 
ATOM     37  C   UNL     1       7.134  -5.641  -5.819  0.00  0.00    +0.196 A 
ATOM     38  O   UNL     1       6.101  -5.185  -5.099  0.00  0.00    -0.458 OA
ENDBRANCH  31  34
ENDBRANCH  29  30
ENDBRANCH   2  29
TORSDOF 9
