REMARK  Name = ZINC14241794
REMARK  7 active torsions:
REMARK  status: ('A' for Active; 'I' for Inactive)
REMARK    1  A    between atoms: C_4  and  C_7
REMARK    2  A    between atoms: N_9  and  N_10
REMARK    3  A    between atoms: C_11  and  C_13
REMARK    4  A    between atoms: C_13  and  C_14
REMARK    5  A    between atoms: C_14  and  C_15
REMARK    6  A    between atoms: C_14  and  C_21
REMARK    7  A    between atoms: C_14  and  O_25
REMARK                            x       y       z     vdW  Elec       q    Type
REMARK                         _______ _______ _______ _____ _____    ______ ____
ROOT
ATOM      1  N   UNL     1      -5.976   3.276  -1.160  0.00  0.00    -0.234 N 
ATOM      2  C   UNL     1      -4.863   3.867  -0.683  0.00  0.00    +0.232 C 
ATOM      3  O   UNL     1      -4.896   5.027  -0.331  0.00  0.00    -0.274 OA
ATOM      4  H   UNL     1      -5.949   2.348  -1.442  0.00  0.00    +0.173 HD
ENDROOT
BRANCH   1   7
ATOM      5  C   UNL     1      -8.284   3.409  -1.726  0.00  0.00    +0.260 C 
ATOM      6  O   UNL     1      -8.251   2.246  -2.079  0.00  0.00    -0.269 OA
ATOM      7  N   UNL     1      -7.171   4.000  -1.249  0.00  0.00    -0.230 N 
ATOM      8  H   UNL     1      -7.198   4.928  -0.967  0.00  0.00    +0.173 HD
BRANCH   5  12
ATOM      9  C   UNL     1     -11.909   5.607  -1.996  0.00  0.00    +0.000 A 
ATOM     10  C   UNL     1     -11.874   4.284  -2.398  0.00  0.00    +0.001 A 
ATOM     11  C   UNL     1     -10.701   3.564  -2.313  0.00  0.00    +0.013 A 
ATOM     12  C   UNL     1      -9.546   4.174  -1.820  0.00  0.00    +0.038 A 
ATOM     13  C   UNL     1      -9.589   5.508  -1.410  0.00  0.00    +0.013 A 
ATOM     14  C   UNL     1     -10.768   6.217  -1.505  0.00  0.00    +0.001 A 
ENDBRANCH   5  12
ENDBRANCH   1   7
BRANCH   2  15
ATOM     15  C   UNL     1      -3.577   3.087  -0.588  0.00  0.00    +0.146 C 
BRANCH  15  16
ATOM     16  C   UNL     1      -2.515   3.938   0.113  0.00  0.00    +0.194 C 
BRANCH  16  17
ATOM     17  C   UNL     1      -2.289   5.205  -0.671  0.00  0.00    -0.007 A 
ATOM     18  C   UNL     1      -2.470   5.211  -2.042  0.00  0.00    +0.007 A 
ATOM     19  C   UNL     1      -2.258   6.372  -2.761  0.00  0.00    +0.000 A 
ATOM     20  C   UNL     1      -1.874   7.529  -2.110  0.00  0.00    +0.000 A 
ATOM     21  C   UNL     1      -1.698   7.524  -0.739  0.00  0.00    +0.000 A 
ATOM     22  C   UNL     1      -1.905   6.362  -0.019  0.00  0.00    +0.007 A 
ENDBRANCH  16  17
BRANCH  16  23
ATOM     23  C   UNL     1      -1.206   3.150   0.199  0.00  0.00    +0.423 C 
ATOM     24  F   UNL     1      -0.214   3.957   0.767  0.00  0.00    -0.167 F 
ATOM     25  F   UNL     1      -1.397   2.015   0.995  0.00  0.00    -0.167 F 
ATOM     26  F   UNL     1      -0.812   2.759  -1.085  0.00  0.00    -0.167 F 
ENDBRANCH  16  23
BRANCH  16  27
ATOM     27  O   UNL     1      -2.962   4.266   1.430  0.00  0.00    -0.375 OA
ATOM     28  H   UNL     1      -3.788   4.767   1.452  0.00  0.00    +0.211 HD
ENDBRANCH  16  27
ENDBRANCH  15  16
ENDBRANCH   2  15
TORSDOF 7
