REMARK  Name = ZINC01248370
REMARK  10 active torsions:
REMARK  status: ('A' for Active; 'I' for Inactive)
REMARK    1  A    between atoms: C_1  and  C_2
REMARK    2  A    between atoms: C_2  and  N_3
REMARK    3  A    between atoms: N_3  and  C_4
REMARK    4  A    between atoms: N_3  and  C_6
REMARK    5  A    between atoms: C_4  and  C_5
REMARK    6  A    between atoms: C_9  and  C_12
REMARK    7  A    between atoms: C_17  and  C_36
REMARK    8  A    between atoms: C_29  and  C_31
REMARK    9  A    between atoms: C_31  and  C_32
REMARK   10  A    between atoms: C_32  and  C_33
REMARK                            x       y       z     vdW  Elec       q    Type
REMARK                         _______ _______ _______ _____ _____    ______ ____
ROOT
ATOM      1  C   UNL     1       0.471  -6.148  -1.489  0.00  0.00    +0.032 C 
ATOM      2  C   UNL     1      -1.008  -6.547  -1.552  0.00  0.00    +0.088 C 
ATOM      3  C   UNL     1      -1.094  -8.036  -1.705  0.00  0.00    +0.163 C 
ATOM      4  C   UNL     1      -0.077  -8.791  -2.336  0.00  0.00    +0.037 C 
ATOM      5  C   UNL     1      -0.347 -10.276  -2.363  0.00  0.00    +0.147 C 
ATOM      6  N   UNL     1       0.539 -11.034  -3.221  0.00  0.00    -0.258 N 
ATOM      7  C   UNL     1       1.905 -11.119  -2.946  0.00  0.00    +0.058 A 
ATOM      8  C   UNL     1       2.504 -12.324  -2.618  0.00  0.00    +0.025 A 
ATOM      9  C   UNL     1       3.853 -12.350  -2.306  0.00  0.00    +0.002 A 
ATOM     10  C   UNL     1       4.597 -11.184  -2.318  0.00  0.00    +0.002 A 
ATOM     11  C   UNL     1       4.005  -9.981  -2.663  0.00  0.00    +0.025 A 
ATOM     12  C   UNL     1       2.662  -9.958  -2.997  0.00  0.00    +0.053 A 
ATOM     13  N   UNL     1       2.033  -8.811  -3.464  0.00  0.00    -0.316 N 
ATOM     14  C   UNL     1       1.007  -8.177  -2.840  0.00  0.00    +0.017 C 
ATOM     15  C   UNL     1       1.148  -6.667  -2.756  0.00  0.00    +0.059 C 
ATOM     16  C   UNL     1       0.039 -11.666  -4.301  0.00  0.00    +0.221 C 
ATOM     17  O   UNL     1      -1.147 -11.598  -4.548  0.00  0.00    -0.275 OA
ATOM     18  O   UNL     1      -2.072  -8.614  -1.272  0.00  0.00    -0.292 OA
ATOM     19  H   UNL     1       2.351  -8.434  -4.299  0.00  0.00    +0.152 HD
ENDROOT
BRANCH   1  23
ATOM     20  C   UNL     1       0.819  -1.895  -1.300  0.00  0.00    +0.013 A 
ATOM     21  C   UNL     1       1.342  -2.677  -0.287  0.00  0.00    +0.022 A 
ATOM     22  C   UNL     1       1.229  -4.053  -0.348  0.00  0.00    +0.006 A 
ATOM     23  C   UNL     1       0.593  -4.648  -1.422  0.00  0.00    -0.043 A 
ATOM     24  C   UNL     1       0.070  -3.866  -2.435  0.00  0.00    +0.006 A 
ATOM     25  C   UNL     1       0.179  -2.489  -2.372  0.00  0.00    +0.022 A 
BRANCH  20  26
ATOM     26  N   UNL     1       0.933  -0.503  -1.238  0.00  0.00    -0.394 NA
ATOM     27  H   UNL     1       0.497  -0.093  -2.051  0.00  0.00    +0.126 HD
BRANCH  26  29
ATOM     28  C   UNL     1       0.284   1.520  -0.020  0.00  0.00    +0.022 C 
ATOM     29  C   UNL     1       0.268  -0.011  -0.025  0.00  0.00    +0.081 C 
ENDBRANCH  26  29
BRANCH  26  30
ATOM     30  C   UNL     1       2.354  -0.129  -1.204  0.00  0.00    +0.081 C 
ATOM     31  C   UNL     1       3.019  -0.532  -2.522  0.00  0.00    +0.022 C 
ENDBRANCH  26  30
ENDBRANCH  20  26
ENDBRANCH   1  23
BRANCH   5  32
ATOM     32  C   UNL     1      -0.219 -10.810  -0.960  0.00  0.00    -0.022 A 
ATOM     33  C   UNL     1       0.996 -10.746  -0.304  0.00  0.00    +0.006 A 
ATOM     34  C   UNL     1       1.113 -11.236   0.983  0.00  0.00    +0.000 A 
ATOM     35  C   UNL     1       0.015 -11.790   1.615  0.00  0.00    +0.000 A 
ATOM     36  C   UNL     1      -1.200 -11.854   0.959  0.00  0.00    +0.000 A 
ATOM     37  C   UNL     1      -1.318 -11.360  -0.326  0.00  0.00    +0.006 A 
ENDBRANCH   5  32
BRANCH  16  38
ATOM     38  C   UNL     1       0.952 -12.457  -5.201  0.00  0.00    +0.107 C 
BRANCH  38  39
ATOM     39  C   UNL     1       0.137 -13.069  -6.343  0.00  0.00    +0.134 C 
BRANCH  39  40
ATOM     40  C   UNL     1       1.051 -13.860  -7.244  0.00  0.00    +0.356 C 
ATOM     41  O   UNL     1       2.242 -13.929  -6.995  0.00  0.00    -0.246 OA
ATOM     42  O   UNL     1       0.598 -14.432  -8.220  0.00  0.00    -0.246 OA
ENDBRANCH  39  40
ENDBRANCH  38  39
ENDBRANCH  16  38
TORSDOF 8
