REMARK  Name = ZINC07112857
REMARK  6 active torsions:
REMARK  status: ('A' for Active; 'I' for Inactive)
REMARK    1  A    between atoms: C_1  and  O_2
REMARK    2  A    between atoms: O_2  and  C_3
REMARK    3  A    between atoms: C_5  and  C_12
REMARK    4  A    between atoms: C_7  and  N_9
REMARK    5  A    between atoms: N_23  and  C_24
REMARK    6  A    between atoms: C_24  and  C_25
REMARK                            x       y       z     vdW  Elec       q    Type
REMARK                         _______ _______ _______ _____ _____    ______ ____
ROOT
ATOM      1  C   UNL     1       1.144   3.370   0.089  0.00  0.00    +0.193 C 
ATOM      2  N   UNL     1      -0.066   3.921  -0.534  0.00  0.00    -0.321 N 
ATOM      3  C   UNL     1      -1.287   3.317  -0.259  0.00  0.00    +0.041 A 
ATOM      4  C   UNL     1      -2.474   4.030  -0.258  0.00  0.00    +0.024 A 
ATOM      5  C   UNL     1      -3.661   3.382   0.009  0.00  0.00    +0.002 A 
ATOM      6  C   UNL     1      -3.674   2.025   0.291  0.00  0.00    +0.001 A 
ATOM      7  C   UNL     1      -2.501   1.300   0.298  0.00  0.00    +0.015 A 
ATOM      8  C   UNL     1      -1.296   1.940   0.019  0.00  0.00    +0.058 A 
ATOM      9  C   UNL     1      -0.014   1.212   0.009  0.00  0.00    +0.250 C 
ATOM     10  O   UNL     1       0.002  -0.004   0.002  0.00  0.00    -0.270 OA
ATOM     11  N   UNL     1       1.140   1.910   0.001  0.00  0.00    -0.268 N 
ATOM     12  H   UNL     1      -0.013   4.688  -1.125  0.00  0.00    +0.148 HD
ENDROOT
BRANCH   1  15
ATOM     13  C   UNL     1       0.647   5.350   3.268  0.00  0.00    +0.169 A 
ATOM     14  C   UNL     1       0.605   4.970   1.936  0.00  0.00    +0.056 A 
ATOM     15  C   UNL     1       1.191   3.782   1.538  0.00  0.00    -0.003 A 
ATOM     16  C   UNL     1       1.815   2.970   2.467  0.00  0.00    +0.044 A 
ATOM     17  C   UNL     1       1.864   3.346   3.796  0.00  0.00    +0.177 A 
ATOM     18  C   UNL     1       1.279   4.535   4.202  0.00  0.00    +0.250 A 
ATOM     19  O   UNL     1       1.323   4.904   5.510  0.00  0.00    -0.282 OA
BRANCH  17  20
ATOM     20  N   UNL     1       2.538   2.477   4.787  0.00  0.00    +0.060 N 
ATOM     21  O   UNL     1       3.052   1.432   4.430  0.00  0.00    -0.126 OA
ATOM     22  O   UNL     1       2.578   2.806   5.958  0.00  0.00    -0.126 OA
ENDBRANCH  17  20
BRANCH  13  24
ATOM     23  C   UNL     1      -0.559   7.304   2.648  0.00  0.00    +0.277 C 
ATOM     24  O   UNL     1       0.072   6.518   3.661  0.00  0.00    -0.491 OA
ENDBRANCH  13  24
ENDBRANCH   1  15
BRANCH  11  25
ATOM     25  C   UNL     1       2.414   1.192  -0.096  0.00  0.00    +0.184 C 
BRANCH  25  26
ATOM     26  C   UNL     1       2.790   1.031  -1.546  0.00  0.00    +0.122 A 
ATOM     27  C   UNL     1       3.519   1.898  -2.271  0.00  0.00    +0.046 A 
ATOM     28  C   UNL     1       3.631   1.353  -3.571  0.00  0.00    +0.041 A 
ATOM     29  C   UNL     1       2.957   0.190  -3.565  0.00  0.00    +0.195 A 
ATOM     30  O   UNL     1       2.449  -0.001  -2.336  0.00  0.00    -0.466 OA
ENDBRANCH  25  26
ENDBRANCH  11  25
TORSDOF 5
