REMARK  Name = ZINC02679510
REMARK  12 active torsions:
REMARK  status: ('A' for Active; 'I' for Inactive)
REMARK    1  A    between atoms: C_1  and  C_2
REMARK    2  A    between atoms: C_2  and  O_3
REMARK    3  A    between atoms: O_3  and  C_4
REMARK    4  A    between atoms: C_4  and  C_6
REMARK    5  A    between atoms: C_10  and  N_11
REMARK    6  A    between atoms: C_12  and  C_14
REMARK    7  A    between atoms: C_14  and  C_15
REMARK    8  A    between atoms: N_17  and  C_18
REMARK    9  A    between atoms: C_19  and  C_27
REMARK   10  A    between atoms: C_27  and  O_29
REMARK   11  A    between atoms: O_29  and  C_30
REMARK   12  A    between atoms: C_30  and  C_31
REMARK                            x       y       z     vdW  Elec       q    Type
REMARK                         _______ _______ _______ _____ _____    ______ ____
ROOT
ATOM      1  C   UNL     1       1.280   1.980   0.001  0.00  0.00    +0.192 C 
ENDROOT
BRANCH   1   3
ATOM      2  N   UNL     1      -1.191   1.867   0.018  0.00  0.00    -0.279 N 
ATOM      3  C   UNL     1      -0.014   1.209   0.009  0.00  0.00    +0.226 C 
ATOM      4  O   UNL     1       0.002  -0.004   0.002  0.00  0.00    -0.275 OA
ATOM      5  H   UNL     1      -1.204   2.836   0.023  0.00  0.00    +0.155 HD
BRANCH   2  10
ATOM      6  C   UNL     1      -3.680   1.650   0.034  0.00  0.00    +0.091 A 
ATOM      7  C   UNL     1      -4.765   0.683   0.029  0.00  0.00    -0.021 A 
ATOM      8  C   UNL     1      -4.381  -0.611   0.021  0.00  0.00    -0.004 A 
ATOM      9  S   UNL     1      -2.612  -0.560   0.012  0.00  0.00    -0.077 S 
ATOM     10  C   UNL     1      -2.381   1.157   0.020  0.00  0.00    +0.086 A 
ATOM     11  C   UNL     1      -5.271  -1.817   0.020  0.00  0.00    +0.043 C 
ATOM     12  C   UNL     1      -6.688  -1.372   0.408  0.00  0.00    +0.005 C 
ATOM     13  C   UNL     1      -7.063  -0.140  -0.421  0.00  0.00    +0.005 C 
ATOM     14  C   UNL     1      -6.240   1.065   0.038  0.00  0.00    +0.037 C 
BRANCH   6  15
ATOM     15  C   UNL     1      -3.945   3.090   0.050  0.00  0.00    +0.342 C 
ATOM     16  O   UNL     1      -4.064   3.698  -0.997  0.00  0.00    -0.245 OA
BRANCH  15  17
ATOM     17  O   UNL     1      -4.058   3.743   1.225  0.00  0.00    -0.461 OA
BRANCH  17  19
ATOM     18  C   UNL     1      -4.416   5.731   2.584  0.00  0.00    +0.048 C 
ATOM     19  C   UNL     1      -4.322   5.169   1.164  0.00  0.00    +0.229 C 
ENDBRANCH  17  19
ENDBRANCH  15  17
ENDBRANCH   6  15
ENDBRANCH   2  10
ENDBRANCH   1   3
BRANCH   1  20
ATOM     20  C   UNL     1       2.439   1.016  -0.016  0.00  0.00    +0.226 C 
ATOM     21  O   UNL     1       2.233  -0.179  -0.020  0.00  0.00    -0.275 OA
ATOM     22  N   UNL     1       3.703   1.483  -0.025  0.00  0.00    -0.279 N 
ATOM     23  H   UNL     1       3.868   2.439  -0.022  0.00  0.00    +0.155 HD
BRANCH  22  24
ATOM     24  C   UNL     1       4.769   0.596  -0.040  0.00  0.00    +0.086 A 
ATOM     25  C   UNL     1       6.128   0.881  -0.057  0.00  0.00    +0.091 A 
ATOM     26  C   UNL     1       7.049  -0.243  -0.068  0.00  0.00    -0.021 A 
ATOM     27  C   UNL     1       6.468  -1.462  -0.069  0.00  0.00    -0.004 A 
ATOM     28  S   UNL     1       4.729  -1.136  -0.050  0.00  0.00    -0.077 S 
ATOM     29  C   UNL     1       7.159  -2.791  -0.084  0.00  0.00    +0.043 C 
ATOM     30  C   UNL     1       8.627  -2.570  -0.476  0.00  0.00    +0.005 C 
ATOM     31  C   UNL     1       9.193  -1.419   0.362  0.00  0.00    +0.005 C 
ATOM     32  C   UNL     1       8.566  -0.096  -0.081  0.00  0.00    +0.037 C 
BRANCH  25  33
ATOM     33  C   UNL     1       6.615   2.262  -0.061  0.00  0.00    +0.342 C 
ATOM     34  O   UNL     1       6.831   2.834   0.991  0.00  0.00    -0.245 OA
BRANCH  33  35
ATOM     35  O   UNL     1       6.823   2.901  -1.231  0.00  0.00    -0.461 OA
BRANCH  35  36
ATOM     36  C   UNL     1       7.306   4.268  -1.158  0.00  0.00    +0.229 C 
ATOM     37  C   UNL     1       7.482   4.822  -2.574  0.00  0.00    +0.048 C 
ENDBRANCH  35  36
ENDBRANCH  33  35
ENDBRANCH  25  33
ENDBRANCH  22  24
ENDBRANCH   1  20
TORSDOF 10
