REMARK  Name = ZINC12486500
REMARK  13 active torsions:
REMARK  status: ('A' for Active; 'I' for Inactive)
REMARK    1  A    between atoms: C_1  and  C_2
REMARK    2  A    between atoms: C_2  and  C_3
REMARK    3  A    between atoms: C_3  and  C_5
REMARK    4  A    between atoms: C_3  and  C_6
REMARK    5  A    between atoms: C_9  and  N_12
REMARK    6  A    between atoms: N_12  and  C_13
REMARK    7  A    between atoms: C_13  and  C_15
REMARK    8  A    between atoms: C_13  and  C_21
REMARK    9  A    between atoms: N_23  and  C_24
REMARK   10  A    between atoms: C_24  and  C_25
REMARK   11  A    between atoms: C_31  and  C_33
REMARK   12  A    between atoms: C_33  and  N_34
REMARK   13  A    between atoms: C_35  and  C_37
REMARK                            x       y       z     vdW  Elec       q    Type
REMARK                         _______ _______ _______ _____ _____    ______ ____
ROOT
ATOM      1  N   UNL     1      -3.021   5.462   0.486  0.00  0.00    -0.254 N 
ATOM      2  C   UNL     1      -2.686   4.221   0.892  0.00  0.00    +0.238 C 
ATOM      3  O   UNL     1      -3.458   3.300   0.727  0.00  0.00    -0.274 OA
ENDROOT
BRANCH   1   7
ATOM      4  C   UNL     1      -0.250   8.560   0.757  0.00  0.00    -0.044 A 
ATOM      5  C   UNL     1      -1.361   8.554   1.581  0.00  0.00    +0.006 A 
ATOM      6  C   UNL     1      -2.281   7.529   1.493  0.00  0.00    +0.024 A 
ATOM      7  C   UNL     1      -2.091   6.503   0.577  0.00  0.00    +0.037 A 
ATOM      8  C   UNL     1      -0.972   6.509  -0.245  0.00  0.00    +0.024 A 
ATOM      9  C   UNL     1      -0.057   7.540  -0.157  0.00  0.00    +0.006 A 
BRANCH   4  10
ATOM     10  C   UNL     1       0.752   9.681   0.855  0.00  0.00    +0.016 C 
ATOM     11  C   UNL     1       0.845  10.402  -0.492  0.00  0.00    +0.012 C 
BRANCH  10  13
ATOM     12  C   UNL     1       3.111  10.256   1.444  0.00  0.00    +0.004 C 
ATOM     13  C   UNL     1       2.123   9.110   1.223  0.00  0.00    +0.004 C 
ENDBRANCH  10  13
ENDBRANCH   4  10
ENDBRANCH   1   7
BRANCH   1  14
ATOM     14  C   UNL     1      -4.360   5.720  -0.050  0.00  0.00    +0.197 C 
BRANCH  14  15
ATOM     15  C   UNL     1      -4.526   7.198  -0.295  0.00  0.00    -0.018 A 
ATOM     16  C   UNL     1      -3.691   7.849  -1.183  0.00  0.00    +0.006 A 
ATOM     17  C   UNL     1      -3.846   9.204  -1.412  0.00  0.00    +0.000 A 
ATOM     18  C   UNL     1      -4.830   9.909  -0.745  0.00  0.00    +0.000 A 
ATOM     19  C   UNL     1      -5.662   9.258   0.147  0.00  0.00    +0.000 A 
ATOM     20  C   UNL     1      -5.510   7.903   0.372  0.00  0.00    +0.006 A 
ENDBRANCH  14  15
BRANCH  14  21
ATOM     21  C   UNL     1      -4.535   4.973  -1.346  0.00  0.00    +0.239 C 
ATOM     22  O   UNL     1      -3.631   4.291  -1.780  0.00  0.00    -0.273 OA
ATOM     23  N   UNL     1      -5.697   5.062  -2.024  0.00  0.00    -0.311 N 
ATOM     24  H   UNL     1      -6.420   5.607  -1.677  0.00  0.00    +0.149 HD
BRANCH  23  25
ATOM     25  C   UNL     1      -5.867   4.335  -3.285  0.00  0.00    +0.135 C 
BRANCH  25  26
ATOM     26  C   UNL     1      -7.265   4.605  -3.844  0.00  0.00    +0.135 C 
ATOM     27  C   UNL     1      -7.498   3.781  -5.130  0.00  0.00    +0.035 C 
ATOM     28  C   UNL     1      -8.322   4.723  -6.036  0.00  0.00    +0.031 C 
ATOM     29  C   UNL     1      -8.488   6.006  -5.191  0.00  0.00    +0.160 C 
ATOM     30  O   UNL     1      -7.383   5.983  -4.261  0.00  0.00    -0.375 OA
ENDBRANCH  25  26
ENDBRANCH  23  25
ENDBRANCH  14  21
ENDBRANCH   1  14
BRANCH   2  31
ATOM     31  C   UNL     1      -1.352   3.978   1.550  0.00  0.00    +0.201 C 
BRANCH  31  32
ATOM     32  N   UNL     1      -1.282   2.590   2.014  0.00  0.00    -0.300 N 
ATOM     33  C   UNL     1      -0.173   2.143   2.637  0.00  0.00    +0.280 C 
ATOM     34  O   UNL     1       0.771   2.891   2.809  0.00  0.00    -0.267 OA
ATOM     35  H   UNL     1      -2.033   1.993   1.873  0.00  0.00    +0.150 HD
BRANCH  33  36
ATOM     36  C   UNL     1      -0.103   0.754   3.101  0.00  0.00    +0.189 A 
ATOM     37  C   UNL     1       0.956   0.173   3.739  0.00  0.00    +0.054 A 
ATOM     38  C   UNL     1       0.591  -1.157   3.998  0.00  0.00    +0.042 A 
ATOM     39  C   UNL     1      -0.659  -1.328   3.514  0.00  0.00    +0.196 A 
ATOM     40  O   UNL     1      -1.076  -0.173   2.979  0.00  0.00    -0.458 OA
ENDBRANCH  33  36
ENDBRANCH  31  32
ENDBRANCH   2  31
TORSDOF 11
