REMARK  Name = ZINC66661263
REMARK  7 active torsions:
REMARK  status: ('A' for Active; 'I' for Inactive)
REMARK    1  A    between atoms: C_1  and  C_2
REMARK    2  A    between atoms: C_2  and  C_3
REMARK    3  A    between atoms: C_3  and  C_5
REMARK    4  A    between atoms: C_3  and  N_6
REMARK    5  A    between atoms: C_7  and  N_11
REMARK    6  A    between atoms: C_12  and  C_14
REMARK    7  A    between atoms: C_16  and  C_20
REMARK                            x       y       z     vdW  Elec       q    Type
REMARK                         _______ _______ _______ _____ _____    ______ ____
ROOT
ATOM      1  N   UNL     1       3.315  -2.142   1.220  0.00  0.00    -0.265 N 
ATOM      2  C   UNL     1       4.384  -2.962   1.204  0.00  0.00    +0.268 C 
ATOM      3  O   UNL     1       4.225  -4.167   1.143  0.00  0.00    -0.268 OA
ATOM      4  H   UNL     1       3.441  -1.181   1.269  0.00  0.00    +0.157 HD
ENDROOT
BRANCH   2   5
ATOM      5  C   UNL     1       5.742  -2.401   1.262  0.00  0.00    +0.135 A 
ATOM      6  C   UNL     1       6.931  -3.108   1.249  0.00  0.00    +0.075 A 
ATOM      7  C   UNL     1       7.943  -2.131   1.320  0.00  0.00    +0.107 A 
ATOM      8  N   UNL     1       7.357  -0.954   1.370  0.00  0.00    -0.172 NA
ATOM      9  N   UNL     1       6.079  -1.078   1.332  0.00  0.00    -0.271 N 
ATOM     10  H   UNL     1       5.447  -0.342   1.353  0.00  0.00    +0.189 HD
ATOM     11 BR   UNL     1       7.151  -4.984   1.156  0.00  0.00    -0.046 Br
BRANCH   7  12
ATOM     12  C   UNL     1       9.406  -2.384   1.337  0.00  0.00    +0.003 A 
ATOM     13  C   UNL     1       9.913  -3.514   1.976  0.00  0.00    +0.010 A 
ATOM     14  C   UNL     1      11.273  -3.744   1.988  0.00  0.00    +0.001 A 
ATOM     15  C   UNL     1      12.133  -2.855   1.368  0.00  0.00    +0.000 A 
ATOM     16  C   UNL     1      11.635  -1.732   0.732  0.00  0.00    +0.001 A 
ATOM     17  C   UNL     1      10.276  -1.496   0.709  0.00  0.00    +0.010 A 
ENDBRANCH   7  12
ENDBRANCH   2   5
BRANCH   1  19
ATOM     18  N   UNL     1       0.866  -1.969   1.174  0.00  0.00    -0.248 N 
ATOM     19  C   UNL     1       2.027  -2.674   1.166  0.00  0.00    +0.124 A 
ATOM     20  C   UNL     1       1.704  -3.994   1.095  0.00  0.00    +0.065 A 
ATOM     21  C   UNL     1       0.311  -4.093   1.059  0.00  0.00    +0.136 A 
ATOM     22  N   UNL     1      -0.191  -2.885   1.112  0.00  0.00    -0.178 NA
BRANCH  18  23
ATOM     23  C   UNL     1       0.742  -0.511   1.242  0.00  0.00    +0.106 C 
ATOM     24  C   UNL     1      -0.042  -0.124   2.497  0.00  0.00    +0.032 C 
BRANCH  23  26
ATOM     25  C   UNL     1      -0.019   1.526   0.010  0.00  0.00    +0.006 C 
ATOM     26  C   UNL     1       0.002  -0.004   0.002  0.00  0.00    +0.023 C 
ENDBRANCH  23  26
ENDBRANCH  18  23
ENDBRANCH   1  19
TORSDOF 5
