REMARK  Name = ZINC54431244
REMARK  12 active torsions:
REMARK  status: ('A' for Active; 'I' for Inactive)
REMARK    1  A    between atoms: C_1  and  C_2
REMARK    2  A    between atoms: C_5  and  C_30
REMARK    3  A    between atoms: N_8  and  C_10
REMARK    4  A    between atoms: C_10  and  C_11
REMARK    5  A    between atoms: C_10  and  C_12
REMARK    6  A    between atoms: C_10  and  C_13
REMARK    7  A    between atoms: C_13  and  N_14
REMARK    8  A    between atoms: N_17  and  C_18
REMARK    9  A    between atoms: C_21  and  C_24
REMARK   10  A    between atoms: C_24  and  C_25
REMARK   11  A    between atoms: N_27  and  C_28
REMARK   12  A    between atoms: N_27  and  C_29
REMARK                            x       y       z     vdW  Elec       q    Type
REMARK                         _______ _______ _______ _____ _____    ______ ____
ROOT
ATOM      1  N   UNL     1       0.628  -0.491   3.566  0.00  0.00    -0.300 N 
ATOM      2  C   UNL     1      -0.324  -0.083   4.429  0.00  0.00    +0.304 C 
ATOM      3  O   UNL     1      -0.068   0.771   5.256  0.00  0.00    -0.253 OA
ATOM      4  N   UNL     1      -1.558  -0.621   4.375  0.00  0.00    -0.269 N 
ATOM      5  H   UNL     1       0.424  -1.172   2.906  0.00  0.00    +0.150 HD
ATOM      6  H   UNL     1      -1.781  -1.254   3.675  0.00  0.00    +0.156 HD
ENDROOT
BRANCH   4   7
ATOM      7  C   UNL     1      -2.518  -0.266   5.329  0.00  0.00    +0.035 A 
ATOM      8  C   UNL     1      -3.419  -1.214   5.796  0.00  0.00    +0.023 A 
ATOM      9  C   UNL     1      -4.365  -0.861   6.738  0.00  0.00    +0.006 A 
ATOM     10  C   UNL     1      -4.416   0.436   7.216  0.00  0.00    -0.039 A 
ATOM     11  C   UNL     1      -3.521   1.382   6.753  0.00  0.00    +0.006 A 
ATOM     12  C   UNL     1      -2.569   1.034   5.815  0.00  0.00    +0.023 A 
BRANCH  10  13
ATOM     13  C   UNL     1      -5.450   0.818   8.244  0.00  0.00    +0.131 C 
BRANCH  13  14
ATOM     14  C   UNL     1      -4.890   0.598   9.626  0.00  0.00    +0.219 C 
ATOM     15  O   UNL     1      -3.763   0.172   9.762  0.00  0.00    -0.275 OA
ATOM     16  N   UNL     1      -5.642   0.874  10.709  0.00  0.00    -0.307 N 
ATOM     17  C   UNL     1      -5.098   0.660  12.053  0.00  0.00    +0.131 C 
ATOM     18  C   UNL     1      -7.004   1.387  10.544  0.00  0.00    +0.131 C 
ENDBRANCH  13  14
ENDBRANCH  10  13
ENDBRANCH   4   7
BRANCH   1  19
ATOM     19  C   UNL     1       1.970   0.094   3.624  0.00  0.00    +0.093 C 
BRANCH  19  20
ATOM     20  C   UNL     1       2.818  -0.460   2.478  0.00  0.00    -0.055 C 
ATOM     21  C   UNL     1       4.242   0.089   2.586  0.00  0.00    -0.008 C 
ATOM     22  C   UNL     1       2.208  -0.036   1.140  0.00  0.00    -0.008 C 
BRANCH  20  28
ATOM     23  C   UNL     1       1.927  -4.341   3.874  0.00  0.00    +0.005 C 
ATOM     24  C   UNL     1       3.375  -3.857   3.974  0.00  0.00    -0.031 C 
ATOM     25  C   UNL     1       4.200  -4.474   2.841  0.00  0.00    +0.003 C 
ATOM     26  C   UNL     1       3.652  -3.985   1.498  0.00  0.00    -0.031 C 
ATOM     27  C   UNL     1       3.679  -2.456   1.468  0.00  0.00    -0.075 C 
ATOM     28  N   UNL     1       2.851  -1.926   2.558  0.00  0.00    +0.384 N 
ATOM     29  C   UNL     1       3.413  -2.332   3.853  0.00  0.00    -0.075 C 
ATOM     30  C   UNL     1       4.517  -4.535   0.362  0.00  0.00    +0.005 C 
ATOM     31  H   UNL     1       1.913  -2.287   2.472  0.00  0.00    -0.081 HD
ENDBRANCH  20  28
ENDBRANCH  19  20
ENDBRANCH   1  19
TORSDOF 6
