REMARK  Name = ZINC48488704
REMARK  7 active torsions:
REMARK  status: ('A' for Active; 'I' for Inactive)
REMARK    1  A    between atoms: C_1  and  C_2
REMARK    2  A    between atoms: C_10  and  C_12
REMARK    3  A    between atoms: C_16  and  N_19
REMARK    4  A    between atoms: C_21  and  C_24
REMARK    5  A    between atoms: C_24  and  C_25
REMARK    6  A    between atoms: C_24  and  C_26
REMARK    7  A    between atoms: C_24  and  N_27
REMARK                            x       y       z     vdW  Elec       q    Type
REMARK                         _______ _______ _______ _____ _____    ______ ____
ROOT
ATOM      1  C   UNL     1       3.724  -2.118   2.075  0.00  0.00    +0.046 C 
ATOM      2  C   UNL     1       2.422  -2.396   1.367  0.00  0.00    -0.024 A 
ATOM      3  C   UNL     1       2.411  -3.139   0.226  0.00  0.00    +0.008 A 
ATOM      4  C   UNL     1       1.221  -3.406  -0.445  0.00  0.00    +0.039 A 
ATOM      5  C   UNL     1       0.031  -2.931   0.026  0.00  0.00    +0.133 A 
ATOM      6  C   UNL     1       0.007  -2.162   1.202  0.00  0.00    +0.036 A 
ATOM      7  C   UNL     1       1.218  -1.893   1.886  0.00  0.00    +0.079 A 
ATOM      8  N   UNL     1       1.202  -1.165   3.009  0.00  0.00    -0.231 NA
ATOM      9  C   UNL     1       0.075  -0.691   3.500  0.00  0.00    +0.125 A 
ATOM     10  C   UNL     1      -1.156  -0.927   2.871  0.00  0.00    -0.010 A 
ATOM     11  C   UNL     1      -1.201  -1.653   1.718  0.00  0.00    +0.019 A 
ATOM     12  C   UNL     1      -2.425  -0.370   3.462  0.00  0.00    +0.047 C 
ATOM     13  N   UNL     1       0.107   0.058   4.666  0.00  0.00    -0.315 N 
ATOM     14  C   UNL     1       0.070  -0.599   5.980  0.00  0.00    +0.108 C 
ATOM     15  C   UNL     1       1.260  -0.108   6.811  0.00  0.00    +0.046 C 
ATOM     16  C   UNL     1       1.237   1.421   6.872  0.00  0.00    +0.112 C 
ATOM     17  C   UNL     1       1.367   1.992   5.458  0.00  0.00    +0.046 C 
ATOM     18  C   UNL     1       0.185   1.524   4.612  0.00  0.00    +0.108 C 
ATOM     19  F   UNL     1      -1.117  -3.198  -0.635  0.00  0.00    -0.205 F 
ENDROOT
BRANCH  16  20
ATOM     20  N   UNL     1       2.355   1.893   7.694  0.00  0.00    -0.248 N 
ATOM     21  C   UNL     1       3.619   2.108   7.264  0.00  0.00    +0.132 A 
ATOM     22  C   UNL     1       4.317   2.535   8.342  0.00  0.00    +0.071 A 
ATOM     23  N   UNL     1       3.456   2.560   9.366  0.00  0.00    -0.136 NA
ATOM     24  N   UNL     1       2.301   2.179   8.947  0.00  0.00    -0.065 NA
BRANCH  22  25
ATOM     25  C   UNL     1       5.776   2.909   8.382  0.00  0.00    -0.030 C 
ATOM     26  C   UNL     1       6.155   3.337   9.801  0.00  0.00    -0.004 C 
ATOM     27  C   UNL     1       6.623   1.703   7.970  0.00  0.00    -0.004 C 
BRANCH  25  28
ATOM     28  N   UNL     1       6.022   4.021   7.454  0.00  0.00    +0.385 N 
ATOM     29  H   UNL     1       5.464   4.816   7.725  0.00  0.00    -0.089 HD
ATOM     30  H   UNL     1       7.000   4.271   7.480  0.00  0.00    -0.089 HD
ATOM     31  H   UNL     1       5.773   3.739   6.517  0.00  0.00    -0.089 HD
ENDBRANCH  25  28
ENDBRANCH  22  25
ENDBRANCH  16  20
TORSDOF 3
