REMARK  Name = ZINC06182544
REMARK  11 active torsions:
REMARK  status: ('A' for Active; 'I' for Inactive)
REMARK    1  A    between atoms: C_3  and  S_8
REMARK    2  A    between atoms: S_8  and  N_11
REMARK    3  A    between atoms: N_11  and  C_12
REMARK    4  A    between atoms: N_11  and  C_25
REMARK    5  A    between atoms: C_12  and  C_13
REMARK    6  A    between atoms: C_13  and  N_14
REMARK    7  A    between atoms: N_14  and  C_15
REMARK    8  A    between atoms: C_18  and  C_20
REMARK    9  A    between atoms: C_25  and  C_26
REMARK   10  A    between atoms: C_29  and  C_32
REMARK   11  A    between atoms: N_34  and  N_35
REMARK                            x       y       z     vdW  Elec       q    Type
REMARK                         _______ _______ _______ _____ _____    ______ ____
ROOT
ATOM      1  N   UNL     1       0.548  -1.808   2.262  0.00  0.00    -0.171 NA
ENDROOT
BRANCH   1   2
ATOM      2  S   UNL     1      -1.010  -1.565   2.768  0.00  0.00    +0.061 S 
ATOM      3  O   UNL     1      -1.368  -2.704   3.540  0.00  0.00    -0.153 OA
ATOM      4  O   UNL     1      -1.068  -0.244   3.289  0.00  0.00    -0.153 OA
BRANCH   2   7
ATOM      5  C   UNL     1      -3.382  -2.796  -0.232  0.00  0.00    +0.040 A 
ATOM      6  C   UNL     1      -2.579  -2.778   0.893  0.00  0.00    +0.031 A 
ATOM      7  C   UNL     1      -2.034  -1.587   1.334  0.00  0.00    +0.106 A 
ATOM      8  C   UNL     1      -2.295  -0.412   0.655  0.00  0.00    +0.031 A 
ATOM      9  C   UNL     1      -3.093  -0.428  -0.473  0.00  0.00    +0.040 A 
ATOM     10  C   UNL     1      -3.640  -1.620  -0.916  0.00  0.00    +0.124 A 
ATOM     11  F   UNL     1      -4.425  -1.637  -2.016  0.00  0.00    -0.205 F 
ENDBRANCH   2   7
ENDBRANCH   1   2
BRANCH   1  12
ATOM     12  C   UNL     1       1.084  -3.168   2.166  0.00  0.00    +0.128 C 
BRANCH  12  13
ATOM     13  C   UNL     1       1.835  -3.512   3.454  0.00  0.00    +0.120 C 
BRANCH  13  14
ATOM     14  N   UNL     1       2.371  -4.872   3.357  0.00  0.00    -0.328 N 
ATOM     15  H   UNL     1       2.220  -5.397   2.557  0.00  0.00    +0.147 HD
BRANCH  14  16
ATOM     16  C   UNL     1       3.098  -5.409   4.415  0.00  0.00    +0.115 A 
ATOM     17  C   UNL     1       3.599  -6.705   4.319  0.00  0.00    +0.079 A 
ATOM     18  C   UNL     1       4.325  -7.224   5.377  0.00  0.00    +0.037 A 
ATOM     19  C   UNL     1       4.515  -6.433   6.502  0.00  0.00    +0.072 A 
ATOM     20  C   UNL     1       3.985  -5.159   6.531  0.00  0.00    +0.096 A 
ATOM     21 CL   UNL     1       3.324  -7.652   2.891  0.00  0.00    -0.080 Cl
ATOM     22  N   UNL     1       3.272  -4.614   5.509  0.00  0.00    -0.348 N 
ATOM     23  H   UNL     1       2.888  -3.662   5.558  0.00  0.00    +0.167 HD
BRANCH  19  24
ATOM     24  C   UNL     1       5.293  -6.960   7.680  0.00  0.00    +0.419 C 
ATOM     25  F   UNL     1       5.345  -5.982   8.680  0.00  0.00    -0.166 F 
ATOM     26  F   UNL     1       4.664  -8.105   8.180  0.00  0.00    -0.166 F 
ATOM     27  F   UNL     1       6.593  -7.281   7.275  0.00  0.00    -0.166 F 
ENDBRANCH  19  24
ENDBRANCH  14  16
ENDBRANCH  13  14
ENDBRANCH  12  13
ENDBRANCH   1  12
BRANCH   1  28
ATOM     28  C   UNL     1       1.390  -0.662   1.910  0.00  0.00    +0.157 C 
BRANCH  28  29
ATOM     29  C   UNL     1       1.323  -0.424   0.400  0.00  0.00    +0.226 C 
ATOM     30  C   UNL     1       2.178   0.799  -0.006  0.00  0.00    +0.112 C 
ATOM     31  C   UNL     1       1.165   1.928   0.001  0.00  0.00    +0.146 C 
ATOM     32  N   UNL     1      -0.017   1.410   0.010  0.00  0.00    -0.084 NA
ATOM     33  O   UNL     1       0.002  -0.004   0.002  0.00  0.00    -0.388 OA
BRANCH  31  34
ATOM     34  C   UNL     1       1.476   3.370  -0.001  0.00  0.00    +0.275 C 
ATOM     35  O   UNL     1       2.634   3.742  -0.009  0.00  0.00    -0.267 OA
ATOM     36  N   UNL     1       0.478   4.276   0.007  0.00  0.00    -0.248 N 
ATOM     37  H   UNL     1      -0.446   3.979   0.014  0.00  0.00    +0.169 HD
BRANCH  36  38
ATOM     38  N   UNL     1       0.766   5.611   0.006  0.00  0.00    -0.254 NA
ATOM     39  H   UNL     1      -0.078   6.163   0.012  0.00  0.00    +0.140 HD
ATOM     40  H   UNL     1       1.363   5.853   0.782  0.00  0.00    +0.140 HD
ENDBRANCH  36  38
ENDBRANCH  31  34
ENDBRANCH  28  29
ENDBRANCH   1  28
TORSDOF 11
