REMARK  Name = ZINC07785472
REMARK  9 active torsions:
REMARK  status: ('A' for Active; 'I' for Inactive)
REMARK    1  A    between atoms: C_1  and  C_2
REMARK    2  A    between atoms: C_2  and  C_4
REMARK    3  A    between atoms: C_2  and  N_14
REMARK    4  A    between atoms: C_7  and  S_10
REMARK    5  A    between atoms: S_10  and  N_13
REMARK    6  A    between atoms: N_14  and  C_15
REMARK    7  A    between atoms: N_14  and  C_16
REMARK    8  A    between atoms: C_16  and  N_18
REMARK    9  A    between atoms: N_18  and  C_19
REMARK                            x       y       z     vdW  Elec       q    Type
REMARK                         _______ _______ _______ _____ _____    ______ ____
ROOT
ATOM      1  C   UNL     1      -0.684  -0.650  -6.863  0.00  0.00    +0.033 C 
ATOM      2  C   UNL     1      -0.872   0.627  -6.041  0.00  0.00    +0.102 C 
ENDROOT
BRANCH   2   3
ATOM      3  C   UNL     1      -0.457   1.820  -6.863  0.00  0.00    -0.027 A 
ATOM      4  C   UNL     1      -0.019   2.972  -6.237  0.00  0.00    +0.007 A 
ATOM      5  C   UNL     1       0.367   4.064  -6.992  0.00  0.00    +0.029 A 
ATOM      6  C   UNL     1       0.305   4.008  -8.372  0.00  0.00    +0.105 A 
ATOM      7  C   UNL     1      -0.138   2.858  -8.997  0.00  0.00    +0.029 A 
ATOM      8  C   UNL     1      -0.519   1.764  -8.243  0.00  0.00    +0.007 A 
BRANCH   6   9
ATOM      9  S   UNL     1       0.789   5.403  -9.333  0.00  0.00    +0.056 S 
ATOM     10  O   UNL     1       1.681   6.162  -8.527  0.00  0.00    -0.153 OA
ATOM     11  O   UNL     1       1.155   4.907 -10.613  0.00  0.00    -0.153 OA
BRANCH   9  12
ATOM     12  N   UNL     1      -0.560   6.337  -9.555  0.00  0.00    -0.204 NA
ATOM     13  H   UNL     1      -1.408   6.062  -9.175  0.00  0.00    +0.144 HD
ATOM     14  H   UNL     1      -0.501   7.160 -10.064  0.00  0.00    +0.144 HD
ENDBRANCH   9  12
ENDBRANCH   6   9
ENDBRANCH   2   3
BRANCH   2  15
ATOM     15  N   UNL     1      -0.047   0.556  -4.833  0.00  0.00    -0.309 N 
ATOM     16  C   UNL     1       1.390   0.292  -4.941  0.00  0.00    +0.131 C 
BRANCH  15  17
ATOM     17  C   UNL     1      -0.611   0.733  -3.621  0.00  0.00    +0.133 C 
ATOM     18  S   UNL     1      -2.290   1.040  -3.494  0.00  0.00    -0.019 S 
BRANCH  17  19
ATOM     19  N   UNL     1       0.148   0.667  -2.509  0.00  0.00    -0.324 N 
ATOM     20  H   UNL     1       1.100   0.493  -2.581  0.00  0.00    +0.148 HD
BRANCH  19  21
ATOM     21  C   UNL     1      -0.464   0.859  -1.192  0.00  0.00    +0.072 C 
ATOM     22  C   UNL     1       0.381   0.154  -0.129  0.00  0.00    +0.022 C 
ATOM     23  C   UNL     1      -0.258   0.355   1.246  0.00  0.00    +0.002 C 
ATOM     24  C   UNL     1      -0.331   1.851   1.562  0.00  0.00    +0.000 C 
ATOM     25  C   UNL     1      -1.177   2.555   0.499  0.00  0.00    +0.002 C 
ATOM     26  C   UNL     1      -0.537   2.354  -0.877  0.00  0.00    +0.022 C 
ENDBRANCH  19  21
ENDBRANCH  17  19
ENDBRANCH  15  17
ENDBRANCH   2  15
TORSDOF 7
