REMARK  Name = ZINC08992072
REMARK  3 active torsions:
REMARK  status: ('A' for Active; 'I' for Inactive)
REMARK    1  A    between atoms: C_6  and  C_7
REMARK    2  A    between atoms: C_10  and  C_12
REMARK    3  A    between atoms: N_13  and  N_14
REMARK                            x       y       z     vdW  Elec       q    Type
REMARK                         _______ _______ _______ _____ _____    ______ ____
ROOT
ATOM      1  C   UNL     1      -0.101  -1.016  -3.680  0.00  0.00    +0.176 C 
ATOM      2  N   UNL     1       0.121  -0.036  -2.853  0.00  0.00    -0.182 NA
ENDROOT
BRANCH   2   3
ATOM      3  N   UNL     1      -0.949   0.734  -2.376  0.00  0.00    -0.198 N 
ATOM      4  C   UNL     1      -2.349   0.615  -2.813  0.00  0.00    +0.143 C 
ATOM      5  C   UNL     1      -2.424   0.853  -4.337  0.00  0.00    +0.192 C 
ATOM      6  S   UNL     1      -3.932   1.908  -4.468  0.00  0.00    -0.027 S 
ATOM      7  O   UNL     1      -3.759   2.847  -5.520  0.00  0.00    -0.174 OA
ATOM      8  O   UNL     1      -5.088   1.081  -4.443  0.00  0.00    -0.174 OA
ATOM      9  C   UNL     1      -3.744   2.778  -2.842  0.00  0.00    +0.190 C 
ATOM     10  C   UNL     1      -3.078   1.679  -1.988  0.00  0.00    +0.117 C 
ATOM     11  N   UNL     1      -2.031   2.286  -1.166  0.00  0.00    -0.319 N 
ATOM     12  C   UNL     1      -0.861   1.697  -1.449  0.00  0.00    +0.153 C 
ATOM     13  S   UNL     1       0.612   2.136  -0.695  0.00  0.00    -0.017 S 
ATOM     14  H   UNL     1      -2.162   3.001  -0.524  0.00  0.00    +0.148 HD
ENDBRANCH   2   3
BRANCH   1  18
ATOM     15  C   UNL     1       3.076  -2.366  -4.758  0.00  0.00    +0.136 A 
ATOM     16  C   UNL     1       2.243  -3.185  -5.460  0.00  0.00    +0.050 A 
ATOM     17  C   UNL     1       0.931  -2.799  -5.152  0.00  0.00    +0.051 A 
ATOM     18  C   UNL     1       1.024  -1.744  -4.272  0.00  0.00    +0.148 A 
ATOM     19  O   UNL     1       2.331  -1.501  -4.045  0.00  0.00    -0.454 OA
BRANCH  15  25
ATOM     20  C   UNL     1       5.209  -3.373  -5.558  0.00  0.00    +0.014 A 
ATOM     21  C   UNL     1       6.587  -3.414  -5.576  0.00  0.00    +0.039 A 
ATOM     22  C   UNL     1       7.320  -2.519  -4.811  0.00  0.00    +0.123 A 
ATOM     23  C   UNL     1       6.673  -1.575  -4.030  0.00  0.00    +0.039 A 
ATOM     24  C   UNL     1       5.295  -1.520  -4.009  0.00  0.00    +0.014 A 
ATOM     25  C   UNL     1       4.551  -2.420  -4.777  0.00  0.00    +0.017 A 
ATOM     26  F   UNL     1       8.670  -2.568  -4.828  0.00  0.00    -0.205 F 
ENDBRANCH  15  25
ENDBRANCH   1  18
TORSDOF 3
