REMARK  Name = ZINC36154931
REMARK  14 active torsions:
REMARK  status: ('A' for Active; 'I' for Inactive)
REMARK    1  A    between atoms: C_1  and  C_2
REMARK    2  A    between atoms: C_2  and  C_3
REMARK    3  A    between atoms: C_3  and  C_5
REMARK    4  A    between atoms: C_3  and  C_6
REMARK    5  A    between atoms: C_6  and  C_8
REMARK    6  A    between atoms: C_6  and  N_22
REMARK    7  A    between atoms: C_10  and  C_13
REMARK    8  A    between atoms: N_22  and  C_23
REMARK    9  A    between atoms: C_23  and  C_24
REMARK   10  A    between atoms: C_24  and  C_26
REMARK   11  A    between atoms: C_24  and  O_35
REMARK   12  A    between atoms: C_26  and  O_27
REMARK   13  A    between atoms: O_27  and  C_28
REMARK   14  A    between atoms: C_28  and  C_29
REMARK                            x       y       z     vdW  Elec       q    Type
REMARK                         _______ _______ _______ _____ _____    ______ ____
ROOT
ATOM      1  C   UNL     1       0.630  -2.023  -1.329  0.00  0.00    +0.022 C 
ENDROOT
BRANCH   1   2
ATOM      2  C   UNL     1       1.175  -2.618  -0.055  0.00  0.00    +0.214 A 
ATOM      3  N   UNL     1       2.332  -3.200   0.079  0.00  0.00    -0.193 NA
ATOM      4  C   UNL     1       2.495  -3.614   1.348  0.00  0.00    +0.202 A 
ATOM      5  N   UNL     1       1.426  -3.292   2.034  0.00  0.00    -0.056 NA
ATOM      6  O   UNL     1       0.551  -2.633   1.130  0.00  0.00    -0.339 OA
BRANCH   4   7
ATOM      7  C   UNL     1       3.687  -4.318   1.883  0.00  0.00    +0.026 A 
ATOM      8  C   UNL     1       4.766  -4.598   1.046  0.00  0.00    +0.015 A 
ATOM      9  C   UNL     1       5.873  -5.252   1.544  0.00  0.00    +0.050 A 
ATOM     10  C   UNL     1       5.917  -5.635   2.876  0.00  0.00    +0.166 A 
ATOM     11  C   UNL     1       4.841  -5.357   3.717  0.00  0.00    +0.167 A 
ATOM     12  C   UNL     1       3.731  -4.695   3.224  0.00  0.00    +0.061 A 
ATOM     13  O   UNL     1       5.129  -5.831   4.965  0.00  0.00    -0.453 OA
ATOM     14  C   UNL     1       6.213  -6.760   4.782  0.00  0.00    +0.466 C 
ATOM     15  O   UNL     1       6.878  -6.282   3.598  0.00  0.00    -0.453 OA
ENDBRANCH   4   7
ENDBRANCH   1   2
BRANCH   1  16
ATOM     16  N   UNL     1      -0.772  -2.426  -1.497  0.00  0.00    +0.389 N 
ATOM     17  H   UNL     1      -0.840  -3.432  -1.462  0.00  0.00    -0.085 HD
ATOM     18  H   UNL     1      -1.328  -2.025  -0.756  0.00  0.00    -0.085 HD
BRANCH  16  19
ATOM     19  C   UNL     1      -1.267  -1.946  -2.794  0.00  0.00    -0.048 C 
BRANCH  19  20
ATOM     20  C   UNL     1      -2.728  -2.365  -2.969  0.00  0.00    +0.123 C 
BRANCH  20  21
ATOM     21  O   UNL     1      -2.825  -3.790  -2.920  0.00  0.00    -0.391 OA
ATOM     22  H   UNL     1      -2.314  -4.243  -3.604  0.00  0.00    +0.210 HD
ENDBRANCH  20  21
BRANCH  20  23
ATOM     23  C   UNL     1      -3.244  -1.866  -4.320  0.00  0.00    +0.189 C 
BRANCH  23  24
ATOM     24  O   UNL     1      -4.638  -2.155  -4.435  0.00  0.00    -0.373 OA
BRANCH  24  25
ATOM     25  C   UNL     1      -5.222  -1.728  -5.667  0.00  0.00    +0.195 C 
BRANCH  25  26
ATOM     26  C   UNL     1      -6.687  -2.081  -5.679  0.00  0.00    -0.022 A 
ATOM     27  C   UNL     1      -7.098  -3.306  -6.170  0.00  0.00    +0.006 A 
ATOM     28  C   UNL     1      -8.442  -3.630  -6.181  0.00  0.00    +0.000 A 
ATOM     29  C   UNL     1      -9.374  -2.730  -5.700  0.00  0.00    +0.000 A 
ATOM     30  C   UNL     1      -8.963  -1.505  -5.208  0.00  0.00    +0.000 A 
ATOM     31  C   UNL     1      -7.618  -1.183  -5.194  0.00  0.00    +0.006 A 
ENDBRANCH  25  26
ENDBRANCH  24  25
ENDBRANCH  23  24
ENDBRANCH  20  23
ENDBRANCH  19  20
ENDBRANCH  16  19
ENDBRANCH   1  16
BRANCH   1  32
ATOM     32  C   UNL     1       0.718  -0.497  -1.257  0.00  0.00    -0.020 C 
ATOM     33  C   UNL     1       2.187  -0.073  -1.207  0.00  0.00    +0.006 C 
BRANCH  32  35
ATOM     34  C   UNL     1      -0.019   1.526   0.010  0.00  0.00    +0.004 C 
ATOM     35  C   UNL     1       0.002  -0.004   0.002  0.00  0.00    -0.001 C 
ENDBRANCH  32  35
ENDBRANCH   1  32
TORSDOF 12
