REMARK  Name = ZINC38814900
REMARK  7 active torsions:
REMARK  status: ('A' for Active; 'I' for Inactive)
REMARK    1  A    between atoms: C_1  and  C_2
REMARK    2  A    between atoms: C_4  and  C_15
REMARK    3  A    between atoms: C_5  and  C_14
REMARK    4  A    between atoms: N_7  and  C_8
REMARK    5  A    between atoms: C_18  and  C_20
REMARK    6  A    between atoms: N_22  and  N_23
REMARK    7  A    between atoms: C_24  and  C_25
REMARK                            x       y       z     vdW  Elec       q    Type
REMARK                         _______ _______ _______ _____ _____    ______ ____
ROOT
ATOM      1  C   UNL     1       0.755   0.265  -2.593  0.00  0.00    +0.076 C 
ATOM      2  N   UNL     1      -0.288   0.927  -3.068  0.00  0.00    -0.153 NA
ATOM      3  N   UNL     1      -0.420   0.850  -4.334  0.00  0.00    -0.148 NA
ATOM      4  C   UNL     1       0.501   0.131  -4.932  0.00  0.00    +0.132 C 
ATOM      5  C   UNL     1       1.415  -0.349  -3.817  0.00  0.00    +0.120 C 
ENDROOT
BRANCH   1   8
ATOM      6  C   UNL     1       0.478   2.305  -0.176  0.00  0.00    +0.035 C 
ATOM      7  C   UNL     1       0.487   0.779  -0.057  0.00  0.00    +0.124 C 
ATOM      8  C   UNL     1       1.163   0.158  -1.261  0.00  0.00    +0.016 C 
ATOM      9  C   UNL     1       2.242  -0.523  -0.796  0.00  0.00    +0.026 C 
ATOM     10  N   UNL     1       2.351  -0.423   0.549  0.00  0.00    -0.267 N 
ATOM     11  N   UNL     1       1.315   0.357   1.085  0.00  0.00    -0.246 N 
ATOM     12  C   UNL     1       3.198  -1.295  -1.668  0.00  0.00    +0.062 C 
ATOM     13  H   UNL     1       3.053  -0.838   1.075  0.00  0.00    +0.170 HD
BRANCH  11  14
ATOM     14  C   UNL     1       1.109   0.672   2.430  0.00  0.00    +0.048 A 
ATOM     15  C   UNL     1       0.027   1.458   2.803  0.00  0.00    +0.025 A 
ATOM     16  C   UNL     1      -0.174   1.767   4.134  0.00  0.00    +0.002 A 
ATOM     17  C   UNL     1       0.702   1.295   5.095  0.00  0.00    +0.000 A 
ATOM     18  C   UNL     1       1.780   0.513   4.727  0.00  0.00    +0.002 A 
ATOM     19  C   UNL     1       1.984   0.195   3.398  0.00  0.00    +0.025 A 
ENDBRANCH  11  14
ENDBRANCH   1   8
BRANCH   4  20
ATOM     20  C   UNL     1       0.619  -0.136  -6.316  0.00  0.00    +0.280 C 
ATOM     21  O   UNL     1       1.534  -0.827  -6.727  0.00  0.00    -0.267 OA
ATOM     22  N   UNL     1      -0.280   0.374  -7.180  0.00  0.00    -0.202 N 
ATOM     23  H   UNL     1      -1.009   0.925  -6.853  0.00  0.00    +0.178 HD
BRANCH  22  24
ATOM     24  N   UNL     1      -0.163   0.110  -8.551  0.00  0.00    -0.188 NA
ATOM     25  C   UNL     1      -1.097   0.512  -9.378  0.00  0.00    +0.136 C 
BRANCH  25  26
ATOM     26  C   UNL     1      -2.182   1.257  -8.900  0.00  0.00    +0.000 C 
ATOM     27  C   UNL     1      -3.258   1.747  -9.639  0.00  0.00    +0.004 A 
ATOM     28  C   UNL     1      -3.592   1.665 -11.008  0.00  0.00    +0.010 A 
ATOM     29  C   UNL     1      -4.730   2.251 -11.460  0.00  0.00    +0.001 A 
ATOM     30  C   UNL     1      -5.590   2.940 -10.600  0.00  0.00    +0.002 A 
ATOM     31  C   UNL     1      -5.333   3.059  -9.275  0.00  0.00    +0.026 A 
ATOM     32  C   UNL     1      -4.161   2.472  -8.728  0.00  0.00    +0.043 A 
ATOM     33  N   UNL     1      -3.693   2.446  -7.497  0.00  0.00    -0.380 N 
ATOM     34  C   UNL     1      -2.435   1.693  -7.474  0.00  0.00    +0.150 C 
ATOM     35  H   UNL     1      -4.116   2.856  -6.727  0.00  0.00    +0.160 HD
ENDBRANCH  25  26
ENDBRANCH  22  24
ENDBRANCH   4  20
TORSDOF 5
