REMARK  Name = ZINC12553687
REMARK  9 active torsions:
REMARK  status: ('A' for Active; 'I' for Inactive)
REMARK    1  A    between atoms: C_1  and  C_2
REMARK    2  A    between atoms: C_2  and  C_4
REMARK    3  A    between atoms: C_2  and  S_13
REMARK    4  A    between atoms: N_6  and  C_7
REMARK    5  A    between atoms: C_7  and  C_8
REMARK    6  A    between atoms: S_13  and  C_14
REMARK    7  A    between atoms: C_17  and  C_25
REMARK    8  A    between atoms: N_18  and  C_19
REMARK    9  A    between atoms: C_25  and  N_57
REMARK                            x       y       z     vdW  Elec       q    Type
REMARK                         _______ _______ _______ _____ _____    ______ ____
ROOT
ATOM      1  C   UNL     1       3.948   2.070   0.603  0.00  0.00    +0.197 A 
ATOM      2  N   UNL     1       3.878   3.344   0.289  0.00  0.00    -0.122 NA
ATOM      3  N   UNL     1       5.032   3.893   0.430  0.00  0.00    -0.135 NA
ATOM      4  C   UNL     1       5.901   3.013   0.839  0.00  0.00    +0.122 A 
ATOM      5  N   UNL     1       5.242   1.819   0.970  0.00  0.00    -0.276 N 
ENDROOT
BRANCH   5   6
ATOM      6  C   UNL     1       5.781   0.595   1.390  0.00  0.00    +0.050 A 
ATOM      7  C   UNL     1       6.263   0.454   2.684  0.00  0.00    +0.026 A 
ATOM      8  C   UNL     1       6.788  -0.755   3.096  0.00  0.00    +0.002 A 
ATOM      9  C   UNL     1       6.845  -1.821   2.218  0.00  0.00    +0.000 A 
ATOM     10  C   UNL     1       6.371  -1.683   0.926  0.00  0.00    +0.002 A 
ATOM     11  C   UNL     1       5.840  -0.477   0.510  0.00  0.00    +0.026 A 
ENDBRANCH   5   6
BRANCH   1  12
ATOM     12  S   UNL     1       2.625   0.908   0.566  0.00  0.00    -0.073 S 
BRANCH  12  14
ATOM     13  C   UNL     1       1.577   2.464  -1.420  0.00  0.00    +0.029 C 
ATOM     14  C   UNL     1       1.280   1.980   0.001  0.00  0.00    +0.137 C 
BRANCH  14  15
ATOM     15  C   UNL     1      -0.014   1.209   0.009  0.00  0.00    +0.227 C 
ATOM     16  O   UNL     1       0.002  -0.004   0.002  0.00  0.00    -0.275 OA
ATOM     17  N   UNL     1      -1.191   1.867   0.018  0.00  0.00    -0.307 N 
ATOM     18  H   UNL     1      -1.204   2.837   0.023  0.00  0.00    +0.149 HD
BRANCH  17  19
ATOM     19  C   UNL     1      -2.449   1.117   0.020  0.00  0.00    +0.178 C 
BRANCH  19  20
ATOM     20  C   UNL     1      -3.608   2.080   0.030  0.00  0.00    +0.122 A 
ATOM     21  C   UNL     1      -4.218   2.590  -1.055  0.00  0.00    +0.046 A 
ATOM     22  C   UNL     1      -5.244   3.442  -0.586  0.00  0.00    +0.041 A 
ATOM     23  C   UNL     1      -5.199   3.403   0.757  0.00  0.00    +0.195 A 
ATOM     24  O   UNL     1      -4.210   2.572   1.125  0.00  0.00    -0.466 OA
ENDBRANCH  19  20
ENDBRANCH  17  19
ENDBRANCH  14  15
ENDBRANCH  12  14
ENDBRANCH   1  12
BRANCH   4  25
ATOM     25  C   UNL     1       7.360   3.263   1.121  0.00  0.00    -0.001 C 
BRANCH  25  31
ATOM     26  C   UNL     1       6.887   4.946   2.796  0.00  0.00    -0.078 C 
ATOM     27  C   UNL     1       6.953   5.249   4.294  0.00  0.00    -0.019 C 
ATOM     28  C   UNL     1       8.418   5.281   4.739  0.00  0.00    -0.004 C 
ATOM     29  C   UNL     1       9.074   3.939   4.405  0.00  0.00    -0.019 C 
ATOM     30  C   UNL     1       8.946   3.674   2.903  0.00  0.00    -0.078 C 
ATOM     31  N   UNL     1       7.513   3.631   2.544  0.00  0.00    +0.384 N 
ATOM     32  H   UNL     1       7.045   2.923   3.123  0.00  0.00    -0.081 HD
ENDBRANCH  25  31
ENDBRANCH   4  25
TORSDOF 8
