REMARK  Name = ZINC36207837
REMARK  15 active torsions:
REMARK  status: ('A' for Active; 'I' for Inactive)
REMARK    1  A    between atoms: C_1  and  O_2
REMARK    2  A    between atoms: O_2  and  C_3
REMARK    3  A    between atoms: C_3  and  C_4
REMARK    4  A    between atoms: C_4  and  N_5
REMARK    5  A    between atoms: N_5  and  C_6
REMARK    6  A    between atoms: N_5  and  C_26
REMARK    7  A    between atoms: C_6  and  C_7
REMARK    8  A    between atoms: C_13  and  C_18
REMARK    9  A    between atoms: C_21  and  O_24
REMARK   10  A    between atoms: O_24  and  C_25
REMARK   11  A    between atoms: C_26  and  C_27
REMARK   12  A    between atoms: C_27  and  C_29
REMARK   13  A    between atoms: C_27  and  O_32
REMARK   14  A    between atoms: C_29  and  O_30
REMARK   15  A    between atoms: O_30  and  C_31
REMARK                            x       y       z     vdW  Elec       q    Type
REMARK                         _______ _______ _______ _____ _____    ______ ____
ROOT
ATOM      1  C   UNL     1       3.349  -0.348   0.276  0.00  0.00    +0.094 A 
ATOM      2  N   UNL     1       4.650   0.011   0.423  0.00  0.00    -0.312 N 
ATOM      3  H   UNL     1       5.313  -0.671   0.614  0.00  0.00    +0.170 HD
ATOM      4  C   UNL     1       5.038   1.294   0.309  0.00  0.00    +0.260 A 
ATOM      5  O   UNL     1       6.211   1.600   0.443  0.00  0.00    -0.267 OA
ATOM      6  C   UNL     1       4.054   2.295   0.028  0.00  0.00    +0.080 A 
ATOM      7  C   UNL     1       4.222   3.733  -0.140  0.00  0.00    +0.004 A 
ATOM      8  C   UNL     1       3.130   4.490  -0.405  0.00  0.00    +0.056 A 
ATOM      9  S   UNL     1       1.803   3.301  -0.444  0.00  0.00    -0.076 S 
ATOM     10  C   UNL     1       2.736   1.830  -0.107  0.00  0.00    +0.116 A 
ATOM     11  N   UNL     1       2.429   0.541   0.014  0.00  0.00    -0.229 NA
ENDROOT
BRANCH   7  12
ATOM     12  C   UNL     1       5.562   4.356  -0.022  0.00  0.00    -0.016 A 
ATOM     13  C   UNL     1       6.372   4.070   1.077  0.00  0.00    +0.012 A 
ATOM     14  C   UNL     1       7.618   4.650   1.183  0.00  0.00    +0.046 A 
ATOM     15  C   UNL     1       8.068   5.518   0.197  0.00  0.00    +0.120 A 
ATOM     16  C   UNL     1       7.264   5.806  -0.898  0.00  0.00    +0.046 A 
ATOM     17  C   UNL     1       6.019   5.224  -1.013  0.00  0.00    +0.012 A 
BRANCH  15  18
ATOM     18  O   UNL     1       9.296   6.089   0.304  0.00  0.00    -0.495 OA
ATOM     19  C   UNL     1       9.696   6.972  -0.745  0.00  0.00    +0.277 C 
ENDBRANCH  15  18
ENDBRANCH   7  12
BRANCH   1  20
ATOM     20  C   UNL     1       2.961  -1.798   0.411  0.00  0.00    -0.003 C 
BRANCH  20  21
ATOM     21  N   UNL     1       1.545  -1.962   0.054  0.00  0.00    +0.388 N 
ATOM     22  H   UNL     1       0.982  -1.344   0.620  0.00  0.00    -0.081 HD
BRANCH  21  23
ATOM     23  C   UNL     1       1.138  -3.353   0.293  0.00  0.00    -0.050 C 
BRANCH  23  24
ATOM     24  C   UNL     1       1.256  -3.670   1.785  0.00  0.00    +0.141 C 
BRANCH  24  26
ATOM     25  C   UNL     1       0.505  -2.947   3.943  0.00  0.00    +0.193 C 
ATOM     26  O   UNL     1       0.389  -2.809   2.525  0.00  0.00    -0.385 OA
ENDBRANCH  24  26
ENDBRANCH  23  24
ENDBRANCH  21  23
BRANCH  21  27
ATOM     27  C   UNL     1       1.357  -1.632  -1.365  0.00  0.00    -0.044 C 
BRANCH  27  28
ATOM     28  C   UNL     1      -0.138  -1.601  -1.687  0.00  0.00    +0.124 C 
BRANCH  28  29
ATOM     29  O   UNL     1      -0.663  -2.929  -1.643  0.00  0.00    -0.391 OA
ATOM     30  H   UNL     1      -0.249  -3.537  -2.271  0.00  0.00    +0.210 HD
ENDBRANCH  28  29
BRANCH  28  31
ATOM     31  C   UNL     1      -0.347  -1.016  -3.085  0.00  0.00    +0.188 C 
BRANCH  31  32
ATOM     32  O   UNL     1      -1.746  -0.878  -3.341  0.00  0.00    -0.381 OA
ATOM     33  C   UNL     1      -2.051  -0.337  -4.628  0.00  0.00    +0.194 C 
ENDBRANCH  31  32
ENDBRANCH  28  31
ENDBRANCH  27  28
ENDBRANCH  21  27
ENDBRANCH  20  21
ENDBRANCH   1  20
TORSDOF 12
