REMARK  Name = ZINC36142611
REMARK  5 active torsions:
REMARK  status: ('A' for Active; 'I' for Inactive)
REMARK    1  A    between atoms: C_1  and  C_2
REMARK    2  A    between atoms: C_2  and  C_3
REMARK    3  A    between atoms: C_6  and  C_9
REMARK    4  A    between atoms: C_16  and  C_22
REMARK    5  A    between atoms: C_18  and  N_21
REMARK                            x       y       z     vdW  Elec       q    Type
REMARK                         _______ _______ _______ _____ _____    ______ ____
ROOT
ATOM      1  C   UNL     1      -5.419  -2.005   0.043  0.00  0.00    +0.211 C 
ATOM      2  C   UNL     1      -6.396  -0.845  -0.200  0.00  0.00    +0.129 C 
ATOM      3  C   UNL     1      -7.796  -1.434  -0.213  0.00  0.00    +0.171 C 
ATOM      4  O   UNL     1      -8.732  -0.865   0.308  0.00  0.00    -0.292 OA
ATOM      5  C   UNL     1      -7.958  -2.732  -0.890  0.00  0.00    +0.061 A 
ATOM      6  C   UNL     1      -9.230  -3.235  -1.174  0.00  0.00    +0.018 A 
ATOM      7  C   UNL     1      -9.359  -4.453  -1.806  0.00  0.00    -0.048 A 
ATOM      8  C   UNL     1      -8.232  -5.179  -2.158  0.00  0.00    +0.029 A 
ATOM      9  C   UNL     1      -6.964  -4.692  -1.884  0.00  0.00    +0.068 A 
ATOM     10  C   UNL     1      -6.814  -3.460  -1.248  0.00  0.00    +0.152 A 
ATOM     11  O   UNL     1      -5.575  -2.978  -0.989  0.00  0.00    -0.481 OA
ATOM     12  C   UNL     1     -10.729  -4.999  -2.113  0.00  0.00    +0.044 C 
ENDROOT
BRANCH   1  16
ATOM     13  C   UNL     1      -1.412  -0.526   0.013  0.00  0.00    -0.048 A 
ATOM     14  C   UNL     1      -2.051  -0.766   1.215  0.00  0.00    +0.004 A 
ATOM     15  C   UNL     1      -3.348  -1.244   1.225  0.00  0.00    +0.007 A 
ATOM     16  C   UNL     1      -4.006  -1.482   0.032  0.00  0.00    -0.007 A 
ATOM     17  C   UNL     1      -3.367  -1.241  -1.170  0.00  0.00    +0.007 A 
ATOM     18  C   UNL     1      -2.072  -0.758  -1.179  0.00  0.00    +0.004 A 
BRANCH  13  20
ATOM     19  C   UNL     1      -0.019   1.526   0.010  0.00  0.00    +0.009 C 
ATOM     20  C   UNL     1       0.002  -0.004   0.002  0.00  0.00    +0.032 C 
ENDBRANCH  13  20
ENDBRANCH   1  16
BRANCH   9  21
ATOM     21  N   UNL     1      -5.835  -5.436  -2.245  0.00  0.00    -0.355 N 
ATOM     22  H   UNL     1      -5.939  -6.293  -2.687  0.00  0.00    +0.142 HD
ATOM     23  H   UNL     1      -4.947  -5.095  -2.053  0.00  0.00    +0.142 HD
ENDBRANCH   9  21
TORSDOF 3
