REMARK  Name = ZINC45163984
REMARK  5 active torsions:
REMARK  status: ('A' for Active; 'I' for Inactive)
REMARK    1  A    between atoms: C_1  and  N_2
REMARK    2  A    between atoms: C_3  and  C_5
REMARK    3  A    between atoms: C_5  and  C_6
REMARK    4  A    between atoms: C_6  and  N_7
REMARK    5  A    between atoms: N_10  and  C_11
REMARK                            x       y       z     vdW  Elec       q    Type
REMARK                         _______ _______ _______ _____ _____    ______ ____
ROOT
ATOM      1  N   UNL     1       1.341  -4.130  -2.293  0.00  0.00    -0.299 N 
ATOM      2  C   UNL     1       1.925  -4.790  -3.313  0.00  0.00    +0.300 C 
ATOM      3  O   UNL     1       2.434  -4.170  -4.227  0.00  0.00    -0.253 OA
ATOM      4  N   UNL     1       1.943  -6.138  -3.321  0.00  0.00    -0.294 N 
ATOM      5  H   UNL     1       0.935  -4.624  -1.564  0.00  0.00    +0.150 HD
ATOM      6  H   UNL     1       1.536  -6.632  -2.592  0.00  0.00    +0.151 HD
ENDROOT
BRANCH   4   7
ATOM      7  C   UNL     1       2.576  -6.856  -4.429  0.00  0.00    +0.037 C 
ATOM      8  C   UNL     1       1.878  -6.488  -5.740  0.00  0.00    +0.029 C 
ATOM      9  C   UNL     1       2.540  -7.238  -6.898  0.00  0.00    -0.008 C 
ATOM     10  C   UNL     1       2.423  -8.745  -6.663  0.00  0.00    +0.007 C 
ATOM     11  C   UNL     1       3.121  -9.113  -5.352  0.00  0.00    -0.008 C 
ATOM     12  C   UNL     1       2.459  -8.363  -4.194  0.00  0.00    +0.029 C 
ATOM     13  C   UNL     1       4.598  -8.722  -5.434  0.00  0.00    +0.007 C 
ATOM     14  C   UNL     1       4.715  -7.215  -5.669  0.00  0.00    -0.008 C 
ATOM     15  C   UNL     1       4.017  -6.848  -6.980  0.00  0.00    +0.007 C 
ATOM     16  C   UNL     1       4.054  -6.465  -4.511  0.00  0.00    +0.029 C 
ENDBRANCH   4   7
BRANCH   1  17
ATOM     17  C   UNL     1       1.322  -2.665  -2.285  0.00  0.00    +0.115 C 
BRANCH  17  18
ATOM     18  C   UNL     1       0.606  -2.171  -1.026  0.00  0.00    +0.114 C 
BRANCH  18  21
ATOM     19  C   UNL     1      -0.018   1.461   0.010  0.00  0.00    +0.128 C 
ATOM     20  N   UNL     1       0.002  -0.004   0.002  0.00  0.00    -0.318 N 
ATOM     21  C   UNL     1       0.585  -0.664  -1.018  0.00  0.00    +0.214 C 
ATOM     22  O   UNL     1       1.093  -0.046  -1.929  0.00  0.00    -0.276 OA
ATOM     23  H   UNL     1      -0.404  -0.499   0.731  0.00  0.00    +0.148 HD
ENDBRANCH  18  21
ENDBRANCH  17  18
ENDBRANCH   1  17
TORSDOF 4
