REMARK  Name = ZINC09797688
REMARK  5 active torsions:
REMARK  status: ('A' for Active; 'I' for Inactive)
REMARK    1  A    between atoms: C_1  and  C_2
REMARK    2  A    between atoms: C_7  and  C_8
REMARK    3  A    between atoms: N_10  and  N_11
REMARK    4  A    between atoms: N_14  and  C_15
REMARK    5  A    between atoms: C_21  and  C_23
REMARK                            x       y       z     vdW  Elec       q    Type
REMARK                         _______ _______ _______ _____ _____    ______ ____
ROOT
ATOM      1  N   UNL     1       0.573   0.035   4.838  0.00  0.00    -0.218 N 
ATOM      2  C   UNL     1       0.796  -0.642   5.982  0.00  0.00    +0.316 C 
ATOM      3  O   UNL     1       0.890  -0.042   7.036  0.00  0.00    -0.251 OA
ATOM      4  N   UNL     1       0.915  -1.985   5.958  0.00  0.00    -0.295 N 
ATOM      5  H   UNL     1       0.488   1.001   4.856  0.00  0.00    +0.174 HD
ATOM      6  H   UNL     1       0.840  -2.463   5.118  0.00  0.00    +0.151 HD
ENDROOT
BRANCH   4   7
ATOM      7  C   UNL     1       1.157  -2.721   7.201  0.00  0.00    +0.077 C 
ATOM      8  C   UNL     1      -0.177  -2.998   7.898  0.00  0.00    +0.022 C 
ATOM      9  C   UNL     1       0.076  -3.767   9.196  0.00  0.00    +0.002 C 
ATOM     10  C   UNL     1       0.770  -5.093   8.877  0.00  0.00    +0.000 C 
ATOM     11  C   UNL     1       2.103  -4.816   8.180  0.00  0.00    +0.005 C 
ATOM     12  C   UNL     1       1.851  -4.047   6.882  0.00  0.00    +0.006 C 
ATOM     13  C   UNL     1       3.184  -3.769   6.185  0.00  0.00    +0.009 C 
ENDBRANCH   4   7
BRANCH   1  16
ATOM     14  C   UNL     1       0.242   0.021   2.481  0.00  0.00    +0.260 C 
ATOM     15  O   UNL     1       0.135   1.232   2.503  0.00  0.00    -0.269 OA
ATOM     16  N   UNL     1       0.465  -0.656   3.625  0.00  0.00    -0.229 N 
ATOM     17  H   UNL     1       0.550  -1.622   3.607  0.00  0.00    +0.173 HD
BRANCH  14  24
ATOM     18  C   UNL     1      -0.511   1.452   0.082  0.00  0.00    +0.044 C 
ATOM     19  C   UNL     1      -0.235  -0.028   0.036  0.00  0.00    -0.038 A 
ATOM     20  C   UNL     1      -0.334  -0.714  -1.157  0.00  0.00    +0.004 A 
ATOM     21  C   UNL     1      -0.079  -2.073  -1.200  0.00  0.00    +0.000 A 
ATOM     22  C   UNL     1       0.275  -2.754  -0.049  0.00  0.00    +0.001 A 
ATOM     23  C   UNL     1       0.378  -2.080   1.150  0.00  0.00    +0.013 A 
ATOM     24  C   UNL     1       0.128  -0.708   1.200  0.00  0.00    +0.041 A 
ENDBRANCH  14  24
ENDBRANCH   1  16
TORSDOF 3
