REMARK  Name = ZINC09177940
REMARK  10 active torsions:
REMARK  status: ('A' for Active; 'I' for Inactive)
REMARK    1  A    between atoms: C_1  and  C_2
REMARK    2  A    between atoms: C_2  and  O_3
REMARK    3  A    between atoms: O_3  and  C_4
REMARK    4  A    between atoms: C_4  and  C_6
REMARK    5  A    between atoms: C_7  and  C_36
REMARK    6  A    between atoms: C_12  and  C_27
REMARK    7  A    between atoms: C_14  and  C_19
REMARK    8  A    between atoms: C_19  and  C_21
REMARK    9  A    between atoms: C_24  and  C_26
REMARK   10  A    between atoms: C_30  and  N_33
REMARK                            x       y       z     vdW  Elec       q    Type
REMARK                         _______ _______ _______ _____ _____    ______ ____
ROOT
ATOM      1  C   UNL     1      -0.035   1.346   0.101  0.00  0.00    +0.120 A 
ATOM      2  C   UNL     1      -0.003  -0.042   0.131  0.00  0.00    +0.062 A 
ATOM      3  N   UNL     1       1.167  -0.625   0.100  0.00  0.00    -0.229 NA
ATOM      4  C   UNL     1       2.289   0.075   0.041  0.00  0.00    +0.169 A 
ATOM      5  S   UNL     1       1.713   1.713   0.026  0.00  0.00    -0.045 S 
ATOM      6  N   UNL     1       3.593  -0.383   0.003  0.00  0.00    -0.232 N 
ATOM      7  C   UNL     1       4.799   0.450  -0.062  0.00  0.00    +0.152 C 
ATOM      8  C   UNL     1       5.969  -0.506  -0.084  0.00  0.00    +0.080 C 
ATOM      9  C   UNL     1       5.452  -1.756  -0.035  0.00  0.00    +0.250 C 
ATOM     10  C   UNL     1       3.980  -1.671   0.023  0.00  0.00    +0.293 C 
ATOM     11  O   UNL     1       3.228  -2.624   0.080  0.00  0.00    -0.266 OA
ATOM     12  O   UNL     1       6.172  -2.903  -0.036  0.00  0.00    -0.282 OA
ATOM     13  C   UNL     1      -1.274  -0.849   0.197  0.00  0.00    +0.067 C 
ENDROOT
BRANCH   7  14
ATOM     14  C   UNL     1       4.787   1.283  -1.318  0.00  0.00    -0.022 A 
ATOM     15  C   UNL     1       4.459   0.703  -2.529  0.00  0.00    +0.008 A 
ATOM     16  C   UNL     1       4.443   1.468  -3.680  0.00  0.00    +0.033 A 
ATOM     17  C   UNL     1       4.766   2.811  -3.622  0.00  0.00    +0.126 A 
ATOM     18  C   UNL     1       5.100   3.390  -2.412  0.00  0.00    +0.033 A 
ATOM     19  C   UNL     1       5.111   2.626  -1.260  0.00  0.00    +0.008 A 
BRANCH  17  20
ATOM     20  N   UNL     1       4.754   3.630  -4.855  0.00  0.00    +0.056 N 
ATOM     21  O   UNL     1       5.038   4.813  -4.804  0.00  0.00    -0.126 OA
ATOM     22  O   UNL     1       4.460   3.120  -5.922  0.00  0.00    -0.126 OA
ENDBRANCH  17  20
ENDBRANCH   7  14
BRANCH   1  23
ATOM     23  C   UNL     1      -1.180   2.255   0.119  0.00  0.00    +0.348 C 
ATOM     24  O   UNL     1      -2.310   1.807   0.167  0.00  0.00    -0.244 OA
BRANCH  23  25
ATOM     25  O   UNL     1      -0.983   3.589   0.082  0.00  0.00    -0.461 OA
BRANCH  25  27
ATOM     26  C   UNL     1      -1.728   5.888   0.055  0.00  0.00    +0.048 C 
ATOM     27  C   UNL     1      -2.147   4.417   0.102  0.00  0.00    +0.229 C 
ENDBRANCH  25  27
ENDBRANCH  23  25
ENDBRANCH   1  23
BRANCH   8  28
ATOM     28  C   UNL     1       7.391  -0.149  -0.146  0.00  0.00    +0.230 C 
ATOM     29  O   UNL     1       8.052  -0.445  -1.126  0.00  0.00    -0.283 OA
BRANCH  28  30
ATOM     30  C   UNL     1       8.017   0.565   0.971  0.00  0.00    +0.175 A 
ATOM     31  C   UNL     1       9.308   1.044   1.007  0.00  0.00    +0.053 A 
ATOM     32  C   UNL     1       9.473   1.655   2.259  0.00  0.00    +0.045 A 
ATOM     33  C   UNL     1       8.305   1.520   2.926  0.00  0.00    +0.103 A 
ATOM     34  O   UNL     1       7.432   0.864   2.150  0.00  0.00    -0.457 OA
ATOM     35  C   UNL     1       8.029   2.025   4.319  0.00  0.00    +0.086 C 
ENDBRANCH  28  30
ENDBRANCH   8  28
TORSDOF 7
