REMARK  Name = ZINC36154899
REMARK  15 active torsions:
REMARK  status: ('A' for Active; 'I' for Inactive)
REMARK    1  A    between atoms: C_1  and  C_2
REMARK    2  A    between atoms: C_2  and  C_3
REMARK    3  A    between atoms: C_2  and  C_4
REMARK    4  A    between atoms: C_2  and  O_5
REMARK    5  A    between atoms: O_5  and  C_6
REMARK    6  A    between atoms: C_6  and  C_7
REMARK    7  A    between atoms: C_7  and  C_9
REMARK    8  A    between atoms: C_7  and  O_34
REMARK    9  A    between atoms: C_9  and  N_10
REMARK   10  A    between atoms: N_10  and  C_11
REMARK   11  A    between atoms: C_11  and  C_13
REMARK   12  A    between atoms: C_11  and  C_20
REMARK   13  A    between atoms: C_13  and  C_14
REMARK   14  A    between atoms: C_22  and  C_25
REMARK   15  A    between atoms: C_28  and  N_31
REMARK                            x       y       z     vdW  Elec       q    Type
REMARK                         _______ _______ _______ _____ _____    ______ ____
ROOT
ATOM      1  C   UNL     1       5.923   0.237  -4.009  0.00  0.00    +0.023 C 
ENDROOT
BRANCH   1   2
ATOM      2  C   UNL     1       6.491  -0.416  -5.242  0.00  0.00    +0.214 A 
ATOM      3  N   UNL     1       7.726  -0.800  -5.399  0.00  0.00    -0.193 NA
ATOM      4  C   UNL     1       7.887  -1.344  -6.619  0.00  0.00    +0.202 A 
ATOM      5  N   UNL     1       6.739  -1.306  -7.249  0.00  0.00    -0.056 NA
ATOM      6  O   UNL     1       5.811  -0.706  -6.358  0.00  0.00    -0.339 OA
BRANCH   4   7
ATOM      7  C   UNL     1       9.155  -1.894  -7.161  0.00  0.00    +0.023 A 
ATOM      8  C   UNL     1      10.312  -1.880  -6.384  0.00  0.00    +0.014 A 
ATOM      9  C   UNL     1      11.488  -2.393  -6.893  0.00  0.00    +0.033 A 
ATOM     10  C   UNL     1      11.519  -2.921  -8.171  0.00  0.00    +0.126 A 
ATOM     11  C   UNL     1      10.373  -2.938  -8.946  0.00  0.00    +0.033 A 
ATOM     12  C   UNL     1       9.191  -2.432  -8.445  0.00  0.00    +0.014 A 
BRANCH  10  13
ATOM     13  N   UNL     1      12.783  -3.470  -8.711  0.00  0.00    +0.056 N 
ATOM     14  O   UNL     1      13.785  -3.457  -8.035  0.00  0.00    -0.126 OA
ATOM     15  O   UNL     1      12.813  -3.933  -9.828  0.00  0.00    -0.126 OA
ENDBRANCH  10  13
ENDBRANCH   4   7
ENDBRANCH   1   2
BRANCH   1  16
ATOM     16  N   UNL     1       4.636  -0.386  -3.673  0.00  0.00    +0.389 N 
ATOM     17  H   UNL     1       4.757  -1.384  -3.589  0.00  0.00    -0.085 HD
ATOM     18  H   UNL     1       3.966  -0.189  -4.402  0.00  0.00    -0.085 HD
BRANCH  16  19
ATOM     19  C   UNL     1       4.146   0.157  -2.399  0.00  0.00    -0.048 C 
BRANCH  19  20
ATOM     20  C   UNL     1       2.873  -0.584  -1.984  0.00  0.00    +0.123 C 
BRANCH  20  21
ATOM     21  O   UNL     1       3.185  -1.953  -1.718  0.00  0.00    -0.391 OA
ATOM     22  H   UNL     1       3.832  -2.079  -1.010  0.00  0.00    +0.210 HD
ENDBRANCH  20  21
BRANCH  20  23
ATOM     23  C   UNL     1       2.294   0.062  -0.724  0.00  0.00    +0.189 C 
BRANCH  23  24
ATOM     24  O   UNL     1       1.046  -0.554  -0.404  0.00  0.00    -0.372 OA
BRANCH  24  26
ATOM     25  C   UNL     1       0.145   1.471   0.560  0.00  0.00    +0.041 C 
ATOM     26  C   UNL     1       0.417  -0.021   0.764  0.00  0.00    +0.061 C 
ATOM     27  C   UNL     1       1.338  -0.211   1.971  0.00  0.00    +0.041 C 
ATOM     28  C   UNL     1      -0.905  -0.751   1.010  0.00  0.00    +0.041 C 
ENDBRANCH  24  26
ENDBRANCH  23  24
ENDBRANCH  20  23
ENDBRANCH  19  20
ENDBRANCH  16  19
ENDBRANCH   1  16
BRANCH   1  29
ATOM     29  C   UNL     1       5.713   1.730  -4.273  0.00  0.00    +0.029 C 
BRANCH  29  30
ATOM     30  C   UNL     1       7.048   2.391  -4.504  0.00  0.00    -0.048 A 
ATOM     31  C   UNL     1       7.808   2.808  -3.428  0.00  0.00    +0.003 A 
ATOM     32  C   UNL     1       9.032   3.414  -3.640  0.00  0.00    +0.000 A 
ATOM     33  C   UNL     1       9.496   3.604  -4.928  0.00  0.00    +0.000 A 
ATOM     34  C   UNL     1       8.736   3.186  -6.005  0.00  0.00    +0.000 A 
ATOM     35  C   UNL     1       7.513   2.576  -5.793  0.00  0.00    +0.003 A 
ENDBRANCH  29  30
ENDBRANCH   1  29
TORSDOF 12
