REMARK  Name = ZINC21597646
REMARK  8 active torsions:
REMARK  status: ('A' for Active; 'I' for Inactive)
REMARK    1  A    between atoms: C_1  and  C_2
REMARK    2  A    between atoms: C_2  and  C_3
REMARK    3  A    between atoms: C_3  and  N_4
REMARK    4  A    between atoms: C_14  and  C_16
REMARK    5  A    between atoms: C_16  and  C_18
REMARK    6  A    between atoms: C_16  and  N_29
REMARK    7  A    between atoms: C_18  and  C_19
REMARK    8  A    between atoms: C_30  and  C_32
REMARK                            x       y       z     vdW  Elec       q    Type
REMARK                         _______ _______ _______ _____ _____    ______ ____
ROOT
ATOM      1  C   UNL     1      -2.449   1.117   0.020  0.00  0.00    +0.164 C 
ENDROOT
BRANCH   1  12
ATOM      2  N   UNL     1      -4.930  -1.516  -3.305  0.00  0.00    -0.312 N 
ATOM      3  C   UNL     1      -4.575  -2.241  -4.429  0.00  0.00    +0.070 A 
ATOM      4  C   UNL     1      -5.287  -2.981  -5.361  0.00  0.00    +0.028 A 
ATOM      5  C   UNL     1      -4.621  -3.603  -6.397  0.00  0.00    +0.002 A 
ATOM      6  C   UNL     1      -3.243  -3.494  -6.514  0.00  0.00    +0.002 A 
ATOM      7  C   UNL     1      -2.520  -2.763  -5.598  0.00  0.00    +0.030 A 
ATOM      8  C   UNL     1      -3.179  -2.126  -4.543  0.00  0.00    +0.091 A 
ATOM      9  N   UNL     1      -2.757  -1.350  -3.511  0.00  0.00    -0.214 NA
ATOM     10  C   UNL     1      -3.782  -0.995  -2.780  0.00  0.00    +0.203 A 
ATOM     11  N   UNL     1      -3.715  -0.204  -1.645  0.00  0.00    -0.254 N 
ATOM     12  C   UNL     1      -2.523   0.256  -1.215  0.00  0.00    +0.240 C 
ATOM     13  O   UNL     1      -1.511  -0.022  -1.822  0.00  0.00    -0.273 OA
ATOM     14  H   UNL     1      -4.633   0.048  -1.095  0.00  0.00    +0.158 HD
BRANCH   2  15
ATOM     15  C   UNL     1      -6.285  -1.339  -2.777  0.00  0.00    +0.125 C 
BRANCH  15  17
ATOM     16  C   UNL     1      -8.335   0.086  -2.855  0.00  0.00    +0.005 C 
ATOM     17  C   UNL     1      -6.920  -0.098  -3.407  0.00  0.00    +0.018 C 
ENDBRANCH  15  17
ENDBRANCH   2  15
ENDBRANCH   1  12
BRANCH   1  18
ATOM     18  N   UNL     1      -1.191   1.867   0.018  0.00  0.00    -0.304 N 
ATOM     19  C   UNL     1      -0.014   1.209   0.009  0.00  0.00    +0.211 C 
ATOM     20  O   UNL     1       0.002  -0.004   0.002  0.00  0.00    -0.276 OA
ATOM     21  C   UNL     1       1.280   1.980   0.001  0.00  0.00    +0.109 C 
ATOM     22  H   UNL     1      -1.206   2.966   0.024  0.00  0.00    +0.149 HD
ENDBRANCH   1  18
BRANCH   1  23
ATOM     23  C   UNL     1      -2.512   0.230   1.264  0.00  0.00    +0.069 C 
BRANCH  23  24
ATOM     24  C   UNL     1      -2.562   1.095   2.497  0.00  0.00    -0.020 A 
ATOM     25  C   UNL     1      -1.519   1.465   3.256  0.00  0.00    +0.087 A 
ATOM     26  N   UNL     1      -1.949   2.253   4.289  0.00  0.00    -0.360 N 
ATOM     27  H   UNL     1      -1.224   2.655   5.013  0.00  0.00    +0.165 HD
ATOM     28  C   UNL     1      -3.315   2.407   4.222  0.00  0.00    +0.047 A 
ATOM     29  C   UNL     1      -3.760   1.689   3.097  0.00  0.00    +0.003 A 
ATOM     30  C   UNL     1      -5.118   1.666   2.777  0.00  0.00    +0.010 A 
ATOM     31  C   UNL     1      -6.011   2.342   3.560  0.00  0.00    +0.001 A 
ATOM     32  C   UNL     1      -5.578   3.052   4.671  0.00  0.00    +0.002 A 
ATOM     33  C   UNL     1      -4.241   3.088   5.005  0.00  0.00    +0.026 A 
ENDBRANCH  23  24
ENDBRANCH   1  23
TORSDOF 6
