REMARK  Name = ZINC60021485
REMARK  8 active torsions:
REMARK  status: ('A' for Active; 'I' for Inactive)
REMARK    1  A    between atoms: C_1  and  C_2
REMARK    2  A    between atoms: C_2  and  C_4
REMARK    3  A    between atoms: C_2  and  N_14
REMARK    4  A    between atoms: C_9  and  C_10
REMARK    5  A    between atoms: N_17  and  C_18
REMARK    6  A    between atoms: N_17  and  C_19
REMARK    7  A    between atoms: C_19  and  C_20
REMARK    8  A    between atoms: C_23  and  C_26
REMARK                            x       y       z     vdW  Elec       q    Type
REMARK                         _______ _______ _______ _____ _____    ______ ____
ROOT
ATOM      1  N   UNL     1       0.541  -0.462  -1.402  0.00  0.00    -0.293 N 
ATOM      2  C   UNL     1       1.866  -0.663  -1.546  0.00  0.00    +0.303 C 
ATOM      3  O   UNL     1       2.620  -0.428  -0.622  0.00  0.00    -0.253 OA
ATOM      4  N   UNL     1       2.354  -1.125  -2.714  0.00  0.00    -0.284 N 
ATOM      5  C   UNL     1       1.446  -1.409  -3.827  0.00  0.00    +0.134 C 
ATOM      6  H   UNL     1      -0.061  -0.650  -2.139  0.00  0.00    +0.151 HD
ENDROOT
BRANCH   1   8
ATOM      7  C   UNL     1       0.113   1.566  -0.104  0.00  0.00    +0.033 C 
ATOM      8  C   UNL     1       0.009   0.040  -0.132  0.00  0.00    +0.102 C 
BRANCH   8   9
ATOM      9  C   UNL     1      -1.435  -0.368   0.004  0.00  0.00    -0.016 A 
ATOM     10  C   UNL     1      -2.438   0.554  -0.224  0.00  0.00    +0.006 A 
ATOM     11  C   UNL     1      -3.763   0.180  -0.098  0.00  0.00    +0.000 A 
ATOM     12  C   UNL     1      -4.084  -1.118   0.255  0.00  0.00    +0.001 A 
ATOM     13  C   UNL     1      -3.080  -2.040   0.482  0.00  0.00    +0.013 A 
ATOM     14  C   UNL     1      -1.756  -1.667   0.353  0.00  0.00    +0.060 A 
BRANCH  14  15
ATOM     15  C   UNL     1      -0.661  -2.674   0.596  0.00  0.00    +0.418 C 
ATOM     16  F   UNL     1      -1.228  -3.893   0.984  0.00  0.00    -0.166 F 
ATOM     17  F   UNL     1       0.075  -2.856  -0.580  0.00  0.00    -0.166 F 
ATOM     18  F   UNL     1       0.184  -2.209   1.608  0.00  0.00    -0.166 F 
ENDBRANCH  14  15
ENDBRANCH   8   9
ENDBRANCH   1   8
BRANCH   4  19
ATOM     19  C   UNL     1       3.795  -1.344  -2.870  0.00  0.00    +0.144 C 
BRANCH  19  20
ATOM     20  C   UNL     1       4.136  -2.753  -2.459  0.00  0.00    -0.030 A 
ATOM     21  C   UNL     1       4.465  -3.030  -1.145  0.00  0.00    +0.006 A 
ATOM     22  C   UNL     1       4.779  -4.323  -0.769  0.00  0.00    +0.013 A 
ATOM     23  C   UNL     1       4.762  -5.339  -1.706  0.00  0.00    +0.055 A 
ATOM     24  C   UNL     1       4.432  -5.062  -3.019  0.00  0.00    +0.013 A 
ATOM     25  C   UNL     1       4.114  -3.770  -3.395  0.00  0.00    +0.006 A 
BRANCH  23  26
ATOM     26  C   UNL     1       5.105  -6.748  -1.296  0.00  0.00    +0.417 C 
ATOM     27  F   UNL     1       3.940  -7.413  -0.897  0.00  0.00    -0.166 F 
ATOM     28  F   UNL     1       5.680  -7.422  -2.378  0.00  0.00    -0.166 F 
ATOM     29  F   UNL     1       6.011  -6.716  -0.231  0.00  0.00    -0.166 F 
ENDBRANCH  23  26
ENDBRANCH  19  20
ENDBRANCH   4  19
TORSDOF 6
