REMARK  Name = ZINC12745286
REMARK  10 active torsions:
REMARK  status: ('A' for Active; 'I' for Inactive)
REMARK    1  A    between atoms: C_1  and  C_2
REMARK    2  A    between atoms: C_3  and  C_7
REMARK    3  A    between atoms: C_7  and  C_8
REMARK    4  A    between atoms: C_8  and  C_9
REMARK    5  A    between atoms: N_11  and  C_12
REMARK    6  A    between atoms: N_11  and  C_13
REMARK    7  A    between atoms: C_13  and  C_14
REMARK    8  A    between atoms: C_19  and  C_20
REMARK    9  A    between atoms: C_19  and  N_58
REMARK   10  A    between atoms: C_20  and  C_21
REMARK                            x       y       z     vdW  Elec       q    Type
REMARK                         _______ _______ _______ _____ _____    ______ ____
ROOT
ATOM      1  C   UNL     1       7.620  -3.369  -2.699  0.00  0.00    +0.003 C 
ATOM      2  C   UNL     1       7.031  -3.889  -1.384  0.00  0.00    -0.014 C 
ATOM      3  C   UNL     1       7.093  -5.418  -1.373  0.00  0.00    -0.078 C 
ATOM      4  C   UNL     1       9.061  -5.406  -2.787  0.00  0.00    -0.078 C 
ATOM      5  C   UNL     1       9.058  -3.876  -2.841  0.00  0.00    -0.014 C 
ATOM      6  N   UNL     1       8.505  -5.841  -1.489  0.00  0.00    +0.380 N 
ATOM      7  H   UNL     1       9.046  -5.407  -0.732  0.00  0.00    -0.082 HD
ENDROOT
BRANCH   1   8
ATOM      8  C   UNL     1       7.617  -1.839  -2.690  0.00  0.00    +0.110 C 
BRANCH   8  11
ATOM      9  C   UNL     1       5.610  -1.137  -1.500  0.00  0.00    +0.216 C 
ATOM     10  O   UNL     1       6.192  -1.343  -0.457  0.00  0.00    -0.276 OA
ATOM     11  N   UNL     1       6.234  -1.353  -2.675  0.00  0.00    -0.304 N 
ATOM     12  C   UNL     1       5.531  -1.104  -3.935  0.00  0.00    +0.132 C 
BRANCH   9  13
ATOM     13  C   UNL     1       4.188  -0.638  -1.484  0.00  0.00    +0.101 C 
BRANCH  13  14
ATOM     14  C   UNL     1       3.720  -0.476  -0.036  0.00  0.00    +0.053 C 
BRANCH  14  17
ATOM     15  C   UNL     1       1.138  -2.183  -0.020  0.00  0.00    +0.066 C 
ATOM     16  C   UNL     1       1.135  -0.676  -0.012  0.00  0.00    +0.049 A 
ATOM     17  C   UNL     1       2.299   0.023  -0.020  0.00  0.00    +0.013 A 
ATOM     18  S   UNL     1       1.677   1.698  -0.005  0.00  0.00    -0.080 S 
ATOM     19  C   UNL     1      -0.016   1.309   0.009  0.00  0.00    +0.156 A 
ATOM     20  N   UNL     1       0.002  -0.004   0.002  0.00  0.00    -0.252 NA
ENDBRANCH  14  17
ENDBRANCH  13  14
ENDBRANCH   9  13
ENDBRANCH   8  11
ENDBRANCH   1   8
BRANCH   6  21
ATOM     21  C   UNL     1       8.602  -7.311  -1.366  0.00  0.00    -0.074 C 
BRANCH  21  22
ATOM     22  C   UNL     1       8.230  -7.711   0.063  0.00  0.00    +0.016 C 
BRANCH  22  23
ATOM     23  C   UNL     1       8.346  -9.206   0.213  0.00  0.00    -0.049 A 
ATOM     24  C   UNL     1       7.254 -10.013  -0.046  0.00  0.00    +0.006 A 
ATOM     25  C   UNL     1       7.361 -11.385   0.086  0.00  0.00    +0.038 A 
ATOM     26  C   UNL     1       8.560 -11.950   0.487  0.00  0.00    +0.123 A 
ATOM     27  C   UNL     1       9.652 -11.140   0.751  0.00  0.00    +0.038 A 
ATOM     28  C   UNL     1       9.544  -9.769   0.613  0.00  0.00    +0.006 A 
ATOM     29  F   UNL     1       8.664 -13.290   0.621  0.00  0.00    -0.205 F 
ENDBRANCH  22  23
ENDBRANCH  21  22
ENDBRANCH   6  21
TORSDOF 8
