REMARK  Name = ZINC32529649
REMARK  14 active torsions:
REMARK  status: ('A' for Active; 'I' for Inactive)
REMARK    1  A    between atoms: C_1  and  C_2
REMARK    2  A    between atoms: C_2  and  O_3
REMARK    3  A    between atoms: O_3  and  C_4
REMARK    4  A    between atoms: C_4  and  C_6
REMARK    5  A    between atoms: C_7  and  C_34
REMARK    6  A    between atoms: C_9  and  N_14
REMARK    7  A    between atoms: C_10  and  C_11
REMARK    8  A    between atoms: C_15  and  C_17
REMARK    9  A    between atoms: C_17  and  C_19
REMARK   10  A    between atoms: C_17  and  S_20
REMARK   11  A    between atoms: S_20  and  C_21
REMARK   12  A    between atoms: C_23  and  C_33
REMARK   13  A    between atoms: C_26  and  C_32
REMARK   14  A    between atoms: C_28  and  C_31
REMARK                            x       y       z     vdW  Elec       q    Type
REMARK                         _______ _______ _______ _____ _____    ______ ____
ROOT
ATOM      1  N   UNL     1       7.369   4.340   0.501  0.00  0.00    -0.255 N 
ATOM      2  C   UNL     1       6.384   5.165   0.094  0.00  0.00    +0.232 C 
ATOM      3  O   UNL     1       6.635   6.320  -0.181  0.00  0.00    -0.274 OA
ATOM      4  H   UNL     1       7.141   3.293   0.751  0.00  0.00    +0.158 HD
ENDROOT
BRANCH   1   8
ATOM      5  C   UNL     1      10.905   5.012   0.954  0.00  0.00    +0.114 A 
ATOM      6  C   UNL     1      10.387   6.196   0.532  0.00  0.00    +0.119 A 
ATOM      7  O   UNL     1       9.072   6.055   0.327  0.00  0.00    -0.445 OA
ATOM      8  C   UNL     1       8.665   4.809   0.605  0.00  0.00    +0.206 A 
ATOM      9  C   UNL     1       9.762   4.072   1.009  0.00  0.00    +0.111 A 
ATOM     10  C   UNL     1      11.172   7.465   0.321  0.00  0.00    +0.087 C 
BRANCH   9  11
ATOM     11  C   UNL     1       9.788   2.660   1.405  0.00  0.00    +0.247 C 
ATOM     12  O   UNL     1       9.980   1.797   0.569  0.00  0.00    -0.270 OA
ATOM     13  N   UNL     1       9.600   2.319   2.695  0.00  0.00    -0.325 N 
ATOM     14  H   UNL     1       9.620   1.260   2.992  0.00  0.00    +0.145 HD
ATOM     15  H   UNL     1       9.427   3.099   3.451  0.00  0.00    +0.145 HD
ENDBRANCH   9  11
BRANCH   5  16
ATOM     16  C   UNL     1      12.309   4.724   1.288  0.00  0.00    +0.343 C 
ATOM     17  O   UNL     1      13.069   4.328   0.426  0.00  0.00    -0.245 OA
BRANCH  16  18
ATOM     18  O   UNL     1      12.752   4.900   2.549  0.00  0.00    -0.461 OA
BRANCH  18  20
ATOM     19  C   UNL     1      14.464   4.854   4.280  0.00  0.00    +0.048 C 
ATOM     20  C   UNL     1      14.148   4.596   2.805  0.00  0.00    +0.229 C 
ENDBRANCH  18  20
ENDBRANCH  16  18
ENDBRANCH   5  16
ENDBRANCH   1   8
BRANCH   2  21
ATOM     21  C   UNL     1       4.971   4.654  -0.019  0.00  0.00    +0.136 C 
ATOM     22  C   UNL     1       4.812   3.880  -1.330  0.00  0.00    +0.029 C 
BRANCH  21  23
ATOM     23  S   UNL     1       3.820   6.051  -0.001  0.00  0.00    -0.093 S 
BRANCH  23  24
ATOM     24  C   UNL     1       2.287   5.184   0.009  0.00  0.00    +0.099 A 
ATOM     25  C   UNL     1       1.087   5.912   0.025  0.00  0.00    +0.038 A 
ATOM     26  C   UNL     1      -0.105   5.256   0.032  0.00  0.00    -0.039 A 
ATOM     27  C   UNL     1      -0.092   3.845   0.024  0.00  0.00    +0.004 A 
ATOM     28  C   UNL     1      -1.285   3.106   0.031  0.00  0.00    +0.013 A 
ATOM     29  C   UNL     1      -1.234   1.745   0.017  0.00  0.00    -0.050 A 
ATOM     30  C   UNL     1      -0.013   1.076   0.008  0.00  0.00    +0.008 A 
ATOM     31  C   UNL     1       1.163   1.762   0.000  0.00  0.00    -0.024 A 
ATOM     32  C   UNL     1       1.151   3.167   0.008  0.00  0.00    +0.075 A 
ATOM     33  N   UNL     1       2.292   3.866   0.001  0.00  0.00    -0.240 NA
ATOM     34  C   UNL     1       2.473   1.017  -0.016  0.00  0.00    +0.046 C 
ATOM     35  C   UNL     1      -2.516   0.953   0.019  0.00  0.00    +0.044 C 
ATOM     36  C   UNL     1      -1.406   6.016   0.050  0.00  0.00    +0.044 C 
ENDBRANCH  23  24
ENDBRANCH  21  23
ENDBRANCH   2  21
TORSDOF 8
