REMARK  Name = ZINC00631010
REMARK  8 active torsions:
REMARK  status: ('A' for Active; 'I' for Inactive)
REMARK    1  A    between atoms: C_1  and  C_2
REMARK    2  A    between atoms: C_7  and  C_8
REMARK    3  A    between atoms: C_12  and  C_15
REMARK    4  A    between atoms: C_18  and  C_21
REMARK    5  A    between atoms: C_21  and  O_23
REMARK    6  A    between atoms: O_23  and  C_24
REMARK    7  A    between atoms: C_28  and  C_30
REMARK    8  A    between atoms: C_28  and  C_31
REMARK                            x       y       z     vdW  Elec       q    Type
REMARK                         _______ _______ _______ _____ _____    ______ ____
ROOT
ATOM      1  C   UNL     1      -3.266   6.129   2.835  0.00  0.00    +0.044 C 
ATOM      2  C   UNL     1      -3.691   5.146   1.775  0.00  0.00    -0.046 A 
ATOM      3  C   UNL     1      -3.358   3.808   1.906  0.00  0.00    +0.028 A 
ATOM      4  C   UNL     1      -3.755   2.908   0.929  0.00  0.00    +0.050 A 
ATOM      5  C   UNL     1      -4.511   3.346  -0.148  0.00  0.00    +0.053 A 
ATOM      6  C   UNL     1      -4.824   4.686  -0.290  0.00  0.00    +0.028 A 
ATOM      7  C   UNL     1      -4.410   5.585   0.679  0.00  0.00    -0.046 A 
ATOM      8  C   UNL     1      -4.745   7.048   0.538  0.00  0.00    +0.044 C 
ATOM      9  N   UNL     1      -4.960   2.379  -1.042  0.00  0.00    -0.316 N 
ATOM     10  C   UNL     1      -4.153   1.608  -1.817  0.00  0.00    +0.017 C 
ATOM     11  C   UNL     1      -3.063   0.953  -1.387  0.00  0.00    +0.036 C 
ATOM     12  C   UNL     1      -2.513   0.973   0.020  0.00  0.00    +0.136 C 
ATOM     13  N   UNL     1      -3.402   1.563   0.998  0.00  0.00    -0.331 N 
ATOM     14  C   UNL     1      -2.316   0.148  -2.280  0.00  0.00    +0.163 C 
ATOM     15  O   UNL     1      -1.328  -0.424  -1.864  0.00  0.00    -0.292 OA
ATOM     16  C   UNL     1      -2.699  -0.025  -3.719  0.00  0.00    +0.086 C 
ATOM     17  C   UNL     1      -4.215   0.162  -3.848  0.00  0.00    -0.023 C 
ATOM     18  C   UNL     1      -4.565   1.536  -3.279  0.00  0.00    +0.058 C 
ATOM     19  C   UNL     1      -4.942  -0.927  -3.057  0.00  0.00    +0.011 C 
ATOM     20  C   UNL     1      -4.622   0.093  -5.322  0.00  0.00    +0.011 C 
ATOM     21  H   UNL     1      -5.918   2.245  -1.118  0.00  0.00    +0.152 HD
ATOM     22  H   UNL     1      -3.758   1.013   1.712  0.00  0.00    +0.147 HD
ENDROOT
BRANCH  12  23
ATOM     23  C   UNL     1      -1.221   1.750   0.017  0.00  0.00    -0.023 A 
ATOM     24  C   UNL     1      -1.231   3.103  -0.272  0.00  0.00    +0.006 A 
ATOM     25  C   UNL     1      -0.053   3.820  -0.271  0.00  0.00    +0.015 A 
ATOM     26  C   UNL     1       1.152   3.177   0.018  0.00  0.00    +0.059 A 
ATOM     27  C   UNL     1       1.156   1.811   0.304  0.00  0.00    +0.015 A 
ATOM     28  C   UNL     1      -0.030   1.105   0.300  0.00  0.00    +0.006 A 
BRANCH  26  29
ATOM     29  C   UNL     1       2.417   3.940   0.022  0.00  0.00    +0.339 C 
ATOM     30  O   UNL     1       2.411   5.128  -0.227  0.00  0.00    -0.245 OA
BRANCH  29  31
ATOM     31  O   UNL     1       3.579   3.316   0.301  0.00  0.00    -0.464 OA
ATOM     32  C   UNL     1       4.782   4.128   0.287  0.00  0.00    +0.280 C 
ENDBRANCH  29  31
ENDBRANCH  26  29
ENDBRANCH  12  23
TORSDOF 3
