REMARK  Name = ZINC28464950
REMARK  6 active torsions:
REMARK  status: ('A' for Active; 'I' for Inactive)
REMARK    1  A    between atoms: C_1  and  C_2
REMARK    2  A    between atoms: C_7  and  C_8
REMARK    3  A    between atoms: C_10  and  C_17
REMARK    4  A    between atoms: C_11  and  C_16
REMARK    5  A    between atoms: N_19  and  C_20
REMARK    6  A    between atoms: C_25  and  C_26
REMARK                            x       y       z     vdW  Elec       q    Type
REMARK                         _______ _______ _______ _____ _____    ______ ____
ROOT
ATOM      1  C   UNL     1       1.524   2.416   0.487  0.00  0.00    +0.142 C 
ATOM      2  C   UNL     1       0.214   1.804   0.034  0.00  0.00    +0.056 C 
ATOM      3  C   UNL     1       0.241   0.542  -0.442  0.00  0.00    +0.019 C 
ATOM      4  N   UNL     1       1.411  -0.160  -0.513  0.00  0.00    -0.273 N 
ATOM      5  C   UNL     1       2.596   0.331  -0.128  0.00  0.00    +0.304 C 
ATOM      6  O   UNL     1       3.584  -0.370  -0.229  0.00  0.00    -0.252 OA
ATOM      7  N   UNL     1       2.728   1.576   0.370  0.00  0.00    -0.288 N 
ATOM      8  C   UNL     1      -1.040  -0.103  -0.904  0.00  0.00    +0.061 C 
ATOM      9  H   UNL     1       1.413  -1.188  -0.904  0.00  0.00    +0.156 HD
ATOM     10  H   UNL     1       3.706   1.970   0.685  0.00  0.00    +0.151 HD
ENDROOT
BRANCH   1  17
ATOM     11  C   UNL     1       0.495   4.944   1.434  0.00  0.00    +0.044 C 
ATOM     12  C   UNL     1       1.261   4.880   0.138  0.00  0.00    -0.045 A 
ATOM     13  C   UNL     1       1.474   6.032  -0.596  0.00  0.00    +0.004 A 
ATOM     14  C   UNL     1       2.173   5.973  -1.787  0.00  0.00    +0.000 A 
ATOM     15  C   UNL     1       2.662   4.763  -2.243  0.00  0.00    +0.000 A 
ATOM     16  C   UNL     1       2.451   3.612  -1.507  0.00  0.00    +0.006 A 
ATOM     17  C   UNL     1       1.754   3.671  -0.315  0.00  0.00    -0.020 A 
ENDBRANCH   1  17
BRANCH   2  18
ATOM     18  C   UNL     1      -0.997   2.536   0.102  0.00  0.00    +0.248 C 
ATOM     19  O   UNL     1      -1.271   3.342  -0.768  0.00  0.00    -0.270 OA
ATOM     20  N   UNL     1      -1.847   2.338   1.130  0.00  0.00    -0.281 N 
ATOM     21  H   UNL     1      -1.559   1.680   1.963  0.00  0.00    +0.155 HD
BRANCH  20  22
ATOM     22  C   UNL     1      -3.094   2.970   1.137  0.00  0.00    +0.038 A 
ATOM     23  C   UNL     1      -3.643   3.439  -0.049  0.00  0.00    +0.023 A 
ATOM     24  C   UNL     1      -4.878   4.059  -0.040  0.00  0.00    +0.003 A 
ATOM     25  C   UNL     1      -5.563   4.221   1.150  0.00  0.00    +0.020 A 
ATOM     26  C   UNL     1      -5.017   3.759   2.335  0.00  0.00    +0.046 A 
ATOM     27  C   UNL     1      -3.784   3.133   2.331  0.00  0.00    -0.011 A 
ATOM     28  C   UNL     1      -3.189   2.631   3.621  0.00  0.00    +0.047 C 
ATOM     29 CL   UNL     1      -5.881   3.964   3.826  0.00  0.00    -0.083 Cl
ENDBRANCH  20  22
ENDBRANCH   2  18
TORSDOF 3
