REMARK  Name = ZINC39142631
REMARK  7 active torsions:
REMARK  status: ('A' for Active; 'I' for Inactive)
REMARK    1  A    between atoms: C_4  and  N_7
REMARK    2  A    between atoms: C_8  and  C_10
REMARK    3  A    between atoms: C_10  and  S_11
REMARK    4  A    between atoms: S_11  and  C_12
REMARK    5  A    between atoms: C_16  and  C_25
REMARK    6  A    between atoms: N_17  and  C_18
REMARK    7  A    between atoms: C_18  and  C_19
REMARK                            x       y       z     vdW  Elec       q    Type
REMARK                         _______ _______ _______ _____ _____    ______ ____
ROOT
ATOM      1  C   UNL     1       6.323  -5.225   0.374  0.00  0.00    +0.237 C 
ATOM      2  N   UNL     1       7.057  -4.658   1.517  0.00  0.00    -0.237 N 
ATOM      3  N   UNL     1       8.181  -4.013   0.988  0.00  0.00    -0.169 NA
ATOM      4  C   UNL     1       8.219  -4.117  -0.314  0.00  0.00    +0.147 C 
ATOM      5  N   UNL     1       7.126  -4.845  -0.800  0.00  0.00    -0.283 N 
ATOM      6  H   UNL     1       6.810  -4.718   2.453  0.00  0.00    +0.171 HD
ENDROOT
BRANCH   4   7
ATOM      7  C   UNL     1       9.227  -3.571  -1.123  0.00  0.00    +0.022 C 
ATOM      8  C   UNL     1      10.342  -2.844  -0.704  0.00  0.00    +0.006 A 
ATOM      9  C   UNL     1      10.797  -2.446   0.571  0.00  0.00    +0.010 A 
ATOM     10  C   UNL     1      11.945  -1.728   0.682  0.00  0.00    +0.001 A 
ATOM     11  C   UNL     1      12.695  -1.370  -0.439  0.00  0.00    +0.002 A 
ATOM     12  C   UNL     1      12.318  -1.718  -1.694  0.00  0.00    +0.026 A 
ATOM     13  C   UNL     1      11.130  -2.469  -1.890  0.00  0.00    +0.043 A 
ATOM     14  N   UNL     1      10.557  -2.924  -2.987  0.00  0.00    -0.380 N 
ATOM     15  C   UNL     1       9.335  -3.651  -2.629  0.00  0.00    +0.152 C 
ATOM     16  H   UNL     1      10.893  -2.800  -3.889  0.00  0.00    +0.160 HD
ENDBRANCH   4   7
BRANCH   1  17
ATOM     17  S   UNL     1       4.661  -4.506   0.267  0.00  0.00    -0.109 S 
BRANCH  17  18
ATOM     18  C   UNL     1       4.962  -2.721   0.153  0.00  0.00    +0.168 C 
BRANCH  18  20
ATOM     19  N   UNL     1       3.622  -0.651  -0.037  0.00  0.00    -0.285 N 
ATOM     20  C   UNL     1       3.645  -1.995   0.057  0.00  0.00    +0.227 C 
ATOM     21  O   UNL     1       2.606  -2.620   0.064  0.00  0.00    -0.275 OA
ATOM     22  H   UNL     1       4.452  -0.156  -0.121  0.00  0.00    +0.155 HD
BRANCH  19  26
ATOM     23  C   UNL     1      -0.015   1.381   0.029  0.00  0.00    +0.000 A 
ATOM     24  C   UNL     1       0.140   0.219   0.763  0.00  0.00    +0.002 A 
ATOM     25  C   UNL     1       1.344  -0.457   0.743  0.00  0.00    +0.023 A 
ATOM     26  C   UNL     1       2.400   0.031  -0.015  0.00  0.00    +0.033 A 
ATOM     27  C   UNL     1       2.241   1.198  -0.751  0.00  0.00    +0.023 A 
ATOM     28  C   UNL     1       1.034   1.870  -0.727  0.00  0.00    +0.002 A 
ENDBRANCH  19  26
ENDBRANCH  18  20
ENDBRANCH  17  18
ENDBRANCH   1  17
BRANCH   5  29
ATOM     29  C   UNL     1       6.835  -5.165  -2.200  0.00  0.00    +0.140 C 
BRANCH  29  30
ATOM     30  C   UNL     1       5.977  -4.055  -2.810  0.00  0.00    +0.136 C 
ATOM     31  C   UNL     1       5.629  -4.391  -4.282  0.00  0.00    +0.035 C 
ATOM     32  C   UNL     1       4.323  -3.573  -4.470  0.00  0.00    +0.031 C 
ATOM     33  C   UNL     1       3.675  -3.662  -3.072  0.00  0.00    +0.160 C 
ATOM     34  O   UNL     1       4.713  -3.974  -2.132  0.00  0.00    -0.375 OA
ENDBRANCH  29  30
ENDBRANCH   5  29
TORSDOF 7
