REMARK  Name = ZINC40196916
REMARK  9 active torsions:
REMARK  status: ('A' for Active; 'I' for Inactive)
REMARK    1  A    between atoms: C_1  and  C_2
REMARK    2  A    between atoms: C_2  and  C_4
REMARK    3  A    between atoms: C_2  and  N_30
REMARK    4  A    between atoms: N_12  and  C_13
REMARK    5  A    between atoms: C_13  and  C_14
REMARK    6  A    between atoms: N_16  and  C_17
REMARK    7  A    between atoms: N_16  and  C_24
REMARK    8  A    between atoms: C_17  and  C_18
REMARK    9  A    between atoms: C_31  and  C_33
REMARK                            x       y       z     vdW  Elec       q    Type
REMARK                         _______ _______ _______ _____ _____    ______ ____
ROOT
ATOM      1  C   UNL     1       0.605  -1.003   0.705  0.00  0.00    +0.131 A 
ATOM      2  N   UNL     1      -0.005  -1.201   1.838  0.00  0.00    -0.230 NA
ATOM      3  C   UNL     1       0.843  -1.801   2.713  0.00  0.00    +0.089 A 
ATOM      4  C   UNL     1       0.716  -2.230   4.037  0.00  0.00    +0.030 A 
ATOM      5  C   UNL     1       1.777  -2.814   4.668  0.00  0.00    +0.002 A 
ATOM      6  C   UNL     1       2.985  -2.987   4.008  0.00  0.00    +0.002 A 
ATOM      7  C   UNL     1       3.134  -2.571   2.702  0.00  0.00    +0.028 A 
ATOM      8  C   UNL     1       2.066  -1.976   2.044  0.00  0.00    +0.069 A 
ATOM      9  N   UNL     1       1.882  -1.467   0.774  0.00  0.00    -0.317 N 
ENDROOT
BRANCH   1  11
ATOM     10  C   UNL     1      -0.117   1.151  -0.289  0.00  0.00    +0.036 C 
ATOM     11  C   UNL     1      -0.016  -0.360  -0.508  0.00  0.00    +0.136 C 
BRANCH  11  12
ATOM     12  N   UNL     1      -1.356  -0.913  -0.722  0.00  0.00    -0.301 N 
ATOM     13  C   UNL     1      -1.901  -0.901  -1.955  0.00  0.00    +0.251 C 
ATOM     14  O   UNL     1      -1.280  -0.431  -2.890  0.00  0.00    -0.270 OA
ATOM     15  H   UNL     1      -1.851  -1.287   0.023  0.00  0.00    +0.150 HD
BRANCH  13  16
ATOM     16  C   UNL     1      -3.241  -1.454  -2.169  0.00  0.00    +0.074 A 
ATOM     17  C   UNL     1      -3.972  -1.543  -3.344  0.00  0.00    +0.021 A 
ATOM     18  C   UNL     1      -5.215  -2.118  -3.231  0.00  0.00    +0.008 A 
ATOM     19  C   UNL     1      -5.635  -2.548  -2.016  0.00  0.00    +0.046 A 
ATOM     20  S   UNL     1      -4.353  -2.194  -0.989  0.00  0.00    -0.092 S 
ENDBRANCH  13  16
ENDBRANCH  11  12
ENDBRANCH   1  11
BRANCH   9  21
ATOM     21  C   UNL     1       2.878  -1.430  -0.299  0.00  0.00    +0.219 C 
BRANCH  21  22
ATOM     22  C   UNL     1       3.658  -0.143  -0.216  0.00  0.00    +0.236 C 
ATOM     23  O   UNL     1       3.344   0.706   0.591  0.00  0.00    -0.274 OA
ATOM     24  N   UNL     1       4.704   0.065  -1.040  0.00  0.00    -0.293 N 
BRANCH  24  25
ATOM     25  C   UNL     1       5.534   1.262  -0.882  0.00  0.00    +0.076 C 
ATOM     26  C   UNL     1       6.069   1.327   0.550  0.00  0.00    +0.022 C 
ATOM     27  C   UNL     1       6.935   2.577   0.715  0.00  0.00    +0.002 C 
ATOM     28  C   UNL     1       6.094   3.822   0.428  0.00  0.00    +0.000 C 
ATOM     29  C   UNL     1       5.559   3.757  -1.004  0.00  0.00    +0.002 C 
ATOM     30  C   UNL     1       4.693   2.507  -1.169  0.00  0.00    +0.022 C 
ENDBRANCH  24  25
BRANCH  24  31
ATOM     31  C   UNL     1       5.012  -0.906  -2.093  0.00  0.00    +0.143 C 
BRANCH  31  32
ATOM     32  C   UNL     1       4.403  -0.447  -3.393  0.00  0.00    -0.030 A 
ATOM     33  C   UNL     1       3.089  -0.759  -3.688  0.00  0.00    +0.005 A 
ATOM     34  C   UNL     1       2.530  -0.339  -4.881  0.00  0.00    +0.000 A 
ATOM     35  C   UNL     1       3.285   0.394  -5.777  0.00  0.00    +0.000 A 
ATOM     36  C   UNL     1       4.599   0.707  -5.481  0.00  0.00    +0.000 A 
ATOM     37  C   UNL     1       5.156   0.290  -4.287  0.00  0.00    +0.005 A 
ENDBRANCH  31  32
ENDBRANCH  24  31
ENDBRANCH  21  22
ENDBRANCH   9  21
TORSDOF 8
