REMARK  Name = ZINC14321012
REMARK  5 active torsions:
REMARK  status: ('A' for Active; 'I' for Inactive)
REMARK    1  A    between atoms: C_1  and  C_2
REMARK    2  A    between atoms: C_3  and  C_23
REMARK    3  A    between atoms: C_7  and  S_11
REMARK    4  A    between atoms: S_11  and  C_12
REMARK    5  A    between atoms: C_16  and  C_18
REMARK                            x       y       z     vdW  Elec       q    Type
REMARK                         _______ _______ _______ _____ _____    ______ ____
ROOT
ATOM      1  S   UNL     1       0.263   1.464   2.910  0.00  0.00    -0.030 S 
ENDROOT
BRANCH   1   8
ATOM      2  C   UNL     1      -0.018   1.503   0.010  0.00  0.00    +0.045 C 
ATOM      3  C   UNL     1       0.002  -0.004   0.002  0.00  0.00    -0.029 A 
ATOM      4  C   UNL     1      -0.095  -0.678  -1.154  0.00  0.00    -0.008 A 
ATOM      5  S   UNL     1      -0.024  -2.386  -0.648  0.00  0.00    -0.074 S 
ATOM      6  C   UNL     1       0.135  -2.149   1.102  0.00  0.00    +0.113 A 
ATOM      7  C   UNL     1       0.133  -0.744   1.245  0.00  0.00    +0.043 A 
ATOM      8  C   UNL     1       0.255  -0.267   2.579  0.00  0.00    +0.116 A 
ATOM      9  N   UNL     1       0.364  -1.139   3.569  0.00  0.00    -0.228 NA
ATOM     10  C   UNL     1       0.362  -2.443   3.360  0.00  0.00    +0.223 A 
ATOM     11  N   UNL     1       0.243  -2.946   2.147  0.00  0.00    -0.228 NA
ATOM     12  C   UNL     1      -0.232  -0.122  -2.548  0.00  0.00    +0.052 C 
ENDBRANCH   1   8
BRANCH   1  13
ATOM     13  C   UNL     1       0.431   1.562   4.661  0.00  0.00    +0.190 A 
ATOM     14  N   UNL     1       0.480   2.696   5.393  0.00  0.00    -0.253 N 
ATOM     15  H   UNL     1       0.430   3.606   5.060  0.00  0.00    +0.191 HD
ATOM     16  N   UNL     1       0.617   2.296   6.732  0.00  0.00    -0.157 NA
ATOM     17  C   UNL     1       0.643   0.990   6.740  0.00  0.00    +0.155 A 
ATOM     18  N   UNL     1       0.525   0.543   5.489  0.00  0.00    -0.205 NA
BRANCH  17  19
ATOM     19  C   UNL     1       0.778   0.125   7.967  0.00  0.00    +0.059 C 
ATOM     20  C   UNL     1      -0.355   0.442   8.964  0.00  0.00    +0.011 C 
ATOM     21  C   UNL     1       0.320   0.332  10.354  0.00  0.00    +0.001 C 
ATOM     22  C   UNL     1       1.723   0.936  10.101  0.00  0.00    +0.001 C 
ATOM     23  C   UNL     1       2.100   0.440   8.690  0.00  0.00    +0.011 C 
ENDBRANCH  17  19
ENDBRANCH   1  13
TORSDOF 3
