REMARK  Name = ZINC35709639
REMARK  4 active torsions:
REMARK  status: ('A' for Active; 'I' for Inactive)
REMARK    1  A    between atoms: C_3  and  N_28
REMARK    2  A    between atoms: C_4  and  C_21
REMARK    3  A    between atoms: C_6  and  N_7
REMARK    4  A    between atoms: N_10  and  C_11
REMARK                            x       y       z     vdW  Elec       q    Type
REMARK                         _______ _______ _______ _____ _____    ______ ____
ROOT
ATOM      1  C   UNL     1      -0.102   1.278   0.026  0.00  0.00    +0.025 A 
ATOM      2  C   UNL     1       1.094   1.962   0.099  0.00  0.00    +0.026 A 
ATOM      3  C   UNL     1       2.293   1.265   0.168  0.00  0.00    +0.042 A 
ATOM      4  C   UNL     1       2.285  -0.139   0.164  0.00  0.00    +0.060 A 
ATOM      5  C   UNL     1       1.069  -0.822   0.090  0.00  0.00    +0.038 A 
ATOM      6  C   UNL     1      -0.117  -0.113   0.022  0.00  0.00    +0.036 A 
ENDROOT
BRANCH   4   7
ATOM      7  C   UNL     1       3.553  -0.887   0.237  0.00  0.00    +0.248 C 
ATOM      8  O   UNL     1       4.346  -0.655   1.129  0.00  0.00    -0.270 OA
ATOM      9  N   UNL     1       3.833  -1.829  -0.685  0.00  0.00    -0.297 N 
ATOM     10  C   UNL     1       2.930  -2.275  -1.757  0.00  0.00    +0.108 C 
ATOM     11  C   UNL     1       3.665  -3.380  -2.545  0.00  0.00    +0.020 C 
ATOM     12  C   UNL     1       4.719  -3.890  -1.528  0.00  0.00    +0.020 C 
ATOM     13  C   UNL     1       5.098  -2.579  -0.791  0.00  0.00    +0.108 C 
ENDBRANCH   4   7
BRANCH   6  14
ATOM     14  N   UNL     1      -1.338  -0.798  -0.052  0.00  0.00    -0.269 N 
ATOM     15  C   UNL     1      -2.356  -0.286  -0.773  0.00  0.00    +0.304 C 
ATOM     16  O   UNL     1      -2.183   0.712  -1.444  0.00  0.00    -0.252 OA
ATOM     17  N   UNL     1      -3.565  -0.882  -0.749  0.00  0.00    -0.294 N 
ATOM     18  H   UNL     1      -1.450  -1.641   0.415  0.00  0.00    +0.156 HD
ATOM     19  H   UNL     1      -3.703  -1.678  -0.213  0.00  0.00    +0.151 HD
BRANCH  17  20
ATOM     20  C   UNL     1      -4.671  -0.325  -1.532  0.00  0.00    +0.037 C 
ATOM     21  C   UNL     1      -4.954   1.106  -1.069  0.00  0.00    +0.029 C 
ATOM     22  C   UNL     1      -6.109   1.687  -1.887  0.00  0.00    -0.008 C 
ATOM     23  C   UNL     1      -7.359   0.829  -1.685  0.00  0.00    +0.007 C 
ATOM     24  C   UNL     1      -7.077  -0.602  -2.147  0.00  0.00    -0.008 C 
ATOM     25  C   UNL     1      -5.921  -1.183  -1.329  0.00  0.00    +0.029 C 
ATOM     26  C   UNL     1      -6.698  -0.593  -3.629  0.00  0.00    +0.007 C 
ATOM     27  C   UNL     1      -5.448   0.265  -3.832  0.00  0.00    -0.008 C 
ATOM     28  C   UNL     1      -5.731   1.695  -3.369  0.00  0.00    +0.007 C 
ATOM     29  C   UNL     1      -4.293  -0.317  -3.014  0.00  0.00    +0.029 C 
ENDBRANCH  17  20
ENDBRANCH   6  14
BRANCH   3  30
ATOM     30  N   UNL     1       3.498   1.955   0.241  0.00  0.00    -0.329 N 
ATOM     31  C   UNL     1       4.308   2.389  -0.907  0.00  0.00    +0.105 C 
ATOM     32  C   UNL     1       5.562   3.089  -0.344  0.00  0.00    +0.020 C 
ATOM     33  C   UNL     1       5.668   2.513   1.092  0.00  0.00    +0.020 C 
ATOM     34  C   UNL     1       4.172   2.379   1.482  0.00  0.00    +0.105 C 
ENDBRANCH   3  30
TORSDOF 4
