REMARK  Name = ZINC28054489
REMARK  9 active torsions:
REMARK  status: ('A' for Active; 'I' for Inactive)
REMARK    1  A    between atoms: C_1  and  C_2
REMARK    2  A    between atoms: C_5  and  C_8
REMARK    3  A    between atoms: C_19  and  C_21
REMARK    4  A    between atoms: C_23  and  O_31
REMARK    5  A    between atoms: C_24  and  O_29
REMARK    6  A    between atoms: C_25  and  O_27
REMARK    7  A    between atoms: O_27  and  C_28
REMARK    8  A    between atoms: O_29  and  C_30
REMARK    9  A    between atoms: O_31  and  C_32
REMARK                            x       y       z     vdW  Elec       q    Type
REMARK                         _______ _______ _______ _____ _____    ______ ____
ROOT
ATOM      1  C   UNL     1       0.355   3.710   3.212  0.00  0.00    +0.174 C 
ATOM      2  C   UNL     1       1.582   3.732   2.334  0.00  0.00    +0.025 C 
ATOM      3  C   UNL     1       2.798   4.001   2.814  0.00  0.00    +0.050 C 
ATOM      4  C   UNL     1       3.941   4.020   1.870  0.00  0.00    +0.039 A 
ATOM      5  C   UNL     1       5.255   3.952   2.317  0.00  0.00    +0.033 A 
ATOM      6  C   UNL     1       6.289   3.976   1.399  0.00  0.00    +0.042 A 
ATOM      7  C   UNL     1       6.018   4.068   0.044  0.00  0.00    +0.023 A 
ATOM      8  C   UNL     1       4.712   4.135  -0.408  0.00  0.00    +0.048 A 
ATOM      9  C   UNL     1       3.669   4.110   0.498  0.00  0.00    +0.131 A 
ATOM     10  O   UNL     1       2.375   4.168   0.094  0.00  0.00    -0.479 OA
ATOM     11  C   UNL     1       1.421   3.434   0.861  0.00  0.00    +0.234 C 
ATOM     12 CL   UNL     1       7.933   3.892   1.948  0.00  0.00    -0.084 Cl
ATOM     13  N   UNL     1       3.024   4.277   4.168  0.00  0.00    -0.282 N 
ATOM     14  C   UNL     1       1.915   4.548   4.953  0.00  0.00    +0.240 A 
ATOM     15  N   UNL     1       0.656   4.293   4.511  0.00  0.00    -0.201 N 
ATOM     16  N   UNL     1      -0.189   4.700   5.543  0.00  0.00    -0.042 NA
ATOM     17  N   UNL     1       0.572   5.143   6.490  0.00  0.00    -0.021 NA
ATOM     18  N   UNL     1       1.812   5.055   6.148  0.00  0.00    -0.092 NA
ATOM     19  H   UNL     1       4.049   4.274   4.567  0.00  0.00    +0.155 HD
ENDROOT
BRANCH   1  24
ATOM     20  C   UNL     1      -1.391  -1.753   3.922  0.00  0.00    +0.044 C 
ATOM     21  C   UNL     1      -0.935  -0.328   3.737  0.00  0.00    -0.050 A 
ATOM     22  C   UNL     1      -1.817   0.622   3.258  0.00  0.00    +0.004 A 
ATOM     23  C   UNL     1      -1.400   1.929   3.088  0.00  0.00    +0.006 A 
ATOM     24  C   UNL     1      -0.101   2.285   3.397  0.00  0.00    -0.019 A 
ATOM     25  C   UNL     1       0.783   1.333   3.871  0.00  0.00    +0.006 A 
ATOM     26  C   UNL     1       0.364   0.028   4.046  0.00  0.00    +0.004 A 
ENDBRANCH   1  24
BRANCH  11  27
ATOM     27  C   UNL     1       1.624   1.959   0.627  0.00  0.00    +0.004 A 
ATOM     28  C   UNL     1       0.542   1.154   0.327  0.00  0.00    +0.057 A 
ATOM     29  C   UNL     1       0.725  -0.204   0.110  0.00  0.00    +0.166 A 
ATOM     30  C   UNL     1       1.998  -0.754   0.196  0.00  0.00    +0.204 A 
ATOM     31  C   UNL     1       3.083   0.060   0.498  0.00  0.00    +0.166 A 
ATOM     32  C   UNL     1       2.892   1.416   0.713  0.00  0.00    +0.057 A 
BRANCH  31  33
ATOM     33  O   UNL     1       4.332  -0.474   0.583  0.00  0.00    -0.491 OA
ATOM     34  C   UNL     1       5.400   0.421   0.898  0.00  0.00    +0.277 C 
ENDBRANCH  31  33
BRANCH  30  35
ATOM     35  O   UNL     1       2.182  -2.086  -0.016  0.00  0.00    -0.488 OA
ATOM     36  C   UNL     1       2.448  -2.498  -1.358  0.00  0.00    +0.277 C 
ENDBRANCH  30  35
BRANCH  29  37
ATOM     37  O   UNL     1      -0.341  -0.996  -0.185  0.00  0.00    -0.491 OA
ATOM     38  C   UNL     1      -1.600  -0.346  -0.372  0.00  0.00    +0.277 C 
ENDBRANCH  29  37
ENDBRANCH  11  27
TORSDOF 5
