REMARK  Name = ZINC19973163
REMARK  13 active torsions:
REMARK  status: ('A' for Active; 'I' for Inactive)
REMARK    1  A    between atoms: C_1  and  C_2
REMARK    2  A    between atoms: C_4  and  C_39
REMARK    3  A    between atoms: C_9  and  C_14
REMARK    4  A    between atoms: C_14  and  C_16
REMARK    5  A    between atoms: C_14  and  N_25
REMARK    6  A    between atoms: N_20  and  C_21
REMARK    7  A    between atoms: C_21  and  C_22
REMARK    8  A    between atoms: C_21  and  C_23
REMARK    9  A    between atoms: C_21  and  C_24
REMARK   10  A    between atoms: N_25  and  C_26
REMARK   11  A    between atoms: N_25  and  C_32
REMARK   12  A    between atoms: C_26  and  C_27
REMARK   13  A    between atoms: C_32  and  C_33
REMARK                            x       y       z     vdW  Elec       q    Type
REMARK                         _______ _______ _______ _____ _____    ______ ____
ROOT
ATOM      1  C   UNL     1       0.202  -4.837   3.229  0.00  0.00    +0.039 C 
ENDROOT
BRANCH   1  10
ATOM      2  C   UNL     1      -2.094   0.345  -1.617  0.00  0.00    +0.044 C 
ATOM      3  C   UNL     1      -1.830  -1.095  -1.260  0.00  0.00    -0.050 A 
ATOM      4  C   UNL     1      -2.092  -2.093  -2.188  0.00  0.00    +0.008 A 
ATOM      5  C   UNL     1      -1.858  -3.417  -1.883  0.00  0.00    -0.026 A 
ATOM      6  C   UNL     1      -1.355  -3.758  -0.632  0.00  0.00    +0.052 A 
ATOM      7  C   UNL     1      -1.090  -2.743   0.307  0.00  0.00    -0.001 A 
ATOM      8  C   UNL     1      -1.331  -1.406  -0.027  0.00  0.00    +0.013 A 
ATOM      9  C   UNL     1      -0.560  -3.112   1.621  0.00  0.00    +0.017 A 
ATOM     10  C   UNL     1      -0.343  -4.423   1.887  0.00  0.00    +0.011 A 
ATOM     11  C   UNL     1      -0.624  -5.403   0.910  0.00  0.00    +0.251 A 
ATOM     12  O   UNL     1      -0.421  -6.576   1.169  0.00  0.00    -0.268 OA
ATOM     13  N   UNL     1      -1.111  -5.074  -0.299  0.00  0.00    -0.322 N 
ATOM     14  H   UNL     1      -1.294  -5.772  -0.947  0.00  0.00    +0.169 HD
ATOM     15  C   UNL     1      -2.148  -4.490  -2.900  0.00  0.00    +0.046 C 
ENDBRANCH   1  10
BRANCH   1  16
ATOM     16  C   UNL     1       1.570  -5.443   3.051  0.00  0.00    +0.143 A 
ATOM     17  N   UNL     1       1.851  -6.584   2.470  0.00  0.00    -0.115 NA
ATOM     18  N   UNL     1       3.128  -6.750   2.517  0.00  0.00    -0.023 NA
ATOM     19  N   UNL     1       3.669  -5.746   3.113  0.00  0.00    -0.043 NA
ATOM     20  N   UNL     1       2.741  -4.916   3.453  0.00  0.00    -0.225 N 
BRANCH  20  21
ATOM     21  C   UNL     1       2.928  -3.640   4.149  0.00  0.00    +0.059 C 
ATOM     22  C   UNL     1       2.228  -3.694   5.509  0.00  0.00    +0.036 C 
ATOM     23  C   UNL     1       4.422  -3.385   4.355  0.00  0.00    +0.036 C 
ATOM     24  C   UNL     1       2.328  -2.510   3.312  0.00  0.00    +0.036 C 
ENDBRANCH  20  21
ENDBRANCH   1  16
BRANCH   1  25
ATOM     25  N   UNL     1      -0.696  -5.827   3.838  0.00  0.00    +0.396 N 
ATOM     26  H   UNL     1      -0.750  -6.642   3.246  0.00  0.00    -0.080 HD
BRANCH  25  27
ATOM     27  C   UNL     1      -0.177  -6.213   5.157  0.00  0.00    -0.002 C 
BRANCH  27  28
ATOM     28  C   UNL     1      -1.068  -7.270   5.758  0.00  0.00    +0.089 A 
ATOM     29  C   UNL     1      -0.878  -8.599   5.674  0.00  0.00    +0.042 A 
ATOM     30  C   UNL     1      -1.944  -9.210   6.374  0.00  0.00    +0.041 A 
ATOM     31  C   UNL     1      -2.722  -8.218   6.843  0.00  0.00    +0.195 A 
ATOM     32  O   UNL     1      -2.183  -7.045   6.472  0.00  0.00    -0.470 OA
ENDBRANCH  27  28
ENDBRANCH  25  27
BRANCH  25  33
ATOM     33  C   UNL     1      -2.036  -5.244   3.991  0.00  0.00    -0.045 C 
BRANCH  33  34
ATOM     34  C   UNL     1      -1.986  -4.115   5.022  0.00  0.00    +0.102 C 
ATOM     35  C   UNL     1      -3.413  -3.593   5.297  0.00  0.00    +0.032 C 
ATOM     36  C   UNL     1      -3.186  -2.062   5.418  0.00  0.00    +0.030 C 
ATOM     37  C   UNL     1      -2.042  -1.852   4.395  0.00  0.00    +0.160 C 
ATOM     38  O   UNL     1      -1.215  -3.023   4.511  0.00  0.00    -0.378 OA
ENDBRANCH  33  34
ENDBRANCH  25  33
ENDBRANCH   1  25
TORSDOF 8
