REMARK  Name = ZINC12163142
REMARK  14 active torsions:
REMARK  status: ('A' for Active; 'I' for Inactive)
REMARK    1  A    between atoms: C_1  and  O_2
REMARK    2  A    between atoms: O_2  and  C_3
REMARK    3  A    between atoms: C_5  and  C_13
REMARK    4  A    between atoms: C_7  and  O_11
REMARK    5  A    between atoms: C_8  and  O_9
REMARK    6  A    between atoms: O_9  and  C_10
REMARK    7  A    between atoms: O_11  and  C_12
REMARK    8  A    between atoms: C_14  and  C_15
REMARK    9  A    between atoms: N_17  and  C_18
REMARK   10  A    between atoms: C_18  and  C_19
REMARK   11  A    between atoms: C_19  and  C_20
REMARK   12  A    between atoms: C_20  and  S_21
REMARK   13  A    between atoms: S_21  and  N_24
REMARK   14  A    between atoms: N_27  and  C_30
REMARK                            x       y       z     vdW  Elec       q    Type
REMARK                         _______ _______ _______ _____ _____    ______ ____
ROOT
ATOM      1  C   UNL     1       1.876   1.165   2.157  0.00  0.00    +0.106 C 
ENDROOT
BRANCH   1   4
ATOM      2  C   UNL     1      -0.320   1.220   1.103  0.00  0.00    +0.237 C 
ATOM      3  O   UNL     1      -0.452   0.043   1.385  0.00  0.00    -0.271 OA
ATOM      4  N   UNL     1       0.809   1.872   1.445  0.00  0.00    -0.312 N 
ATOM      5  H   UNL     1       0.914   2.810   1.221  0.00  0.00    +0.149 HD
BRANCH   2   7
ATOM      6  C   UNL     1      -2.449   1.241  -0.082  0.00  0.00    +0.013 C 
ATOM      7  C   UNL     1      -1.383   1.924   0.387  0.00  0.00    +0.068 C 
BRANCH   6  10
ATOM      8  C   UNL     1      -3.545  -2.326   0.317  0.00  0.00    +0.166 A 
ATOM      9  C   UNL     1      -3.562  -0.945   0.326  0.00  0.00    +0.057 A 
ATOM     10  C   UNL     1      -2.434  -0.229  -0.090  0.00  0.00    -0.018 A 
ATOM     11  C   UNL     1      -1.293  -0.917  -0.519  0.00  0.00    +0.057 A 
ATOM     12  C   UNL     1      -1.280  -2.298  -0.520  0.00  0.00    +0.166 A 
ATOM     13  C   UNL     1      -2.405  -3.007  -0.106  0.00  0.00    +0.204 A 
BRANCH   8  15
ATOM     14  C   UNL     1      -5.775  -2.261   1.141  0.00  0.00    +0.277 C 
ATOM     15  O   UNL     1      -4.641  -3.022   0.721  0.00  0.00    -0.491 OA
ENDBRANCH   8  15
BRANCH  13  16
ATOM     16  O   UNL     1      -2.392  -4.366  -0.114  0.00  0.00    -0.488 OA
ATOM     17  C   UNL     1      -2.826  -5.012  -1.312  0.00  0.00    +0.277 C 
ENDBRANCH  13  16
BRANCH  12  18
ATOM     18  O   UNL     1      -0.170  -2.967  -0.933  0.00  0.00    -0.491 OA
ATOM     19  C   UNL     1       0.947  -2.178  -1.345  0.00  0.00    +0.277 C 
ENDBRANCH  12  18
ENDBRANCH   6  10
ENDBRANCH   2   7
ENDBRANCH   1   4
BRANCH   1  20
ATOM     20  C   UNL     1       3.035   2.127   2.424  0.00  0.00    +0.043 C 
BRANCH  20  21
ATOM     21  C   UNL     1       4.150   1.388   3.167  0.00  0.00    +0.187 C 
BRANCH  21  22
ATOM     22  S   UNL     1       5.525   2.529   3.483  0.00  0.00    +0.032 S 
ATOM     23  O   UNL     1       6.151   2.892   2.260  0.00  0.00    -0.158 OA
ATOM     24  O   UNL     1       5.131   3.524   4.418  0.00  0.00    -0.158 OA
BRANCH  22  25
ATOM     25  N   UNL     1       6.656   1.621   4.284  0.00  0.00    -0.178 NA
ATOM     26  C   UNL     1       6.653   1.536   5.752  0.00  0.00    +0.128 C 
ATOM     27  C   UNL     1       6.692   0.051   6.148  0.00  0.00    +0.123 C 
ATOM     28  N   UNL     1       7.835  -0.596   5.490  0.00  0.00    -0.314 N 
ATOM     29  C   UNL     1       7.694  -0.569   4.029  0.00  0.00    +0.123 C 
ATOM     30  C   UNL     1       7.693   0.885   3.545  0.00  0.00    +0.128 C 
BRANCH  28  31
ATOM     31  C   UNL     1       8.004  -1.897   5.951  0.00  0.00    +0.099 A 
ATOM     32  C   UNL     1       8.155  -2.131   7.314  0.00  0.00    +0.042 A 
ATOM     33  C   UNL     1       8.322  -3.430   7.759  0.00  0.00    +0.005 A 
ATOM     34  C   UNL     1       8.332  -4.455   6.822  0.00  0.00    +0.018 A 
ATOM     35  C   UNL     1       8.176  -4.150   5.484  0.00  0.00    +0.084 A 
ATOM     36  N   UNL     1       8.004  -2.887   5.012  0.00  0.00    -0.350 N 
ATOM     37  H   UNL     1       7.881  -2.690   4.012  0.00  0.00    +0.166 HD
ENDBRANCH  28  31
ENDBRANCH  22  25
ENDBRANCH  21  22
ENDBRANCH  20  21
ENDBRANCH   1  20
TORSDOF 11
