REMARK  Name = ZINC04003271
REMARK  8 active torsions:
REMARK  status: ('A' for Active; 'I' for Inactive)
REMARK    1  A    between atoms: C_1  and  C_2
REMARK    2  A    between atoms: C_2  and  S_3
REMARK    3  A    between atoms: S_3  and  C_4
REMARK    4  A    between atoms: C_8  and  C_9
REMARK    5  A    between atoms: C_11  and  C_32
REMARK    6  A    between atoms: C_12  and  N_31
REMARK    7  A    between atoms: N_13  and  C_21
REMARK    8  A    between atoms: C_24  and  N_28
REMARK                            x       y       z     vdW  Elec       q    Type
REMARK                         _______ _______ _______ _____ _____    ______ ____
ROOT
ATOM      1  C   UNL     1      -3.701   1.646   0.021  0.00  0.00    +0.105 C 
ATOM      2  C   UNL     1      -2.377   0.941   0.018  0.00  0.00    +0.077 C 
ATOM      3  C   UNL     1      -1.210   1.637   0.017  0.00  0.00    +0.107 C 
ATOM      4  N   UNL     1      -1.228   3.013   0.030  0.00  0.00    -0.259 N 
ATOM      5  C   UNL     1      -2.347   3.693   0.428  0.00  0.00    +0.025 C 
ATOM      6  C   UNL     1      -3.551   3.083   0.452  0.00  0.00    +0.026 C 
ATOM      7  C   UNL     1      -4.701   3.768   0.882  0.00  0.00    +0.162 C 
ATOM      8  O   UNL     1      -5.772   3.193   0.882  0.00  0.00    -0.292 OA
ATOM      9  C   UNL     1      -4.632   5.199   1.341  0.00  0.00    +0.080 C 
ATOM     10  C   UNL     1      -3.238   5.470   1.917  0.00  0.00    +0.014 C 
ATOM     11  C   UNL     1      -2.197   5.135   0.847  0.00  0.00    +0.052 C 
ENDROOT
BRANCH   4  12
ATOM     12  C   UNL     1      -0.091   3.726  -0.372  0.00  0.00    +0.058 A 
ATOM     13  C   UNL     1       0.072   4.081  -1.704  0.00  0.00    +0.027 A 
ATOM     14  C   UNL     1       1.192   4.788  -2.097  0.00  0.00    +0.034 A 
ATOM     15  C   UNL     1       2.155   5.133  -1.166  0.00  0.00    +0.128 A 
ATOM     16  C   UNL     1       1.999   4.777   0.161  0.00  0.00    +0.054 A 
ATOM     17  C   UNL     1       0.878   4.074   0.561  0.00  0.00    +0.065 A 
ATOM     18 CL   UNL     1       0.681   3.628   2.227  0.00  0.00    -0.082 Cl
BRANCH  15  19
ATOM     19  N   UNL     1       3.357   5.886  -1.592  0.00  0.00    +0.056 N 
ATOM     20  O   UNL     1       4.206   6.190  -0.774  0.00  0.00    -0.126 OA
ATOM     21  O   UNL     1       3.496   6.200  -2.761  0.00  0.00    -0.126 OA
ENDBRANCH  15  19
ENDBRANCH   4  12
BRANCH   1  26
ATOM     22  C   UNL     1      -5.458   1.063  -1.787  0.00  0.00    +0.019 A 
ATOM     23  C   UNL     1      -5.792   1.147  -3.130  0.00  0.00    +0.022 A 
ATOM     24  C   UNL     1      -4.938   1.768  -3.981  0.00  0.00    +0.046 A 
ATOM     25  S   UNL     1      -3.618   2.265  -2.887  0.00  0.00    -0.100 S 
ATOM     26  C   UNL     1      -4.285   1.606  -1.368  0.00  0.00    +0.016 A 
BRANCH  22  27
ATOM     27  S   UNL     1      -6.536   0.265  -0.644  0.00  0.00    -0.125 S 
BRANCH  27  29
ATOM     28  C   UNL     1      -8.958  -0.998  -0.786  0.00  0.00    +0.015 C 
ATOM     29  C   UNL     1      -7.933  -0.280  -1.665  0.00  0.00    +0.071 C 
ENDBRANCH  27  29
ENDBRANCH  22  27
ENDBRANCH   1  26
BRANCH   3  30
ATOM     30  N   UNL     1      -0.011   0.966   0.007  0.00  0.00    -0.345 N 
ATOM     31  H   UNL     1       0.002  -0.004   0.002  0.00  0.00    +0.144 HD
ATOM     32  H   UNL     1       0.822   1.462   0.002  0.00  0.00    +0.144 HD
ENDBRANCH   3  30
BRANCH   2  33
ATOM     33  C   UNL     1      -2.342  -0.491   0.018  0.00  0.00    +0.099 C 
ATOM     34  N   UNL     1      -2.314  -1.627   0.019  0.00  0.00    -0.191 NA
ENDBRANCH   2  33
TORSDOF 7
