REMARK  Name = ZINC44973715
REMARK  10 active torsions:
REMARK  status: ('A' for Active; 'I' for Inactive)
REMARK    1  A    between atoms: C_1  and  C_2
REMARK    2  A    between atoms: C_2  and  C_4
REMARK    3  A    between atoms: C_2  and  N_8
REMARK    4  A    between atoms: C_4  and  C_5
REMARK    5  A    between atoms: C_5  and  C_6
REMARK    6  A    between atoms: C_5  and  C_7
REMARK    7  A    between atoms: C_9  and  C_11
REMARK    8  A    between atoms: C_14  and  C_17
REMARK    9  A    between atoms: C_23  and  O_34
REMARK   10  A    between atoms: N_30  and  C_33
REMARK                            x       y       z     vdW  Elec       q    Type
REMARK                         _______ _______ _______ _____ _____    ______ ____
ROOT
ATOM      1  C   UNL     1       3.454  -2.328  -6.719  0.00  0.00    -0.017 A 
ATOM      2  C   UNL     1       4.803  -2.628  -6.527  0.00  0.00    +0.012 A 
ATOM      3  C   UNL     1       5.569  -3.051  -7.590  0.00  0.00    +0.046 A 
ATOM      4  C   UNL     1       5.005  -3.180  -8.857  0.00  0.00    +0.127 A 
ATOM      5  C   UNL     1       3.667  -2.880  -9.052  0.00  0.00    +0.023 A 
ATOM      6  C   UNL     1       2.891  -2.463  -7.986  0.00  0.00    +0.018 A 
ATOM      7  C   UNL     1       3.025  -2.996 -10.412  0.00  0.00    +0.152 C 
ATOM      8  C   UNL     1       3.891  -3.873 -11.318  0.00  0.00    +0.084 C 
ATOM      9  C   UNL     1       5.343  -3.396 -11.210  0.00  0.00    +0.110 C 
ATOM     10  O   UNL     1       5.797  -3.607  -9.875  0.00  0.00    -0.485 OA
ATOM     11  C   UNL     1       5.420  -1.907 -11.555  0.00  0.00    +0.029 C 
ATOM     12  C   UNL     1       6.882  -1.457 -11.525  0.00  0.00    -0.075 C 
ATOM     13  N   UNL     1       7.657  -2.231 -12.502  0.00  0.00    +0.378 N 
ATOM     14  C   UNL     1       7.648  -3.651 -12.133  0.00  0.00    -0.075 C 
ATOM     15  C   UNL     1       6.215  -4.188 -12.186  0.00  0.00    +0.029 C 
ATOM     16  C   UNL     1       9.041  -1.741 -12.526  0.00  0.00    -0.096 C 
ATOM     17  H   UNL     1       7.247  -2.120 -13.418  0.00  0.00    -0.082 HD
ENDROOT
BRANCH   1  21
ATOM     18  C   UNL     1       1.067  -1.025  -3.447  0.00  0.00    +0.037 A 
ATOM     19  C   UNL     1       2.419  -1.319  -3.253  0.00  0.00    +0.013 A 
ATOM     20  C   UNL     1       3.190  -1.741  -4.312  0.00  0.00    +0.009 A 
ATOM     21  C   UNL     1       2.623  -1.875  -5.580  0.00  0.00    -0.018 A 
ATOM     22  C   UNL     1       1.272  -1.581  -5.775  0.00  0.00    +0.009 A 
ATOM     23  C   UNL     1       0.498  -1.164  -4.716  0.00  0.00    +0.013 A 
BRANCH  18  25
ATOM     24  N   UNL     1       0.787  -0.439  -1.088  0.00  0.00    -0.309 N 
ATOM     25  C   UNL     1       0.238  -0.573  -2.312  0.00  0.00    +0.244 C 
ATOM     26  O   UNL     1      -0.939  -0.322  -2.481  0.00  0.00    -0.270 OA
ATOM     27  H   UNL     1       1.727  -0.639  -0.954  0.00  0.00    +0.149 HD
BRANCH  24  29
ATOM     28  C   UNL     1      -0.087   1.539   0.055  0.00  0.00    +0.028 C 
ATOM     29  C   UNL     1      -0.035   0.010   0.038  0.00  0.00    +0.070 C 
BRANCH  29  30
ATOM     30  C   UNL     1       0.576  -0.494   1.348  0.00  0.00    +0.025 C 
BRANCH  30  31
ATOM     31  C   UNL     1       0.550  -2.024   1.367  0.00  0.00    -0.015 C 
ATOM     32  C   UNL     1       1.290  -2.530   2.606  0.00  0.00    +0.007 C 
ATOM     33  C   UNL     1      -0.900  -2.509   1.405  0.00  0.00    +0.007 C 
ENDBRANCH  30  31
ENDBRANCH  29  30
ENDBRANCH  24  29
ENDBRANCH  18  25
ENDBRANCH   1  21
BRANCH   7  34
ATOM     34  O   UNL     1       1.730  -3.585 -10.277  0.00  0.00    -0.387 OA
ATOM     35  H   UNL     1       1.124  -3.080  -9.718  0.00  0.00    +0.210 HD
ENDBRANCH   7  34
TORSDOF 6
