REMARK  Name = ZINC06911972
REMARK  7 active torsions:
REMARK  status: ('A' for Active; 'I' for Inactive)
REMARK    1  A    between atoms: C_1  and  C_2
REMARK    2  A    between atoms: C_5  and  C_27
REMARK    3  A    between atoms: C_10  and  C_12
REMARK    4  A    between atoms: C_12  and  C_14
REMARK    5  A    between atoms: C_12  and  N_56
REMARK    6  A    between atoms: N_17  and  C_20
REMARK    7  A    between atoms: C_25  and  O_26
REMARK                            x       y       z     vdW  Elec       q    Type
REMARK                         _______ _______ _______ _____ _____    ______ ____
ROOT
ATOM      1  C   UNL     1       0.917  -2.493  -1.802  0.00  0.00    -0.059 C 
ATOM      2  C   UNL     1       1.131  -1.043  -2.241  0.00  0.00    +0.086 C 
ATOM      3  N   UNL     1       0.400  -0.146  -1.335  0.00  0.00    -0.331 N 
ATOM      4  C   UNL     1       0.865  -0.309   0.050  0.00  0.00    +0.086 C 
ATOM      5  C   UNL     1       0.652  -1.759   0.490  0.00  0.00    -0.059 C 
ATOM      6  N   UNL     1       1.409  -2.648  -0.416  0.00  0.00    +0.389 N 
ATOM      7  H   UNL     1       2.402  -2.390  -0.384  0.00  0.00    -0.081 HD
ENDROOT
BRANCH   3   8
ATOM      8  C   UNL     1       0.514   1.186  -1.748  0.00  0.00    +0.072 A 
ATOM      9  C   UNL     1       1.763   1.783  -1.837  0.00  0.00    +0.027 A 
ATOM     10  C   UNL     1       1.872   3.099  -2.246  0.00  0.00    +0.002 A 
ATOM     11  C   UNL     1       0.739   3.823  -2.568  0.00  0.00    +0.004 A 
ATOM     12  C   UNL     1      -0.510   3.234  -2.482  0.00  0.00    +0.047 A 
ATOM     13  C   UNL     1      -0.627   1.915  -2.078  0.00  0.00    +0.138 A 
BRANCH  13  14
ATOM     14  O   UNL     1      -1.854   1.333  -1.998  0.00  0.00    -0.505 OA
ATOM     15  H   UNL     1      -2.281   1.432  -1.135  0.00  0.00    +0.292 HD
ENDBRANCH  13  14
ENDBRANCH   3   8
BRANCH   6  16
ATOM     16  C   UNL     1       1.263  -4.054   0.017  0.00  0.00    +0.016 C 
ATOM     17  C   UNL     1      -0.207  -4.383   0.280  0.00  0.00    -0.004 C 
BRANCH  16  25
ATOM     18  C   UNL     1       3.982  -6.794  -0.440  0.00  0.00    +0.009 C 
ATOM     19  C   UNL     1       3.097  -7.551   0.553  0.00  0.00    +0.004 C 
ATOM     20  C   UNL     1       3.907  -7.887   1.807  0.00  0.00    +0.009 C 
ATOM     21  C   UNL     1       4.437  -6.596   2.435  0.00  0.00    +0.004 C 
ATOM     22  C   UNL     1       3.257  -5.710   2.845  0.00  0.00    +0.111 C 
ATOM     23  N   UNL     1       2.393  -5.502   1.675  0.00  0.00    -0.302 N 
ATOM     24  C   UNL     1       1.896  -6.676   0.945  0.00  0.00    +0.111 C 
ATOM     25  C   UNL     1       2.058  -4.257   1.282  0.00  0.00    +0.202 C 
ATOM     26  O   UNL     1       2.395  -3.300   1.946  0.00  0.00    -0.277 OA
ATOM     27  C   UNL     1       5.275  -6.935   3.669  0.00  0.00    +0.009 C 
ENDBRANCH  16  25
ENDBRANCH   6  16
TORSDOF 4
