REMARK  Name = ZINC62046747
REMARK  10 active torsions:
REMARK  status: ('A' for Active; 'I' for Inactive)
REMARK    1  A    between atoms: C_1  and  C_2
REMARK    2  A    between atoms: C_2  and  O_3
REMARK    3  A    between atoms: O_3  and  C_4
REMARK    4  A    between atoms: C_7  and  C_10
REMARK    5  A    between atoms: C_11  and  C_30
REMARK    6  A    between atoms: C_15  and  N_20
REMARK    7  A    between atoms: C_17  and  C_19
REMARK    8  A    between atoms: C_25  and  C_27
REMARK    9  A    between atoms: C_27  and  C_28
REMARK   10  A    between atoms: C_28  and  O_29
REMARK                            x       y       z     vdW  Elec       q    Type
REMARK                         _______ _______ _______ _____ _____    ______ ____
ROOT
ATOM      1  C   UNL     1       1.386  -6.231   1.828  0.00  0.00    +0.005 A 
ATOM      2  C   UNL     1       0.363  -7.060   2.141  0.00  0.00    -0.003 A 
ATOM      3  S   UNL     1       1.129  -8.670   2.178  0.00  0.00    -0.073 S 
ATOM      4  C   UNL     1       2.791  -8.199   1.776  0.00  0.00    +0.114 A 
ATOM      5  C   UNL     1       2.712  -6.800   1.616  0.00  0.00    +0.056 A 
ATOM      6  C   UNL     1       3.932  -6.156   1.278  0.00  0.00    +0.134 A 
ATOM      7  N   UNL     1       5.029  -6.883   1.135  0.00  0.00    -0.217 NA
ATOM      8  C   UNL     1       5.029  -8.193   1.295  0.00  0.00    +0.129 A 
ATOM      9  N   UNL     1       3.929  -8.846   1.619  0.00  0.00    -0.225 NA
ATOM     10  C   UNL     1       6.315  -8.958   1.116  0.00  0.00    +0.088 C 
ATOM     11  C   UNL     1      -1.079  -6.708   2.398  0.00  0.00    +0.052 C 
ENDROOT
BRANCH   1  15
ATOM     12  C   UNL     1       0.739  -2.044   1.451  0.00  0.00    +0.121 A 
ATOM     13  C   UNL     1       0.336  -2.901   0.436  0.00  0.00    +0.046 A 
ATOM     14  C   UNL     1       0.544  -4.260   0.555  0.00  0.00    +0.012 A 
ATOM     15  C   UNL     1       1.161  -4.771   1.696  0.00  0.00    -0.016 A 
ATOM     16  C   UNL     1       1.565  -3.908   2.713  0.00  0.00    +0.012 A 
ATOM     17  C   UNL     1       1.358  -2.550   2.586  0.00  0.00    +0.046 A 
BRANCH  12  18
ATOM     18  O   UNL     1       0.532  -0.706   1.330  0.00  0.00    -0.492 OA
BRANCH  18  20
ATOM     19  C   UNL     1      -0.255   1.268   0.181  0.00  0.00    +0.048 C 
ATOM     20  C   UNL     1      -0.110  -0.254   0.137  0.00  0.00    +0.225 C 
ENDBRANCH  18  20
ENDBRANCH  12  18
ENDBRANCH   1  15
BRANCH   6  21
ATOM     21  N   UNL     1       3.973  -4.784   1.101  0.00  0.00    -0.311 N 
ATOM     22  C   UNL     1       4.397  -3.900   2.196  0.00  0.00    +0.107 C 
ATOM     23  C   UNL     1       5.528  -2.999   1.691  0.00  0.00    +0.019 C 
ATOM     24  C   UNL     1       5.066  -2.263   0.432  0.00  0.00    +0.003 C 
ATOM     25  C   UNL     1       4.734  -3.279  -0.663  0.00  0.00    +0.022 C 
ATOM     26  C   UNL     1       3.599  -4.184  -0.187  0.00  0.00    +0.077 C 
BRANCH  26  27
ATOM     27  C   UNL     1       3.362  -5.290  -1.218  0.00  0.00    +0.050 C 
BRANCH  27  28
ATOM     28  C   UNL     1       2.861  -4.670  -2.524  0.00  0.00    +0.157 C 
BRANCH  28  29
ATOM     29  O   UNL     1       2.525  -5.708  -3.446  0.00  0.00    -0.395 OA
ATOM     30  H   UNL     1       2.272  -5.389  -4.323  0.00  0.00    +0.209 HD
ENDBRANCH  28  29
ENDBRANCH  27  28
ENDBRANCH  26  27
ENDBRANCH   6  21
TORSDOF 7
