REMARK  Name = ZINC36053559
REMARK  10 active torsions:
REMARK  status: ('A' for Active; 'I' for Inactive)
REMARK    1  A    between atoms: C_1  and  C_2
REMARK    2  A    between atoms: C_3  and  C_30
REMARK    3  A    between atoms: C_4  and  C_21
REMARK    4  A    between atoms: C_7  and  C_12
REMARK    5  A    between atoms: C_13  and  N_15
REMARK    6  A    between atoms: C_24  and  C_27
REMARK    7  A    between atoms: C_27  and  C_28
REMARK    8  A    between atoms: C_27  and  C_29
REMARK    9  A    between atoms: C_30  and  O_32
REMARK   10  A    between atoms: O_32  and  C_33
REMARK                            x       y       z     vdW  Elec       q    Type
REMARK                         _______ _______ _______ _____ _____    ______ ____
ROOT
ATOM      1  C   UNL     1      -0.044   1.627   0.892  0.00  0.00    +0.066 C 
ATOM      2  C   UNL     1      -0.087   0.138   0.664  0.00  0.00    +0.053 C 
ATOM      3  C   UNL     1      -1.304  -0.511   0.593  0.00  0.00    +0.082 C 
ATOM      4  C   UNL     1      -1.295  -2.006   0.362  0.00  0.00    +0.150 C 
ATOM      5  N   UNL     1       0.034  -2.661   0.229  0.00  0.00    -0.267 N 
ATOM      6  C   UNL     1       0.281  -4.003   0.015  0.00  0.00    +0.048 C 
ATOM      7  C   UNL     1       1.570  -4.396  -0.077  0.00  0.00    +0.072 C 
ATOM      8  S   UNL     1       2.441  -2.857   0.140  0.00  0.00    -0.060 S 
ATOM      9  C   UNL     1       1.120  -1.838   0.330  0.00  0.00    +0.166 C 
ATOM     10  N   UNL     1       1.042  -0.538   0.527  0.00  0.00    -0.230 NA
ENDROOT
BRANCH   4  11
ATOM     11  C   UNL     1      -2.077  -2.286  -0.895  0.00  0.00    -0.022 A 
ATOM     12  C   UNL     1      -1.536  -1.978  -2.130  0.00  0.00    +0.006 A 
ATOM     13  C   UNL     1      -2.255  -2.235  -3.282  0.00  0.00    +0.004 A 
ATOM     14  C   UNL     1      -3.513  -2.800  -3.201  0.00  0.00    -0.045 A 
ATOM     15  C   UNL     1      -4.054  -3.109  -1.967  0.00  0.00    +0.004 A 
ATOM     16  C   UNL     1      -3.334  -2.856  -0.814  0.00  0.00    +0.006 A 
BRANCH  14  17
ATOM     17  C   UNL     1      -4.296  -3.080  -4.458  0.00  0.00    +0.013 C 
ATOM     18  C   UNL     1      -4.595  -4.578  -4.550  0.00  0.00    +0.012 C 
ATOM     19  C   UNL     1      -5.611  -2.299  -4.424  0.00  0.00    +0.012 C 
ENDBRANCH  14  17
ENDBRANCH   4  11
BRANCH   6  20
ATOM     20  C   UNL     1      -0.820  -4.969  -0.107  0.00  0.00    +0.091 C 
ATOM     21  C   UNL     1      -0.555  -6.288  -0.161  0.00  0.00    +0.241 C 
ATOM     22  O   UNL     1       0.711  -6.733   0.026  0.00  0.00    -0.271 OA
BRANCH  21  23
ATOM     23  N   UNL     1      -1.577  -7.190  -0.406  0.00  0.00    -0.294 N 
ATOM     24  C   UNL     1      -2.749  -6.807  -1.209  0.00  0.00    +0.136 C 
ATOM     25  C   UNL     1      -2.961  -7.870  -2.293  0.00  0.00    +0.179 C 
ATOM     26  O   UNL     1      -3.004  -9.162  -1.683  0.00  0.00    -0.377 OA
ATOM     27  C   UNL     1      -1.794  -9.538  -1.022  0.00  0.00    +0.179 C 
ATOM     28  C   UNL     1      -1.519  -8.562   0.122  0.00  0.00    +0.136 C 
ENDBRANCH  21  23
ENDBRANCH   6  20
BRANCH   3  29
ATOM     29  C   UNL     1      -2.507   0.192   0.730  0.00  0.00    +0.339 C 
ATOM     30  O   UNL     1      -2.492   1.396   0.916  0.00  0.00    -0.245 OA
BRANCH  29  31
ATOM     31  O   UNL     1      -3.686  -0.465   0.657  0.00  0.00    -0.465 OA
ATOM     32  C   UNL     1      -4.874   0.315   0.806  0.00  0.00    +0.280 C 
ENDBRANCH  29  31
ENDBRANCH   3  29
TORSDOF 6
