REMARK  Name = ZINC08757479
REMARK  11 active torsions:
REMARK  status: ('A' for Active; 'I' for Inactive)
REMARK    1  A    between atoms: C_1  and  C_2
REMARK    2  A    between atoms: C_2  and  C_4
REMARK    3  A    between atoms: C_2  and  O_20
REMARK    4  A    between atoms: N_6  and  C_7
REMARK    5  A    between atoms: C_10  and  S_13
REMARK    6  A    between atoms: S_13  and  N_16
REMARK    7  A    between atoms: N_16  and  C_17
REMARK    8  A    between atoms: C_17  and  C_18
REMARK    9  A    between atoms: C_17  and  C_19
REMARK   10  A    between atoms: O_20  and  C_21
REMARK   11  A    between atoms: C_21  and  C_23
REMARK                            x       y       z     vdW  Elec       q    Type
REMARK                         _______ _______ _______ _____ _____    ______ ____
ROOT
ATOM      1  C   UNL     1      -1.167  -0.141  -2.441  0.00  0.00    +0.258 C 
ATOM      2  O   UNL     1      -1.809  -0.441  -3.425  0.00  0.00    -0.271 OA
ATOM      3  N   UNL     1       0.176  -0.250  -2.453  0.00  0.00    -0.282 N 
ATOM      4  H   UNL     1       0.695   0.052  -1.691  0.00  0.00    +0.155 HD
ENDROOT
BRANCH   3   5
ATOM      5  C   UNL     1       0.824  -0.799  -3.566  0.00  0.00    +0.034 A 
ATOM      6  C   UNL     1       1.963  -1.575  -3.395  0.00  0.00    +0.025 A 
ATOM      7  C   UNL     1       2.600  -2.115  -4.495  0.00  0.00    +0.030 A 
ATOM      8  C   UNL     1       2.103  -1.885  -5.765  0.00  0.00    +0.105 A 
ATOM      9  C   UNL     1       0.969  -1.113  -5.938  0.00  0.00    +0.030 A 
ATOM     10  C   UNL     1       0.325  -0.575  -4.842  0.00  0.00    +0.025 A 
BRANCH   8  11
ATOM     11  S   UNL     1       2.918  -2.577  -7.166  0.00  0.00    +0.059 S 
ATOM     12  O   UNL     1       2.572  -1.765  -8.279  0.00  0.00    -0.153 OA
ATOM     13  O   UNL     1       4.267  -2.805  -6.779  0.00  0.00    -0.153 OA
BRANCH  11  14
ATOM     14  N   UNL     1       2.246  -4.065  -7.438  0.00  0.00    -0.187 NA
ATOM     15  H   UNL     1       2.783  -4.867  -7.337  0.00  0.00    +0.148 HD
BRANCH  14  16
ATOM     16  C   UNL     1       0.839  -4.172  -7.832  0.00  0.00    +0.070 C 
ATOM     17  C   UNL     1       0.741  -4.253  -9.357  0.00  0.00    +0.025 C 
ATOM     18  C   UNL     1       0.230  -5.432  -7.214  0.00  0.00    +0.025 C 
ENDBRANCH  14  16
ENDBRANCH  11  14
ENDBRANCH   8  11
ENDBRANCH   3   5
BRANCH   1  20
ATOM     19  C   UNL     1      -1.669  -0.650  -0.066  0.00  0.00    +0.062 C 
ATOM     20  C   UNL     1      -1.871   0.353  -1.204  0.00  0.00    +0.259 C 
BRANCH  20  21
ATOM     21  O   UNL     1      -3.268   0.490  -1.474  0.00  0.00    -0.448 OA
BRANCH  21  22
ATOM     22  C   UNL     1      -3.933   1.444  -0.789  0.00  0.00    +0.347 C 
ATOM     23  O   UNL     1      -3.342   2.139   0.016  0.00  0.00    -0.244 OA
BRANCH  22  24
ATOM     24  C   UNL     1      -5.365   1.641  -1.014  0.00  0.00    +0.097 A 
ATOM     25  C   UNL     1      -6.225   2.558  -0.425  0.00  0.00    +0.024 A 
ATOM     26  C   UNL     1      -7.532   2.505  -0.844  0.00  0.00    +0.024 A 
ATOM     27  C   UNL     1      -7.888   1.586  -1.778  0.00  0.00    +0.056 A 
ATOM     28  S   UNL     1      -6.459   0.772  -2.122  0.00  0.00    -0.075 S 
ATOM     29 BR   UNL     1      -9.600   1.294  -2.526  0.00  0.00    -0.043 Br
ENDBRANCH  22  24
ENDBRANCH  21  22
ENDBRANCH  20  21
ENDBRANCH   1  20
TORSDOF 8
