REMARK  Name = ZINC06046042
REMARK  7 active torsions:
REMARK  status: ('A' for Active; 'I' for Inactive)
REMARK    1  A    between atoms: C_1  and  C_2
REMARK    2  A    between atoms: C_2  and  C_3
REMARK    3  A    between atoms: C_3  and  C_4
REMARK    4  A    between atoms: C_11  and  N_16
REMARK    5  A    between atoms: C_12  and  C_13
REMARK    6  A    between atoms: C_17  and  C_19
REMARK    7  A    between atoms: C_23  and  C_24
REMARK                            x       y       z     vdW  Elec       q    Type
REMARK                         _______ _______ _______ _____ _____    ______ ____
ROOT
ATOM      1  C   UNL     1      -1.108  -7.072  -0.405  0.00  0.00    -0.006 C 
ATOM      2  C   UNL     1      -2.348  -6.783   0.446  0.00  0.00    +0.008 C 
ATOM      3  C   UNL     1      -2.987  -5.466   0.002  0.00  0.00    +0.037 C 
ATOM      4  C   UNL     1      -1.919  -4.379  -0.003  0.00  0.00    -0.023 A 
ATOM      5  C   UNL     1      -0.606  -4.695  -0.018  0.00  0.00    -0.004 A 
ATOM      6  S   UNL     1       0.235  -3.137  -0.025  0.00  0.00    -0.077 S 
ATOM      7  C   UNL     1      -1.137  -2.079   0.002  0.00  0.00    +0.085 A 
ATOM      8  C   UNL     1      -2.213  -2.956   0.007  0.00  0.00    +0.068 A 
ATOM      9  C   UNL     1      -0.007  -6.068  -0.032  0.00  0.00    +0.046 C 
ENDROOT
BRANCH   8  10
ATOM     10  C   UNL     1      -3.594  -2.466   0.024  0.00  0.00    +0.244 C 
ATOM     11  O   UNL     1      -4.178  -2.256  -1.024  0.00  0.00    -0.270 OA
ATOM     12  N   UNL     1      -4.217  -2.246   1.198  0.00  0.00    -0.325 N 
ATOM     13  H   UNL     1      -3.752  -2.413   2.033  0.00  0.00    +0.145 HD
ATOM     14  H   UNL     1      -5.131  -1.921   1.209  0.00  0.00    +0.145 HD
ENDBRANCH   8  10
BRANCH   7  15
ATOM     15  N   UNL     1      -1.156  -0.694   0.009  0.00  0.00    -0.275 N 
ATOM     16  C   UNL     1       0.002  -0.004   0.002  0.00  0.00    +0.252 C 
ATOM     17  O   UNL     1       1.063  -0.598  -0.011  0.00  0.00    -0.270 OA
ATOM     18  H   UNL     1      -2.002  -0.220   0.020  0.00  0.00    +0.156 HD
BRANCH  16  19
ATOM     19  C   UNL     1      -0.018   1.469   0.010  0.00  0.00    +0.078 A 
ATOM     20  C   UNL     1      -1.201   2.342   0.020  0.00  0.00    +0.054 A 
ATOM     21  C   UNL     1      -0.732   3.599   0.028  0.00  0.00    +0.196 A 
ATOM     22  O   UNL     1       0.610   3.568   0.015  0.00  0.00    -0.467 OA
ATOM     23  C   UNL     1       1.058   2.309   0.004  0.00  0.00    +0.114 A 
ATOM     24  C   UNL     1       2.505   1.888  -0.011  0.00  0.00    +0.087 C 
ENDBRANCH  16  19
ENDBRANCH   7  15
BRANCH   1  25
ATOM     25  C   UNL     1      -0.618  -8.495  -0.130  0.00  0.00    +0.003 C 
BRANCH  25  27
ATOM     26  C   UNL     1       1.033 -10.249  -0.795  0.00  0.00    +0.004 C 
ATOM     27  C   UNL     1       0.543  -8.825  -1.069  0.00  0.00    -0.003 C 
ENDBRANCH  25  27
ENDBRANCH   1  25
TORSDOF 5
