REMARK  Name = ZINC11443252
REMARK  13 active torsions:
REMARK  status: ('A' for Active; 'I' for Inactive)
REMARK    1  A    between atoms: C_1  and  C_2
REMARK    2  A    between atoms: C_2  and  C_3
REMARK    3  A    between atoms: C_3  and  C_4
REMARK    4  A    between atoms: C_6  and  O_31
REMARK    5  A    between atoms: C_8  and  S_10
REMARK    6  A    between atoms: S_10  and  C_11
REMARK    7  A    between atoms: C_11  and  C_12
REMARK    8  A    between atoms: C_12  and  C_14
REMARK    9  A    between atoms: C_16  and  C_30
REMARK   10  A    between atoms: N_17  and  C_20
REMARK   11  A    between atoms: C_18  and  C_19
REMARK   12  A    between atoms: C_23  and  S_26
REMARK   13  A    between atoms: S_26  and  N_29
REMARK                            x       y       z     vdW  Elec       q    Type
REMARK                         _______ _______ _______ _____ _____    ______ ____
ROOT
ATOM      1  C   UNL     1      -4.477   4.128   6.145  0.00  0.00    +0.039 A 
ATOM      2  C   UNL     1      -3.805   3.067   6.907  0.00  0.00    +0.034 A 
ATOM      3  C   UNL     1      -2.974   2.451   6.049  0.00  0.00    +0.022 A 
ATOM      4  N   UNL     1      -3.078   3.044   4.822  0.00  0.00    -0.317 N 
ATOM      5  C   UNL     1      -3.970   4.053   4.861  0.00  0.00    +0.031 A 
ATOM      6  C   UNL     1      -4.350   4.943   3.706  0.00  0.00    +0.064 C 
ATOM      7  C   UNL     1      -2.072   1.292   6.387  0.00  0.00    +0.064 C 
ENDROOT
BRANCH   4   8
ATOM      8  C   UNL     1      -2.355   2.659   3.684  0.00  0.00    +0.047 A 
ATOM      9  C   UNL     1      -2.560   1.408   3.119  0.00  0.00    +0.028 A 
ATOM     10  C   UNL     1      -1.846   1.032   1.999  0.00  0.00    +0.030 A 
ATOM     11  C   UNL     1      -0.927   1.900   1.439  0.00  0.00    +0.105 A 
ATOM     12  C   UNL     1      -0.716   3.145   2.003  0.00  0.00    +0.030 A 
ATOM     13  C   UNL     1      -1.431   3.529   3.120  0.00  0.00    +0.028 A 
BRANCH  11  14
ATOM     14  S   UNL     1      -0.017   1.417   0.010  0.00  0.00    +0.056 S 
ATOM     15  O   UNL     1       0.002  -0.004   0.002  0.00  0.00    -0.153 OA
ATOM     16  O   UNL     1       1.172   2.195   0.003  0.00  0.00    -0.153 OA
BRANCH  14  17
ATOM     17  N   UNL     1      -0.897   1.885  -1.312  0.00  0.00    -0.204 NA
ATOM     18  H   UNL     1      -1.201   1.223  -1.952  0.00  0.00    +0.144 HD
ATOM     19  H   UNL     1      -1.110   2.822  -1.446  0.00  0.00    +0.144 HD
ENDBRANCH  14  17
ENDBRANCH  11  14
ENDBRANCH   4   8
BRANCH   1  20
ATOM     20  C   UNL     1      -5.477   5.075   6.644  0.00  0.00    +0.175 C 
ATOM     21  O   UNL     1      -5.952   5.905   5.898  0.00  0.00    -0.291 OA
BRANCH  20  22
ATOM     22  C   UNL     1      -5.915   5.018   8.085  0.00  0.00    +0.157 C 
BRANCH  22  23
ATOM     23  S   UNL     1      -7.149   6.306   8.391  0.00  0.00    -0.078 S 
BRANCH  23  28
ATOM     24  C   UNL     1      -8.627   6.595  12.009  0.00  0.00    +0.049 A 
ATOM     25  C   UNL     1      -7.977   5.587  12.697  0.00  0.00    +0.090 A 
ATOM     26  C   UNL     1      -7.054   4.800  12.010  0.00  0.00    +0.216 A 
ATOM     27  N   UNL     1      -6.831   5.042  10.724  0.00  0.00    -0.187 NA
ATOM     28  C   UNL     1      -7.475   6.018  10.099  0.00  0.00    +0.192 A 
ATOM     29  N   UNL     1      -8.354   6.785  10.728  0.00  0.00    -0.227 NA
BRANCH  26  30
ATOM     30  O   UNL     1      -6.395   3.802  12.645  0.00  0.00    -0.492 OA
ATOM     31  H   UNL     1      -5.559   4.076  13.048  0.00  0.00    +0.294 HD
ENDBRANCH  26  30
BRANCH  24  32
ATOM     32  C   UNL     1      -9.632   7.471  12.712  0.00  0.00    +0.055 C 
BRANCH  32  34
ATOM     33  C   UNL     1     -10.259   9.829  13.251  0.00  0.00    +0.004 C 
ATOM     34  C   UNL     1      -9.239   8.939  12.537  0.00  0.00    +0.003 C 
ENDBRANCH  32  34
ENDBRANCH  24  32
ENDBRANCH  23  28
ENDBRANCH  22  23
ENDBRANCH  20  22
ENDBRANCH   1  20
TORSDOF 10
