REMARK  Name = ZINC63676462
REMARK  8 active torsions:
REMARK  status: ('A' for Active; 'I' for Inactive)
REMARK    1  A    between atoms: C_7  and  C_10
REMARK    2  A    between atoms: C_10  and  C_11
REMARK    3  A    between atoms: C_11  and  N_12
REMARK    4  A    between atoms: C_13  and  C_15
REMARK    5  A    between atoms: N_17  and  C_18
REMARK    6  A    between atoms: C_18  and  C_19
REMARK    7  A    between atoms: N_21  and  S_25
REMARK    8  A    between atoms: S_25  and  C_28
REMARK                            x       y       z     vdW  Elec       q    Type
REMARK                         _______ _______ _______ _____ _____    ______ ____
ROOT
ATOM      1  C   UNL     1      -2.090  -6.417  -2.485  0.00  0.00    +0.299 C 
ATOM      2  O   UNL     1      -2.477  -6.881  -1.432  0.00  0.00    -0.265 OA
ATOM      3  N   UNL     1      -2.372  -7.047  -3.642  0.00  0.00    -0.304 N 
ATOM      4  H   UNL     1      -2.063  -6.676  -4.484  0.00  0.00    +0.149 HD
ENDROOT
BRANCH   1   6
ATOM      5  N   UNL     1      -1.019  -4.518  -1.340  0.00  0.00    -0.307 N 
ATOM      6  C   UNL     1      -1.301  -5.148  -2.498  0.00  0.00    +0.299 C 
ATOM      7  O   UNL     1      -0.914  -4.684  -3.550  0.00  0.00    -0.265 OA
ATOM      8  H   UNL     1      -1.328  -4.889  -0.498  0.00  0.00    +0.149 HD
BRANCH   5   9
ATOM      9  C   UNL     1      -0.245  -3.274  -1.352  0.00  0.00    +0.109 C 
BRANCH   9  10
ATOM     10  C   UNL     1      -0.067  -2.770   0.081  0.00  0.00    +0.052 C 
BRANCH  10  17
ATOM     11  C   UNL     1      -1.304   1.649   0.079  0.00  0.00    +0.001 A 
ATOM     12  C   UNL     1      -0.219   2.536   0.063  0.00  0.00    +0.002 A 
ATOM     13  C   UNL     1       1.065   2.119   0.051  0.00  0.00    +0.026 A 
ATOM     14  C   UNL     1       1.368   0.729   0.053  0.00  0.00    +0.043 A 
ATOM     15  N   UNL     1       2.510   0.085   0.042  0.00  0.00    -0.380 N 
ATOM     16  C   UNL     1       2.235  -1.356   0.051  0.00  0.00    +0.144 C 
ATOM     17  C   UNL     1       0.728  -1.490   0.068  0.00  0.00    -0.040 C 
ATOM     18  C   UNL     1       0.240  -0.229   0.069  0.00  0.00    -0.001 A 
ATOM     19  C   UNL     1      -1.126   0.308   0.082  0.00  0.00    +0.010 A 
ATOM     20  H   UNL     1       3.390   0.493   0.031  0.00  0.00    +0.160 HD
ENDBRANCH  10  17
ENDBRANCH   9  10
ENDBRANCH   5   9
ENDBRANCH   1   6
BRANCH   3  21
ATOM     21  C   UNL     1      -3.146  -8.291  -3.630  0.00  0.00    +0.154 C 
BRANCH  21  22
ATOM     22  C   UNL     1      -3.324  -8.795  -5.063  0.00  0.00    +0.226 C 
ATOM     23  N   UNL     1      -3.952  -7.747  -5.884  0.00  0.00    -0.145 NA
ATOM     24  C   UNL     1      -3.004  -7.463  -6.984  0.00  0.00    +0.140 C 
ATOM     25  C   UNL     1      -2.139  -8.747  -7.030  0.00  0.00    +0.179 C 
ATOM     26  O   UNL     1      -2.040  -9.103  -5.632  0.00  0.00    -0.357 OA
BRANCH  23  27
ATOM     27  S   UNL     1      -5.423  -7.031  -5.628  0.00  0.00    +0.066 S 
ATOM     28  O   UNL     1      -5.643  -7.044  -4.225  0.00  0.00    -0.153 OA
ATOM     29  O   UNL     1      -5.428  -5.830  -6.389  0.00  0.00    -0.153 OA
BRANCH  27  30
ATOM     30  C   UNL     1      -6.645  -8.082  -6.340  0.00  0.00    +0.143 A 
ATOM     31  C   UNL     1      -7.596  -8.679  -5.534  0.00  0.00    +0.069 A 
ATOM     32  C   UNL     1      -8.557  -9.505  -6.093  0.00  0.00    +0.125 A 
ATOM     33  C   UNL     1      -8.564  -9.733  -7.459  0.00  0.00    +0.041 A 
ATOM     34  C   UNL     1      -7.612  -9.136  -8.264  0.00  0.00    +0.043 A 
ATOM     35  C   UNL     1      -6.655  -8.306  -7.706  0.00  0.00    +0.150 A 
ATOM     36  F   UNL     1      -5.728  -7.719  -8.493  0.00  0.00    -0.203 F 
ATOM     37  F   UNL     1      -9.487 -10.089  -5.306  0.00  0.00    -0.205 F 
ENDBRANCH  27  30
ENDBRANCH  23  27
ENDBRANCH  21  22
ENDBRANCH   3  21
TORSDOF 8
