REMARK  Name = ZINC58393597
REMARK  8 active torsions:
REMARK  status: ('A' for Active; 'I' for Inactive)
REMARK    1  A    between atoms: C_1  and  C_2
REMARK    2  A    between atoms: C_3  and  C_10
REMARK    3  A    between atoms: C_4  and  O_8
REMARK    4  A    between atoms: N_5  and  C_7
REMARK    5  A    between atoms: O_8  and  C_9
REMARK    6  A    between atoms: C_10  and  N_11
REMARK    7  A    between atoms: N_11  and  C_12
REMARK    8  A    between atoms: C_18  and  C_20
REMARK                            x       y       z     vdW  Elec       q    Type
REMARK                         _______ _______ _______ _____ _____    ______ ____
ROOT
ATOM      1  C   UNL     1       1.277  -0.266  -4.329  0.00  0.00    -0.068 C 
ATOM      2  C   UNL     1       0.582  -1.212  -5.312  0.00  0.00    +0.003 C 
ATOM      3  C   UNL     1       0.305  -0.467  -6.622  0.00  0.00    +0.106 C 
ATOM      4  N   UNL     1       1.566   0.100  -7.119  0.00  0.00    -0.301 N 
ATOM      5  C   UNL     1       2.360   0.951  -6.222  0.00  0.00    +0.106 C 
ATOM      6  C   UNL     1       2.614   0.191  -4.917  0.00  0.00    +0.003 C 
ATOM      7  C   UNL     1       1.987  -0.156  -8.373  0.00  0.00    +0.219 C 
ATOM      8  O   UNL     1       1.357  -0.913  -9.082  0.00  0.00    -0.275 OA
ENDROOT
BRANCH   7   9
ATOM      9  C   UNL     1       3.240   0.497  -8.896  0.00  0.00    +0.075 C 
ATOM     10  C   UNL     1       3.008   2.002  -9.041  0.00  0.00    +0.013 C 
ATOM     11  C   UNL     1       4.281   2.666  -9.571  0.00  0.00    +0.001 C 
ATOM     12  C   UNL     1       4.635   2.071 -10.936  0.00  0.00    +0.000 C 
ATOM     13  C   UNL     1       4.867   0.566 -10.791  0.00  0.00    +0.001 C 
ATOM     14  C   UNL     1       3.595  -0.098 -10.260  0.00  0.00    +0.013 C 
ENDBRANCH   7   9
BRANCH   1  15
ATOM     15  N   UNL     1       1.514  -0.967  -3.060  0.00  0.00    +0.384 N 
ATOM     16  H   UNL     1       2.043  -0.372  -2.441  0.00  0.00    -0.085 HD
ATOM     17  H   UNL     1       2.032  -1.815  -3.236  0.00  0.00    -0.085 HD
BRANCH  15  18
ATOM     18  C   UNL     1       0.226  -1.300  -2.437  0.00  0.00    -0.039 C 
BRANCH  18  21
ATOM     19  C   UNL     1       0.543   0.055   0.409  0.00  0.00    +0.068 C 
ATOM     20  C   UNL     1       0.609  -1.423   0.122  0.00  0.00    +0.065 A 
ATOM     21  C   UNL     1       0.469  -2.019  -1.135  0.00  0.00    +0.019 A 
ATOM     22  C   UNL     1       0.591  -3.364  -0.973  0.00  0.00    +0.214 A 
ATOM     23  N   UNL     1       0.800  -3.600   0.341  0.00  0.00    -0.236 N 
ATOM     24  N   UNL     1       0.813  -2.367   1.004  0.00  0.00    -0.173 NA
ATOM     25  C   UNL     1       0.987  -4.914   0.961  0.00  0.00    +0.176 C 
BRANCH  22  26
ATOM     26  O   UNL     1       0.515  -4.299  -1.954  0.00  0.00    -0.480 OA
ATOM     27  C   UNL     1      -0.782  -4.810  -2.265  0.00  0.00    +0.279 C 
ENDBRANCH  22  26
ENDBRANCH  18  21
ENDBRANCH  15  18
ENDBRANCH   1  15
TORSDOF 5
