REMARK  Name = ZINC10677631
REMARK  7 active torsions:
REMARK  status: ('A' for Active; 'I' for Inactive)
REMARK    1  A    between atoms: C_4  and  C_7
REMARK    2  A    between atoms: C_7  and  C_9
REMARK    3  A    between atoms: C_7  and  N_12
REMARK    4  A    between atoms: N_12  and  S_13
REMARK    5  A    between atoms: S_13  and  C_16
REMARK    6  A    between atoms: C_19  and  O_22
REMARK    7  A    between atoms: O_22  and  C_23
REMARK                            x       y       z     vdW  Elec       q    Type
REMARK                         _______ _______ _______ _____ _____    ______ ____
ROOT
ATOM      1  S   UNL     1       1.421   0.811   3.886  0.00  0.00    +0.059 S 
ATOM      2  O   UNL     1       0.656  -0.046   4.722  0.00  0.00    -0.153 OA
ATOM      3  O   UNL     1       2.786   1.111   4.148  0.00  0.00    -0.153 OA
ENDROOT
BRANCH   1   4
ATOM      4  C   UNL     1       0.569   2.352   3.830  0.00  0.00    +0.105 A 
ATOM      5  C   UNL     1       1.276   3.526   3.647  0.00  0.00    +0.032 A 
ATOM      6  C   UNL     1       0.610   4.735   3.597  0.00  0.00    +0.048 A 
ATOM      7  C   UNL     1      -0.769   4.772   3.742  0.00  0.00    +0.130 A 
ATOM      8  C   UNL     1      -1.476   3.593   3.932  0.00  0.00    +0.048 A 
ATOM      9  C   UNL     1      -0.806   2.386   3.975  0.00  0.00    +0.032 A 
BRANCH   7  10
ATOM     10  O   UNL     1      -1.427   5.960   3.699  0.00  0.00    -0.406 OA
BRANCH  10  11
ATOM     11  C   UNL     1      -0.634   7.133   3.501  0.00  0.00    +0.575 C 
ATOM     12  F   UNL     1       0.047   7.036   2.283  0.00  0.00    -0.133 F 
ATOM     13  F   UNL     1      -1.465   8.259   3.482  0.00  0.00    -0.133 F 
ATOM     14  F   UNL     1       0.290   7.253   4.544  0.00  0.00    -0.133 F 
ENDBRANCH  10  11
ENDBRANCH   7  10
ENDBRANCH   1   4
BRANCH   1  15
ATOM     15  N   UNL     1       1.363   0.164   2.363  0.00  0.00    -0.182 NA
ATOM     16  H   UNL     1       0.894  -0.672   2.209  0.00  0.00    +0.149 HD
BRANCH  15  17
ATOM     17  C   UNL     1       2.018   0.852   1.249  0.00  0.00    +0.109 C 
BRANCH  17  21
ATOM     18  C   UNL     1       5.875  -0.860   0.588  0.00  0.00    +0.000 A 
ATOM     19  C   UNL     1       5.702   0.508   0.497  0.00  0.00    +0.000 A 
ATOM     20  C   UNL     1       4.454   1.063   0.711  0.00  0.00    +0.005 A 
ATOM     21  C   UNL     1       3.379   0.248   1.015  0.00  0.00    -0.029 A 
ATOM     22  C   UNL     1       3.553  -1.120   1.111  0.00  0.00    +0.005 A 
ATOM     23  C   UNL     1       4.801  -1.674   0.892  0.00  0.00    +0.000 A 
ENDBRANCH  17  21
BRANCH  17  24
ATOM     24  C   UNL     1       1.169   0.700  -0.015  0.00  0.00    +0.012 C 
ATOM     25  C   UNL     1      -0.207   1.369  -0.026  0.00  0.00    +0.006 C 
ATOM     26  C   UNL     1      -0.097  -0.153   0.083  0.00  0.00    +0.006 C 
ENDBRANCH  17  24
ENDBRANCH  15  17
ENDBRANCH   1  15
TORSDOF 7
