REMARK  Name = ZINC03977853
REMARK  8 active torsions:
REMARK  status: ('A' for Active; 'I' for Inactive)
REMARK    1  A    between atoms: C_1  and  C_2
REMARK    2  A    between atoms: C_16  and  O_36
REMARK    3  A    between atoms: C_19  and  C_35
REMARK    4  A    between atoms: C_25  and  C_31
REMARK    5  A    between atoms: C_27  and  C_29
REMARK    6  A    between atoms: C_27  and  C_30
REMARK    7  A    between atoms: C_31  and  C_33
REMARK    8  A    between atoms: C_33  and  O_34
REMARK                            x       y       z     vdW  Elec       q    Type
REMARK                         _______ _______ _______ _____ _____    ______ ____
ROOT
ATOM      1  C   UNL     1      -0.276   1.606  -0.342  0.00  0.00    +0.016 C 
ATOM      2  C   UNL     1      -0.190   0.081  -0.200  0.00  0.00    -0.002 C 
ATOM      3  C   UNL     1      -1.590  -0.520  -0.261  0.00  0.00    +0.019 C 
ATOM      4  C   UNL     1      -2.411  -0.117   0.968  0.00  0.00    +0.080 C 
ATOM      5  C   UNL     1      -1.676  -0.551   2.211  0.00  0.00    +0.156 C 
ATOM      6  O   UNL     1      -2.288  -0.907   3.193  0.00  0.00    -0.293 OA
ATOM      7  C   UNL     1      -0.214  -0.539   2.213  0.00  0.00    +0.049 C 
ATOM      8  C   UNL     1       0.470  -0.240   1.116  0.00  0.00    -0.027 C 
ATOM      9  C   UNL     1       1.981  -0.208   1.157  0.00  0.00    +0.193 C 
ATOM     10  C   UNL     1       2.509  -1.290   0.230  0.00  0.00    +0.045 C 
ATOM     11  C   UNL     1       1.518  -1.655  -0.876  0.00  0.00    +0.002 C 
ATOM     12  C   UNL     1       0.681  -0.475  -1.336  0.00  0.00    +0.031 C 
ATOM     13  C   UNL     1      -0.232  -0.901  -2.489  0.00  0.00    +0.119 C 
ATOM     14  C   UNL     1       0.601  -1.410  -3.661  0.00  0.00    +0.042 C 
ATOM     15  C   UNL     1       1.537  -2.529  -3.281  0.00  0.00    +0.012 C 
ATOM     16  C   UNL     1       2.353  -2.242  -2.020  0.00  0.00    +0.004 C 
ATOM     17  C   UNL     1       2.826  -3.650  -1.568  0.00  0.00    +0.039 C 
ATOM     18  C   UNL     1       1.734  -4.631  -2.032  0.00  0.00    +0.162 C 
ATOM     19  C   UNL     1       0.860  -3.884  -3.069  0.00  0.00    +0.164 C 
ATOM     20  O   UNL     1      -0.420  -3.741  -2.436  0.00  0.00    -0.332 OA
ATOM     21  C   UNL     1      -0.485  -4.763  -1.422  0.00  0.00    +0.166 C 
ATOM     22  O   UNL     1       0.858  -4.908  -0.924  0.00  0.00    -0.343 OA
ATOM     23  C   UNL     1      -0.991  -6.088  -2.000  0.00  0.00    +0.074 C 
ATOM     24  C   UNL     1      -1.417  -4.326  -0.283  0.00  0.00    +0.074 C 
ATOM     25  C   UNL     1       2.535  -2.697  -4.448  0.00  0.00    +0.015 C 
ATOM     26  F   UNL     1       2.418  -0.452   2.462  0.00  0.00    -0.241 F 
ENDROOT
BRANCH  19  27
ATOM     27  C   UNL     1       0.771  -4.642  -4.376  0.00  0.00    +0.193 C 
ATOM     28  O   UNL     1       1.646  -5.414  -4.686  0.00  0.00    -0.292 OA
BRANCH  27  29
ATOM     29  C   UNL     1      -0.409  -4.434  -5.290  0.00  0.00    +0.233 C 
BRANCH  29  30
ATOM     30  O   UNL     1      -0.243  -5.223  -6.469  0.00  0.00    -0.387 OA
ATOM     31  H   UNL     1      -0.968  -5.138  -7.104  0.00  0.00    +0.210 HD
ENDBRANCH  29  30
ENDBRANCH  27  29
ENDBRANCH  19  27
BRANCH  13  32
ATOM     32  O   UNL     1      -0.984   0.230  -2.954  0.00  0.00    -0.391 OA
ATOM     33  H   UNL     1      -1.584   0.029  -3.686  0.00  0.00    +0.210 HD
ENDBRANCH  13  32
TORSDOF 4
