REMARK  Name = ZINC21882616
REMARK  7 active torsions:
REMARK  status: ('A' for Active; 'I' for Inactive)
REMARK    1  A    between atoms: C_1  and  C_2
REMARK    2  A    between atoms: C_2  and  C_3
REMARK    3  A    between atoms: C_2  and  C_4
REMARK    4  A    between atoms: C_2  and  C_5
REMARK    5  A    between atoms: C_18  and  C_20
REMARK    6  A    between atoms: C_20  and  C_21
REMARK    7  A    between atoms: C_21  and  C_22
REMARK                            x       y       z     vdW  Elec       q    Type
REMARK                         _______ _______ _______ _____ _____    ______ ____
ROOT
ATOM      1  C   UNL     1       0.718  -0.497  -1.257  0.00  0.00    -0.000 C 
ATOM      2  C   UNL     1       0.748  -2.029  -1.264  0.00  0.00    +0.009 C 
ATOM      3  C   UNL     1       1.237  -2.532  -2.621  0.00  0.00    +0.037 C 
ATOM      4  C   UNL     1       2.560  -1.848  -2.958  0.00  0.00    -0.023 A 
ATOM      5  C   UNL     1       2.925  -0.709  -2.325  0.00  0.00    -0.004 A 
ATOM      6  S   UNL     1       4.501  -0.277  -3.019  0.00  0.00    -0.073 S 
ATOM      7  C   UNL     1       4.665  -1.619  -4.153  0.00  0.00    +0.116 A 
ATOM      8  C   UNL     1       3.482  -2.365  -3.954  0.00  0.00    +0.075 A 
ATOM      9  C   UNL     1       3.315  -3.548  -4.749  0.00  0.00    +0.260 A 
ATOM     10  O   UNL     1       2.330  -4.260  -4.654  0.00  0.00    -0.267 OA
ATOM     11  N   UNL     1       4.322  -3.821  -5.613  0.00  0.00    -0.310 N 
ATOM     12  H   UNL     1       4.267  -4.712  -6.257  0.00  0.00    +0.170 HD
ATOM     13  C   UNL     1       5.424  -3.043  -5.734  0.00  0.00    +0.111 A 
ATOM     14  N   UNL     1       5.613  -1.953  -5.024  0.00  0.00    -0.227 NA
ATOM     15  C   UNL     1       2.162   0.025  -1.267  0.00  0.00    +0.046 C 
ENDROOT
BRANCH   1  17
ATOM     16  C   UNL     1      -0.019   1.526   0.010  0.00  0.00    +0.011 C 
ATOM     17  C   UNL     1       0.002  -0.004   0.002  0.00  0.00    -0.035 C 
ATOM     18  C   UNL     1       0.742  -0.511   1.242  0.00  0.00    +0.011 C 
ATOM     19  C   UNL     1      -1.433  -0.534   0.013  0.00  0.00    +0.011 C 
ENDBRANCH   1  17
BRANCH  13  20
ATOM     20  C   UNL     1       6.481  -3.444  -6.730  0.00  0.00    +0.083 C 
BRANCH  20  21
ATOM     21  C   UNL     1       7.625  -2.428  -6.697  0.00  0.00    +0.103 C 
BRANCH  21  22
ATOM     22  C   UNL     1       8.682  -2.830  -7.693  0.00  0.00    +0.216 C 
ATOM     23  O   UNL     1       8.536  -3.830  -8.363  0.00  0.00    -0.276 OA
ATOM     24  N   UNL     1       9.791  -2.077  -7.839  0.00  0.00    -0.298 N 
ATOM     25  C   UNL     1       9.986  -0.857  -7.041  0.00  0.00    +0.126 C 
ATOM     26  C   UNL     1      11.373  -0.927  -6.384  0.00  0.00    +0.125 C 
ATOM     27  N   UNL     1      12.388  -1.159  -7.420  0.00  0.00    -0.314 N 
ATOM     28  C   UNL     1      12.187  -2.455  -8.083  0.00  0.00    +0.125 C 
ATOM     29  C   UNL     1      10.835  -2.451  -8.805  0.00  0.00    +0.126 C 
ATOM     30  C   UNL     1      13.671  -1.064  -6.892  0.00  0.00    +0.099 A 
ATOM     31  C   UNL     1      14.056   0.093  -6.223  0.00  0.00    +0.042 A 
ATOM     32  C   UNL     1      15.335   0.174  -5.702  0.00  0.00    +0.005 A 
ATOM     33  C   UNL     1      16.188  -0.909  -5.869  0.00  0.00    +0.018 A 
ATOM     34  C   UNL     1      15.740  -2.026  -6.544  0.00  0.00    +0.084 A 
ATOM     35  N   UNL     1      14.512  -2.078  -7.026  0.00  0.00    -0.350 N 
ATOM     36  H   UNL     1      14.194  -2.991  -7.548  0.00  0.00    +0.166 HD
ENDBRANCH  21  22
ENDBRANCH  20  21
ENDBRANCH  13  20
TORSDOF 4
