REMARK  Name = ZINC10002104
REMARK  14 active torsions:
REMARK  status: ('A' for Active; 'I' for Inactive)
REMARK    1  A    between atoms: C_1  and  C_2
REMARK    2  A    between atoms: C_2  and  C_3
REMARK    3  A    between atoms: C_6  and  N_9
REMARK    4  A    between atoms: C_10  and  C_12
REMARK    5  A    between atoms: C_12  and  S_13
REMARK    6  A    between atoms: S_13  and  C_14
REMARK    7  A    between atoms: C_17  and  C_21
REMARK    8  A    between atoms: N_18  and  C_19
REMARK    9  A    between atoms: C_19  and  C_20
REMARK   10  A    between atoms: C_21  and  C_23
REMARK   11  A    between atoms: C_21  and  N_26
REMARK   12  A    between atoms: C_23  and  C_24
REMARK   13  A    between atoms: C_23  and  C_25
REMARK   14  A    between atoms: C_27  and  C_29
REMARK                            x       y       z     vdW  Elec       q    Type
REMARK                         _______ _______ _______ _____ _____    ______ ____
ROOT
ATOM      1  C   UNL     1      -4.191   1.743   4.758  0.00  0.00    +0.192 A 
ATOM      2  N   UNL     1      -4.267   2.946   4.237  0.00  0.00    -0.122 NA
ATOM      3  N   UNL     1      -3.710   2.956   3.079  0.00  0.00    -0.132 NA
ATOM      4  C   UNL     1      -3.251   1.770   2.793  0.00  0.00    +0.155 A 
ATOM      5  N   UNL     1      -3.545   0.954   3.850  0.00  0.00    -0.305 N 
ENDROOT
BRANCH   5   6
ATOM      6  C   UNL     1      -3.230  -0.470   3.982  0.00  0.00    +0.122 C 
ATOM      7  C   UNL     1      -1.890  -0.631   4.703  0.00  0.00    +0.027 C 
ENDBRANCH   5   6
BRANCH   1   8
ATOM      8  S   UNL     1      -4.812   1.241   6.329  0.00  0.00    -0.077 S 
BRANCH   8   9
ATOM      9  C   UNL     1      -5.514   2.807   6.904  0.00  0.00    +0.173 C 
BRANCH   9  11
ATOM     10  N   UNL     1      -6.706   3.650   8.901  0.00  0.00    -0.285 N 
ATOM     11  C   UNL     1      -6.121   2.613   8.271  0.00  0.00    +0.227 C 
ATOM     12  O   UNL     1      -6.082   1.524   8.802  0.00  0.00    -0.275 OA
ATOM     13  H   UNL     1      -6.671   4.537   8.511  0.00  0.00    +0.155 HD
BRANCH  10  17
ATOM     14  C   UNL     1      -8.663   3.046  12.529  0.00  0.00    -0.048 A 
ATOM     15  C   UNL     1      -7.524   2.322  12.231  0.00  0.00    +0.005 A 
ATOM     16  C   UNL     1      -6.872   2.520  11.029  0.00  0.00    +0.023 A 
ATOM     17  C   UNL     1      -7.363   3.447  10.120  0.00  0.00    +0.033 A 
ATOM     18  C   UNL     1      -8.505   4.177  10.424  0.00  0.00    +0.023 A 
ATOM     19  C   UNL     1      -9.155   3.970  11.625  0.00  0.00    +0.005 A 
BRANCH  14  21
ATOM     20  C   UNL     1      -8.800   3.780  14.894  0.00  0.00    +0.009 C 
ATOM     21  C   UNL     1      -9.371   2.828  13.841  0.00  0.00    +0.032 C 
ENDBRANCH  14  21
ENDBRANCH  10  17
ENDBRANCH   9  11
ENDBRANCH   8   9
ENDBRANCH   1   8
BRANCH   4  22
ATOM     22  C   UNL     1      -2.534   1.371   1.529  0.00  0.00    +0.144 C 
BRANCH  22  23
ATOM     23  N   UNL     1      -3.310   1.812   0.367  0.00  0.00    -0.301 N 
ATOM     24  C   UNL     1      -3.177   1.175  -0.813  0.00  0.00    +0.245 C 
ATOM     25  O   UNL     1      -2.413   0.235  -0.913  0.00  0.00    -0.270 OA
ATOM     26  H   UNL     1      -3.920   2.562   0.448  0.00  0.00    +0.150 HD
BRANCH  24  27
ATOM     27  C   UNL     1      -3.959   1.619  -1.983  0.00  0.00    +0.040 A 
ATOM     28  C   UNL     1      -4.841   2.696  -1.868  0.00  0.00    +0.017 A 
ATOM     29  C   UNL     1      -5.566   3.112  -2.963  0.00  0.00    +0.050 A 
ATOM     30  C   UNL     1      -5.432   2.458  -4.181  0.00  0.00    +0.166 A 
ATOM     31  C   UNL     1      -4.556   1.379  -4.301  0.00  0.00    +0.167 A 
ATOM     32  C   UNL     1      -3.822   0.960  -3.208  0.00  0.00    +0.062 A 
ATOM     33  O   UNL     1      -4.608   0.917  -5.585  0.00  0.00    -0.453 OA
ATOM     34  C   UNL     1      -5.821   1.459  -6.138  0.00  0.00    +0.466 C 
ATOM     35  O   UNL     1      -6.029   2.670  -5.388  0.00  0.00    -0.453 OA
ENDBRANCH  24  27
ENDBRANCH  22  23
BRANCH  22  36
ATOM     36  C   UNL     1      -1.152   2.027   1.498  0.00  0.00    +0.011 C 
ATOM     37  C   UNL     1      -0.462   1.699   0.172  0.00  0.00    +0.009 C 
ATOM     38  C   UNL     1      -0.308   1.494   2.658  0.00  0.00    +0.009 C 
ENDBRANCH  22  36
ENDBRANCH   4  22
TORSDOF 10
