REMARK  Name = ZINC11790203
REMARK  9 active torsions:
REMARK  status: ('A' for Active; 'I' for Inactive)
REMARK    1  A    between atoms: C_1  and  C_2
REMARK    2  A    between atoms: C_9  and  O_13
REMARK    3  A    between atoms: O_13  and  C_14
REMARK    4  A    between atoms: C_15  and  C_16
REMARK    5  A    between atoms: C_15  and  N_54
REMARK    6  A    between atoms: C_16  and  C_17
REMARK    7  A    between atoms: N_19  and  C_20
REMARK    8  A    between atoms: C_20  and  C_22
REMARK    9  A    between atoms: C_20  and  C_28
REMARK                            x       y       z     vdW  Elec       q    Type
REMARK                         _______ _______ _______ _____ _____    ______ ____
ROOT
ATOM      1  C   UNL     1      -2.337  -2.721  -1.093  0.00  0.00    -0.069 C 
ENDROOT
BRANCH   1  13
ATOM      2  C   UNL     1      -5.218  -6.635  -1.418  0.00  0.00    +0.050 C 
ATOM      3  C   UNL     1      -3.773  -6.207  -1.153  0.00  0.00    +0.154 C 
ATOM      4  C   UNL     1      -3.630  -4.729  -1.444  0.00  0.00    -0.034 C 
ATOM      5  C   UNL     1      -1.254  -4.696  -1.976  0.00  0.00    -0.039 C 
ATOM      6  C   UNL     1      -0.780  -6.036  -1.445  0.00  0.00    -0.022 A 
ATOM      7  C   UNL     1       0.495  -6.166  -0.934  0.00  0.00    +0.009 A 
ATOM      8  C   UNL     1       0.936  -7.402  -0.498  0.00  0.00    +0.046 A 
ATOM      9  C   UNL     1       0.098  -8.506  -0.576  0.00  0.00    +0.124 A 
ATOM     10  C   UNL     1      -1.186  -8.370  -1.080  0.00  0.00    +0.091 A 
ATOM     11  C   UNL     1      -1.627  -7.127  -1.506  0.00  0.00    +0.126 A 
ATOM     12  O   UNL     1      -2.894  -6.977  -1.982  0.00  0.00    -0.491 OA
ATOM     13  N   UNL     1      -2.306  -4.192  -1.063  0.00  0.00    +0.385 N 
ATOM     14  H   UNL     1      -2.088  -4.500  -0.108  0.00  0.00    -0.081 HD
BRANCH   9  15
ATOM     15  O   UNL     1       0.538  -9.722  -0.157  0.00  0.00    -0.495 OA
ATOM     16  C   UNL     1       1.872  -9.790   0.351  0.00  0.00    +0.277 C 
ENDBRANCH   9  15
ENDBRANCH   1  13
BRANCH   1  17
ATOM     17  C   UNL     1      -1.031  -2.196  -0.493  0.00  0.00    +0.077 C 
BRANCH  17  18
ATOM     18  C   UNL     1      -1.051  -0.690  -0.485  0.00  0.00    +0.212 C 
ATOM     19  O   UNL     1      -2.015  -0.094  -0.916  0.00  0.00    -0.276 OA
ATOM     20  N   UNL     1       0.002  -0.004   0.002  0.00  0.00    -0.301 N 
ATOM     21  H   UNL     1       0.773  -0.481   0.347  0.00  0.00    +0.150 HD
BRANCH  20  22
ATOM     22  C   UNL     1      -0.018   1.461   0.010  0.00  0.00    +0.209 C 
BRANCH  22  23
ATOM     23  C   UNL     1       1.396   1.982  -0.001  0.00  0.00    -0.001 A 
ATOM     24  C   UNL     1       1.732   3.086  -0.771  0.00  0.00    +0.009 A 
ATOM     25  C   UNL     1       3.043   3.533  -0.746  0.00  0.00    +0.020 A 
ATOM     26  C   UNL     1       3.969   2.864   0.032  0.00  0.00    +0.111 A 
ATOM     27  N   UNL     1       3.615   1.815   0.748  0.00  0.00    -0.263 NA
ATOM     28  C   UNL     1       2.376   1.364   0.753  0.00  0.00    +0.116 A 
ENDBRANCH  22  23
BRANCH  22  29
ATOM     29  C   UNL     1      -0.734   1.954   1.269  0.00  0.00    +0.412 C 
ATOM     30  F   UNL     1      -0.057   1.491   2.402  0.00  0.00    -0.168 F 
ATOM     31  F   UNL     1      -0.753   3.353   1.277  0.00  0.00    -0.168 F 
ATOM     32  F   UNL     1      -2.046   1.470   1.279  0.00  0.00    -0.168 F 
ENDBRANCH  22  29
ENDBRANCH  20  22
ENDBRANCH  17  18
ENDBRANCH   1  17
TORSDOF 7
