REMARK  Name = ZINC13506968
REMARK  10 active torsions:
REMARK  status: ('A' for Active; 'I' for Inactive)
REMARK    1  A    between atoms: C_1  and  O_2
REMARK    2  A    between atoms: O_2  and  C_3
REMARK    3  A    between atoms: C_7  and  N_9
REMARK    4  A    between atoms: N_9  and  C_10
REMARK    5  A    between atoms: C_10  and  C_12
REMARK    6  A    between atoms: C_10  and  C_19
REMARK    7  A    between atoms: N_21  and  C_22
REMARK    8  A    between atoms: C_27  and  C_29
REMARK    9  A    between atoms: C_29  and  N_30
REMARK   10  A    between atoms: C_31  and  C_33
REMARK                            x       y       z     vdW  Elec       q    Type
REMARK                         _______ _______ _______ _____ _____    ______ ____
ROOT
ATOM      1  N   UNL     1       0.042   5.108   0.219  0.00  0.00    -0.254 N 
ATOM      2  C   UNL     1      -1.181   5.654   0.072  0.00  0.00    +0.238 C 
ATOM      3  O   UNL     1      -1.292   6.829  -0.208  0.00  0.00    -0.274 OA
ENDROOT
BRANCH   1   8
ATOM      4  C   UNL     1      -0.145   1.474  -0.333  0.00  0.00    +0.122 A 
ATOM      5  C   UNL     1       0.436   1.003   0.836  0.00  0.00    +0.046 A 
ATOM      6  C   UNL     1       0.890   1.893   1.791  0.00  0.00    +0.005 A 
ATOM      7  C   UNL     1       0.761   3.253   1.589  0.00  0.00    +0.024 A 
ATOM      8  C   UNL     1       0.174   3.730   0.423  0.00  0.00    +0.041 A 
ATOM      9  C   UNL     1      -0.282   2.838  -0.537  0.00  0.00    +0.069 A 
BRANCH   4  11
ATOM     10  C   UNL     1      -0.418  -0.793  -0.995  0.00  0.00    +0.277 C 
ATOM     11  O   UNL     1      -0.586   0.598  -1.274  0.00  0.00    -0.495 OA
ENDBRANCH   4  11
ENDBRANCH   1   8
BRANCH   1  12
ATOM     12  C   UNL     1       1.234   5.958   0.164  0.00  0.00    +0.200 C 
BRANCH  12  13
ATOM     13  C   UNL     1       1.365   6.723   1.455  0.00  0.00    +0.017 A 
ATOM     14  C   UNL     1       0.725   6.273   2.594  0.00  0.00    +0.009 A 
ATOM     15  C   UNL     1       0.850   6.971   3.780  0.00  0.00    +0.001 A 
ATOM     16  C   UNL     1       1.606   8.128   3.826  0.00  0.00    +0.003 A 
ATOM     17  C   UNL     1       2.243   8.584   2.688  0.00  0.00    +0.039 A 
ATOM     18  C   UNL     1       2.123   7.881   1.500  0.00  0.00    +0.129 A 
ATOM     19  F   UNL     1       2.745   8.326   0.386  0.00  0.00    -0.205 F 
ENDBRANCH  12  13
BRANCH  12  20
ATOM     20  C   UNL     1       2.456   5.098  -0.036  0.00  0.00    +0.239 C 
ATOM     21  O   UNL     1       2.332   3.918  -0.292  0.00  0.00    -0.273 OA
ATOM     22  N   UNL     1       3.686   5.639   0.069  0.00  0.00    -0.311 N 
ATOM     23  H   UNL     1       3.785   6.582   0.273  0.00  0.00    +0.149 HD
BRANCH  22  24
ATOM     24  C   UNL     1       4.873   4.802  -0.126  0.00  0.00    +0.073 C 
ATOM     25  C   UNL     1       5.284   4.149   1.210  0.00  0.00    +0.022 C 
ATOM     26  C   UNL     1       6.832   4.156   1.175  0.00  0.00    +0.002 C 
ATOM     27  C   UNL     1       7.153   5.515   0.504  0.00  0.00    +0.002 C 
ATOM     28  C   UNL     1       6.061   5.671  -0.575  0.00  0.00    +0.022 C 
ENDBRANCH  22  24
ENDBRANCH  12  20
ENDBRANCH   1  12
BRANCH   2  29
ATOM     29  C   UNL     1      -2.412   4.804   0.255  0.00  0.00    +0.201 C 
BRANCH  29  30
ATOM     30  N   UNL     1      -3.606   5.649   0.175  0.00  0.00    -0.300 N 
ATOM     31  C   UNL     1      -4.830   5.102   0.311  0.00  0.00    +0.280 C 
ATOM     32  O   UNL     1      -4.944   3.905   0.501  0.00  0.00    -0.267 OA
ATOM     33  H   UNL     1      -3.515   6.603   0.023  0.00  0.00    +0.150 HD
BRANCH  31  34
ATOM     34  C   UNL     1      -6.025   5.948   0.230  0.00  0.00    +0.189 A 
ATOM     35  C   UNL     1      -7.317   5.525   0.350  0.00  0.00    +0.054 A 
ATOM     36  C   UNL     1      -8.129   6.661   0.209  0.00  0.00    +0.042 A 
ATOM     37  C   UNL     1      -7.307   7.715   0.012  0.00  0.00    +0.196 A 
ATOM     38  O   UNL     1      -6.039   7.282   0.030  0.00  0.00    -0.458 OA
ENDBRANCH  31  34
ENDBRANCH  29  30
ENDBRANCH   2  29
TORSDOF 9
