REMARK  Name = ZINC39361799
REMARK  7 active torsions:
REMARK  status: ('A' for Active; 'I' for Inactive)
REMARK    1  A    between atoms: C_1  and  C_2
REMARK    2  A    between atoms: C_6  and  N_8
REMARK    3  A    between atoms: C_9  and  C_23
REMARK    4  A    between atoms: C_13  and  S_14
REMARK    5  A    between atoms: S_14  and  C_15
REMARK    6  A    between atoms: C_15  and  C_16
REMARK    7  A    between atoms: C_23  and  C_24
REMARK                            x       y       z     vdW  Elec       q    Type
REMARK                         _______ _______ _______ _____ _____    ______ ____
ROOT
ATOM      1  N   UNL     1       0.051  -2.797   2.391  0.00  0.00    -0.258 N 
ATOM      2  C   UNL     1      -0.026  -4.258   2.554  0.00  0.00    +0.187 C 
ATOM      3  N   UNL     1       0.030  -4.455   4.013  0.00  0.00    -0.246 N 
ATOM      4  N   UNL     1       0.130  -3.176   4.575  0.00  0.00    -0.162 NA
ATOM      5  C   UNL     1       0.148  -2.260   3.667  0.00  0.00    +0.180 C 
ATOM      6  H   UNL     1       0.003  -5.300   4.489  0.00  0.00    +0.170 HD
ENDROOT
BRANCH   1  12
ATOM      7  C   UNL     1       2.220  -1.649  -1.868  0.00  0.00    +0.044 C 
ATOM      8  C   UNL     1       1.075  -1.513  -0.897  0.00  0.00    -0.049 A 
ATOM      9  C   UNL     1       0.008  -0.687  -1.200  0.00  0.00    +0.003 A 
ATOM     10  C   UNL     1      -1.045  -0.560  -0.312  0.00  0.00    +0.002 A 
ATOM     11  C   UNL     1      -1.034  -1.258   0.880  0.00  0.00    +0.023 A 
ATOM     12  C   UNL     1       0.036  -2.089   1.186  0.00  0.00    +0.038 A 
ATOM     13  C   UNL     1       1.090  -2.219   0.289  0.00  0.00    +0.027 A 
ENDBRANCH   1  12
BRANCH   5  14
ATOM     14  S   UNL     1       0.273  -0.536   4.006  0.00  0.00    -0.084 S 
BRANCH  14  15
ATOM     15  C   UNL     1       0.367  -0.450   5.815  0.00  0.00    +0.112 C 
BRANCH  15  16
ATOM     16  C   UNL     1       0.479   0.990   6.244  0.00  0.00    -0.036 A 
ATOM     17  C   UNL     1       1.724   1.577   6.377  0.00  0.00    +0.004 A 
ATOM     18  C   UNL     1       1.828   2.898   6.771  0.00  0.00    +0.002 A 
ATOM     19  C   UNL     1       0.687   3.633   7.033  0.00  0.00    +0.020 A 
ATOM     20  C   UNL     1      -0.559   3.046   6.900  0.00  0.00    +0.041 A 
ATOM     21  C   UNL     1      -0.662   1.726   6.500  0.00  0.00    +0.024 A 
ATOM     22 CL   UNL     1      -1.992   3.969   7.228  0.00  0.00    -0.084 Cl
ENDBRANCH  15  16
ENDBRANCH  14  15
ENDBRANCH   5  14
BRANCH   2  23
ATOM     23  C   UNL     1      -1.343  -4.793   1.988  0.00  0.00    +0.097 C 
BRANCH  23  24
ATOM     24  C   UNL     1      -1.397  -6.288   2.168  0.00  0.00    +0.029 A 
ATOM     25  N   UNL     1      -0.812  -7.113   1.246  0.00  0.00    -0.311 N 
ATOM     26  C   UNL     1      -0.855  -8.449   1.397  0.00  0.00    +0.327 A 
ATOM     27  O   UNL     1      -0.329  -9.164   0.566  0.00  0.00    -0.247 OA
ATOM     28  N   UNL     1      -1.470  -9.007   2.457  0.00  0.00    -0.275 N 
ATOM     29  C   UNL     1      -2.058  -8.228   3.388  0.00  0.00    +0.254 A 
ATOM     30  O   UNL     1      -2.615  -8.732   4.346  0.00  0.00    -0.268 OA
ATOM     31  C   UNL     1      -2.017  -6.821   3.243  0.00  0.00    +0.091 A 
ATOM     32  H   UNL     1      -1.491  -9.972   2.550  0.00  0.00    +0.173 HD
ATOM     33  H   UNL     1      -0.364  -6.731   0.475  0.00  0.00    +0.170 HD
ENDBRANCH  23  24
ENDBRANCH   2  23
TORSDOF 6
