REMARK  Name = ZINC14994711
REMARK  9 active torsions:
REMARK  status: ('A' for Active; 'I' for Inactive)
REMARK    1  A    between atoms: C_1  and  O_2
REMARK    2  A    between atoms: O_2  and  C_3
REMARK    3  A    between atoms: C_6  and  C_9
REMARK    4  A    between atoms: C_9  and  C_14
REMARK    5  A    between atoms: N_16  and  C_17
REMARK    6  A    between atoms: C_17  and  C_18
REMARK    7  A    between atoms: C_23  and  C_28
REMARK    8  A    between atoms: C_31  and  O_34
REMARK    9  A    between atoms: O_34  and  C_35
REMARK                            x       y       z     vdW  Elec       q    Type
REMARK                         _______ _______ _______ _____ _____    ______ ____
ROOT
ATOM      1  C   UNL     1      -2.892  -4.994  -2.349  0.00  0.00    +0.149 C 
ENDROOT
BRANCH   1   2
ATOM      2  C   UNL     1      -4.291  -4.379  -2.286  0.00  0.00    +0.195 C 
ATOM      3  C   UNL     1      -5.239  -5.071  -3.294  0.00  0.00    +0.085 C 
ATOM      4  C   UNL     1      -6.552  -5.079  -2.534  0.00  0.00    -0.002 A 
ATOM      5  C   UNL     1      -7.850  -5.282  -2.940  0.00  0.00    +0.017 A 
ATOM      6  C   UNL     1      -8.888  -5.210  -2.011  0.00  0.00    +0.003 A 
ATOM      7  C   UNL     1      -8.597  -4.932  -0.676  0.00  0.00    +0.013 A 
ATOM      8  C   UNL     1      -7.294  -4.734  -0.278  0.00  0.00    +0.046 A 
ATOM      9  C   UNL     1      -6.254  -4.809  -1.203  0.00  0.00    +0.124 A 
ATOM     10  O   UNL     1      -4.913  -4.657  -1.021  0.00  0.00    -0.487 OA
BRANCH   6  11
ATOM     11  C   UNL     1     -10.291  -5.427  -2.440  0.00  0.00    +0.094 A 
ATOM     12  C   UNL     1     -11.338  -5.257  -1.528  0.00  0.00    +0.035 A 
ATOM     13  C   UNL     1     -12.630  -5.467  -1.978  0.00  0.00    +0.071 A 
ATOM     14  C   UNL     1     -12.807  -5.844  -3.308  0.00  0.00    +0.234 A 
ATOM     15  N   UNL     1     -11.756  -5.987  -4.100  0.00  0.00    -0.111 NA
ATOM     16  N   UNL     1     -10.557  -5.788  -3.688  0.00  0.00    -0.146 NA
BRANCH  14  17
ATOM     17  O   UNL     1     -14.056  -6.065  -3.790  0.00  0.00    -0.479 OA
ATOM     18  C   UNL     1     -14.162  -6.449  -5.163  0.00  0.00    +0.279 C 
ENDBRANCH  14  17
ENDBRANCH   6  11
ENDBRANCH   1   2
BRANCH   1  21
ATOM     19  C   UNL     1      -0.770  -4.798  -1.166  0.00  0.00    +0.224 C 
ATOM     20  O   UNL     1      -0.284  -5.571  -1.965  0.00  0.00    -0.275 OA
ATOM     21  N   UNL     1      -2.052  -4.405  -1.302  0.00  0.00    -0.311 N 
ATOM     22  H   UNL     1      -2.419  -3.733  -0.707  0.00  0.00    +0.149 HD
BRANCH  19  23
ATOM     23  C   UNL     1       0.060  -4.277  -0.021  0.00  0.00    +0.072 C 
ATOM     24  C   UNL     1      -0.650  -4.560   1.318  0.00  0.00    +0.021 C 
ATOM     25  C   UNL     1      -0.012  -5.882   1.814  0.00  0.00    +0.001 C 
ATOM     26  C   UNL     1       1.472  -5.722   1.401  0.00  0.00    +0.001 C 
ATOM     27  C   UNL     1       1.409  -5.016   0.031  0.00  0.00    +0.021 C 
BRANCH  23  31
ATOM     28  C   UNL     1       0.708  -0.077  -0.476  0.00  0.00    +0.120 A 
ATOM     29  C   UNL     1       0.043  -0.789  -1.465  0.00  0.00    +0.046 A 
ATOM     30  C   UNL     1      -0.159  -2.148  -1.318  0.00  0.00    +0.008 A 
ATOM     31  C   UNL     1       0.288  -2.796  -0.182  0.00  0.00    -0.032 A 
ATOM     32  C   UNL     1       0.946  -2.088   0.807  0.00  0.00    +0.008 A 
ATOM     33  C   UNL     1       1.157  -0.730   0.662  0.00  0.00    +0.046 A 
BRANCH  28  35
ATOM     34  C   UNL     1       0.425   1.864  -1.819  0.00  0.00    +0.277 C 
ATOM     35  O   UNL     1       0.914   1.258  -0.621  0.00  0.00    -0.495 OA
ENDBRANCH  28  35
ENDBRANCH  23  31
ENDBRANCH  19  23
ENDBRANCH   1  21
TORSDOF 7
