REMARK  Name = ZINC45443370
REMARK  13 active torsions:
REMARK  status: ('A' for Active; 'I' for Inactive)
REMARK    1  A    between atoms: C_1  and  C_2
REMARK    2  A    between atoms: C_2  and  C_3
REMARK    3  A    between atoms: C_3  and  C_33
REMARK    4  A    between atoms: N_6  and  N_10
REMARK    5  A    between atoms: C_11  and  C_13
REMARK    6  A    between atoms: C_13  and  S_14
REMARK    7  A    between atoms: S_14  and  C_15
REMARK    8  A    between atoms: C_18  and  C_27
REMARK    9  A    between atoms: N_19  and  C_20
REMARK   10  A    between atoms: C_27  and  C_29
REMARK   11  A    between atoms: C_27  and  N_30
REMARK   12  A    between atoms: N_30  and  C_31
REMARK   13  A    between atoms: N_30  and  C_32
REMARK                            x       y       z     vdW  Elec       q    Type
REMARK                         _______ _______ _______ _____ _____    ______ ____
ROOT
ATOM      1  C   UNL     1      -1.257  -7.065   5.681  0.00  0.00    +0.197 A 
ATOM      2  N   UNL     1      -2.157  -7.876   5.175  0.00  0.00    -0.122 NA
ATOM      3  N   UNL     1      -2.204  -8.961   5.861  0.00  0.00    -0.135 NA
ATOM      4  C   UNL     1      -1.344  -8.912   6.839  0.00  0.00    +0.125 A 
ATOM      5  N   UNL     1      -0.704  -7.704   6.757  0.00  0.00    -0.275 N 
ENDROOT
BRANCH   5   6
ATOM      6  C   UNL     1       0.306  -7.220   7.602  0.00  0.00    +0.050 A 
ATOM      7  C   UNL     1       1.544  -7.848   7.636  0.00  0.00    +0.028 A 
ATOM      8  C   UNL     1       2.537  -7.370   8.468  0.00  0.00    +0.022 A 
ATOM      9  C   UNL     1       2.299  -6.267   9.268  0.00  0.00    +0.041 A 
ATOM     10  C   UNL     1       1.066  -5.639   9.236  0.00  0.00    +0.022 A 
ATOM     11  C   UNL     1       0.072  -6.110   8.401  0.00  0.00    +0.028 A 
ATOM     12 CL   UNL     1       3.549  -5.669  10.315  0.00  0.00    -0.084 Cl
ENDBRANCH   5   6
BRANCH   4  13
ATOM     13  C   UNL     1      -1.095  -9.986   7.866  0.00  0.00    -0.003 C 
ATOM     14  C   UNL     1      -0.301 -11.127   7.228  0.00  0.00    -0.005 C 
BRANCH  13  15
ATOM     15  N   UNL     1      -2.381 -10.500   8.358  0.00  0.00    +0.382 N 
ATOM     16  C   UNL     1      -2.138 -11.547   9.359  0.00  0.00    -0.096 C 
ATOM     17  C   UNL     1      -3.144  -9.404   8.970  0.00  0.00    -0.096 C 
ATOM     18  H   UNL     1      -2.906 -10.886   7.587  0.00  0.00    -0.082 HD
ENDBRANCH  13  15
ENDBRANCH   4  13
BRANCH   1  19
ATOM     19  S   UNL     1      -0.835  -5.463   5.082  0.00  0.00    -0.076 S 
BRANCH  19  20
ATOM     20  C   UNL     1      -1.927  -5.227   3.653  0.00  0.00    +0.174 C 
BRANCH  20  22
ATOM     21  N   UNL     1      -2.365  -3.480   1.957  0.00  0.00    -0.223 N 
ATOM     22  C   UNL     1      -1.666  -3.875   3.039  0.00  0.00    +0.240 C 
ATOM     23  O   UNL     1      -0.826  -3.144   3.518  0.00  0.00    -0.273 OA
ATOM     24  H   UNL     1      -3.037  -4.065   1.574  0.00  0.00    +0.174 HD
BRANCH  21  28
ATOM     25  C   UNL     1      -1.433  -0.534   0.013  0.00  0.00    +0.111 C 
ATOM     26  C   UNL     1      -1.447  -2.033   0.236  0.00  0.00    +0.263 C 
ATOM     27  O   UNL     1      -0.952  -2.883  -0.472  0.00  0.00    -0.271 OA
ATOM     28  N   UNL     1      -2.123  -2.224   1.386  0.00  0.00    -0.137 N 
ATOM     29  C   UNL     1      -2.534  -1.066   1.915  0.00  0.00    +0.326 C 
ATOM     30  O   UNL     1      -3.163  -0.982   2.952  0.00  0.00    -0.251 OA
ATOM     31  N   UNL     1      -2.172  -0.004   1.172  0.00  0.00    -0.284 N 
ATOM     32  C   UNL     1      -2.148  -0.174  -1.291  0.00  0.00    +0.041 C 
ATOM     33  H   UNL     1      -2.361   0.928   1.363  0.00  0.00    +0.151 HD
BRANCH  25  35
ATOM     34  C   UNL     1      -0.019   1.526   0.010  0.00  0.00    +0.006 C 
ATOM     35  C   UNL     1       0.002  -0.004   0.002  0.00  0.00    +0.032 C 
ENDBRANCH  25  35
ENDBRANCH  21  28
ENDBRANCH  20  22
ENDBRANCH  19  20
ENDBRANCH   1  19
TORSDOF 8
