REMARK  Name = ZINC09860999
REMARK  7 active torsions:
REMARK  status: ('A' for Active; 'I' for Inactive)
REMARK    1  A    between atoms: C_4  and  C_7
REMARK    2  A    between atoms: C_13  and  C_21
REMARK    3  A    between atoms: C_15  and  C_19
REMARK    4  A    between atoms: C_16  and  N_18
REMARK    5  A    between atoms: C_24  and  O_27
REMARK    6  A    between atoms: O_27  and  C_28
REMARK    7  A    between atoms: C_28  and  C_30
REMARK                            x       y       z     vdW  Elec       q    Type
REMARK                         _______ _______ _______ _____ _____    ______ ____
ROOT
ATOM      1  C   UNL     1       3.682  -0.654  -0.005  0.00  0.00    +0.084 C 
ATOM      2  N   UNL     1       4.872  -0.123  -0.096  0.00  0.00    -0.150 NA
ATOM      3  N   UNL     1       5.883  -1.083  -0.075  0.00  0.00    -0.115 NA
ATOM      4  C   UNL     1       5.417  -2.270   0.087  0.00  0.00    +0.227 C 
ATOM      5  C   UNL     1       3.895  -2.149   0.056  0.00  0.00    +0.140 C 
ATOM      6  C   UNL     1       3.401  -2.717   1.392  0.00  0.00    +0.082 C 
ATOM      7  C   UNL     1       4.183  -3.962   1.715  0.00  0.00    +0.095 C 
ATOM      8  C   UNL     1       5.389  -4.261   1.189  0.00  0.00    +0.200 C 
ATOM      9  O   UNL     1       6.017  -3.464   0.283  0.00  0.00    -0.425 OA
ENDROOT
BRANCH   1  13
ATOM     10  C   UNL     1      -0.026   1.402   0.112  0.00  0.00    +0.000 A 
ATOM     11  C   UNL     1       1.128   2.040   0.531  0.00  0.00    +0.001 A 
ATOM     12  C   UNL     1       2.337   1.378   0.496  0.00  0.00    +0.010 A 
ATOM     13  C   UNL     1       2.395   0.059   0.036  0.00  0.00    -0.001 A 
ATOM     14  C   UNL     1       1.225  -0.579  -0.386  0.00  0.00    +0.010 A 
ATOM     15  C   UNL     1       0.023   0.096  -0.346  0.00  0.00    +0.001 A 
ENDBRANCH   1  13
BRANCH   6  16
ATOM     16  C   UNL     1       1.936  -3.053   1.286  0.00  0.00    -0.038 A 
ATOM     17  C   UNL     1       1.506  -3.981   0.354  0.00  0.00    +0.008 A 
ATOM     18  C   UNL     1       0.164  -4.290   0.254  0.00  0.00    +0.046 A 
ATOM     19  C   UNL     1      -0.754  -3.670   1.090  0.00  0.00    +0.132 A 
ATOM     20  C   UNL     1      -0.320  -2.740   2.024  0.00  0.00    +0.046 A 
ATOM     21  C   UNL     1       1.024  -2.438   2.123  0.00  0.00    +0.008 A 
BRANCH  19  22
ATOM     22  O   UNL     1      -2.075  -3.972   0.994  0.00  0.00    -0.422 OA
BRANCH  22  23
ATOM     23  C   UNL     1      -2.497  -5.140   1.517  0.00  0.00    +0.344 C 
ATOM     24  O   UNL     1      -1.723  -5.843   2.135  0.00  0.00    -0.245 OA
BRANCH  23  25
ATOM     25  C   UNL     1      -3.900  -5.566   1.338  0.00  0.00    +0.059 A 
ATOM     26  C   UNL     1      -4.791  -4.763   0.623  0.00  0.00    +0.015 A 
ATOM     27  C   UNL     1      -6.100  -5.167   0.460  0.00  0.00    +0.001 A 
ATOM     28  C   UNL     1      -6.530  -6.364   1.003  0.00  0.00    +0.000 A 
ATOM     29  C   UNL     1      -5.653  -7.164   1.714  0.00  0.00    +0.001 A 
ATOM     30  C   UNL     1      -4.340  -6.776   1.879  0.00  0.00    +0.015 A 
ENDBRANCH  23  25
ENDBRANCH  22  23
ENDBRANCH  19  22
ENDBRANCH   6  16
BRANCH   8  31
ATOM     31  N   UNL     1       6.007  -5.423   1.581  0.00  0.00    -0.328 N 
ATOM     32  H   UNL     1       5.576  -6.009   2.223  0.00  0.00    +0.145 HD
ATOM     33  H   UNL     1       6.874  -5.658   1.216  0.00  0.00    +0.145 HD
ENDBRANCH   8  31
BRANCH   7  34
ATOM     34  C   UNL     1       3.609  -4.891   2.642  0.00  0.00    +0.100 C 
ATOM     35  N   UNL     1       3.154  -5.627   3.377  0.00  0.00    -0.191 NA
ENDBRANCH   7  34
TORSDOF 7
