REMARK  Name = ZINC16758535
REMARK  8 active torsions:
REMARK  status: ('A' for Active; 'I' for Inactive)
REMARK    1  A    between atoms: C_1  and  C_2
REMARK    2  A    between atoms: N_13  and  C_30
REMARK    3  A    between atoms: C_14  and  S_16
REMARK    4  A    between atoms: S_16  and  C_17
REMARK    5  A    between atoms: C_17  and  C_18
REMARK    6  A    between atoms: C_21  and  C_27
REMARK    7  A    between atoms: C_23  and  N_24
REMARK    8  A    between atoms: C_30  and  C_31
REMARK                            x       y       z     vdW  Elec       q    Type
REMARK                         _______ _______ _______ _____ _____    ______ ____
ROOT
ATOM      1  C   UNL     1       8.970   1.364  -0.537  0.00  0.00    +0.008 C 
ATOM      2  C   UNL     1       7.465   1.184  -0.745  0.00  0.00    -0.009 C 
ATOM      3  C   UNL     1       6.698   2.128   0.185  0.00  0.00    +0.008 C 
ATOM      4  C   UNL     1       5.216   2.135  -0.189  0.00  0.00    +0.037 C 
ATOM      5  C   UNL     1       4.711   0.695  -0.226  0.00  0.00    -0.023 A 
ATOM      6  C   UNL     1       5.575  -0.335  -0.327  0.00  0.00    -0.004 A 
ATOM      7  S   UNL     1       4.559  -1.788  -0.334  0.00  0.00    -0.073 S 
ATOM      8  C   UNL     1       2.972  -1.004  -0.201  0.00  0.00    +0.117 A 
ATOM      9  C   UNL     1       3.287   0.364  -0.156  0.00  0.00    +0.076 A 
ATOM     10  C   UNL     1       2.173   1.257  -0.046  0.00  0.00    +0.263 A 
ATOM     11  O   UNL     1       2.350   2.462  -0.001  0.00  0.00    -0.267 OA
ATOM     12  N   UNL     1       0.929   0.747   0.005  0.00  0.00    -0.283 N 
ATOM     13  C   UNL     1       0.713  -0.600  -0.045  0.00  0.00    +0.173 A 
ATOM     14  N   UNL     1       1.720  -1.444  -0.146  0.00  0.00    -0.216 NA
ATOM     15  C   UNL     1       7.069  -0.262  -0.414  0.00  0.00    +0.046 C 
ENDROOT
BRANCH  13  16
ATOM     16  S   UNL     1      -0.935  -1.219   0.027  0.00  0.00    -0.083 S 
BRANCH  16  17
ATOM     17  C   UNL     1      -0.609  -2.996  -0.076  0.00  0.00    +0.114 C 
BRANCH  17  18
ATOM     18  C   UNL     1      -1.913  -3.750  -0.032  0.00  0.00    -0.007 A 
ATOM     19  C   UNL     1      -2.359  -4.284   1.164  0.00  0.00    +0.007 A 
ATOM     20  C   UNL     1      -3.554  -4.971   1.213  0.00  0.00    +0.013 A 
ATOM     21  C   UNL     1      -4.309  -5.136   0.050  0.00  0.00    +0.039 A 
ATOM     22  C   UNL     1      -3.850  -4.599  -1.154  0.00  0.00    +0.046 A 
ATOM     23  C   UNL     1      -2.655  -3.910  -1.188  0.00  0.00    +0.131 A 
BRANCH  21  24
ATOM     24  C   UNL     1      -5.588  -5.877   0.094  0.00  0.00    +0.242 C 
ATOM     25  O   UNL     1      -6.242  -6.019  -0.921  0.00  0.00    -0.270 OA
ATOM     26  N   UNL     1      -6.028  -6.393   1.258  0.00  0.00    -0.325 N 
ATOM     27  H   UNL     1      -5.505  -6.280   2.067  0.00  0.00    +0.145 HD
ATOM     28  H   UNL     1      -6.867  -6.879   1.286  0.00  0.00    +0.145 HD
ENDBRANCH  21  24
BRANCH  23  29
ATOM     29  N   UNL     1      -2.168  -3.340  -2.464  0.00  0.00    +0.057 N 
ATOM     30  O   UNL     1      -2.758  -3.578  -3.502  0.00  0.00    -0.126 OA
ATOM     31  O   UNL     1      -1.177  -2.632  -2.475  0.00  0.00    -0.126 OA
ENDBRANCH  23  29
ENDBRANCH  17  18
ENDBRANCH  16  17
ENDBRANCH  13  16
BRANCH  12  32
ATOM     32  C   UNL     1      -0.216   1.655   0.112  0.00  0.00    +0.154 C 
BRANCH  32  33
ATOM     33  C   UNL     1      -0.528   1.901   1.565  0.00  0.00    -0.013 C 
ATOM     34  C   UNL     1      -0.578   3.126   2.026  0.00  0.00    +0.005 C 
ENDBRANCH  32  33
ENDBRANCH  12  32
TORSDOF 7
