REMARK  Name = ZINC13080677
REMARK  9 active torsions:
REMARK  status: ('A' for Active; 'I' for Inactive)
REMARK    1  A    between atoms: C_1  and  C_2
REMARK    2  A    between atoms: C_7  and  N_8
REMARK    3  A    between atoms: C_9  and  C_11
REMARK    4  A    between atoms: C_11  and  S_12
REMARK    5  A    between atoms: S_12  and  C_13
REMARK    6  A    between atoms: C_14  and  C_32
REMARK    7  A    between atoms: C_15  and  C_27
REMARK    8  A    between atoms: C_21  and  C_25
REMARK    9  A    between atoms: C_21  and  C_26
REMARK                            x       y       z     vdW  Elec       q    Type
REMARK                         _______ _______ _______ _____ _____    ______ ____
ROOT
ATOM      1  C   UNL     1      -0.767  -3.053   1.187  0.00  0.00    +0.080 C 
ATOM      2  C   UNL     1      -1.144  -1.747   1.247  0.00  0.00    +0.072 C 
ATOM      3  C   UNL     1      -1.162  -0.890   0.016  0.00  0.00    +0.132 C 
ATOM      4  C   UNL     1      -1.153  -1.732  -1.234  0.00  0.00    +0.027 C 
ATOM      5  C   UNL     1      -0.782  -3.029  -1.196  0.00  0.00    +0.017 C 
ATOM      6  N   UNL     1      -0.403  -3.611  -0.017  0.00  0.00    -0.311 N 
ATOM      7  C   UNL     1      -0.777  -3.874  -2.446  0.00  0.00    +0.058 C 
ATOM      8  C   UNL     1      -0.479  -2.993  -3.661  0.00  0.00    -0.023 C 
ATOM      9  C   UNL     1      -1.543  -1.893  -3.736  0.00  0.00    +0.086 C 
ATOM     10  C   UNL     1      -1.543  -1.125  -2.442  0.00  0.00    +0.162 C 
ATOM     11  O   UNL     1      -1.887   0.040  -2.440  0.00  0.00    -0.292 OA
ATOM     12  C   UNL     1       0.906  -2.360  -3.510  0.00  0.00    +0.011 C 
ATOM     13  C   UNL     1      -0.521  -3.841  -4.934  0.00  0.00    +0.011 C 
ATOM     14  H   UNL     1       0.198  -4.532  -0.036  0.00  0.00    +0.152 HD
ENDROOT
BRANCH   3  15
ATOM     15  C   UNL     1       0.052   0.004   0.018  0.00  0.00    +0.117 A 
ATOM     16  C   UNL     1       0.039   1.349   0.029  0.00  0.00    +0.045 A 
ATOM     17  C   UNL     1       1.388   1.771   0.028  0.00  0.00    +0.041 A 
ATOM     18  C   UNL     1       2.145   0.659   0.018  0.00  0.00    +0.195 A 
ATOM     19  O   UNL     1       1.330  -0.408   0.012  0.00  0.00    -0.467 OA
ENDBRANCH   3  15
BRANCH   2  20
ATOM     20  C   UNL     1      -1.530  -1.183   2.505  0.00  0.00    +0.098 C 
ATOM     21  N   UNL     1      -1.837  -0.734   3.502  0.00  0.00    -0.191 NA
ENDBRANCH   2  20
BRANCH   1  22
ATOM     22  S   UNL     1      -0.746  -4.031   2.652  0.00  0.00    -0.100 S 
BRANCH  22  23
ATOM     23  C   UNL     1      -0.184  -5.609   1.969  0.00  0.00    +0.171 C 
BRANCH  23  25
ATOM     24  N   UNL     1       0.312  -7.886   2.797  0.00  0.00    -0.285 N 
ATOM     25  C   UNL     1      -0.088  -6.630   3.074  0.00  0.00    +0.227 C 
ATOM     26  O   UNL     1      -0.372  -6.320   4.211  0.00  0.00    -0.275 OA
ATOM     27  H   UNL     1       0.482  -8.193   1.755  0.00  0.00    +0.155 HD
BRANCH  24  34
ATOM     28  C   UNL     1       0.105 -10.662   2.204  0.00  0.00    +0.045 C 
ATOM     29  C   UNL     1       0.420 -10.165   3.591  0.00  0.00    -0.029 A 
ATOM     30  C   UNL     1       0.618 -11.066   4.620  0.00  0.00    +0.005 A 
ATOM     31  C   UNL     1       0.908 -10.611   5.893  0.00  0.00    +0.000 A 
ATOM     32  C   UNL     1       1.001  -9.253   6.141  0.00  0.00    +0.002 A 
ATOM     33  C   UNL     1       0.809  -8.348   5.116  0.00  0.00    +0.023 A 
ATOM     34  C   UNL     1       0.512  -8.801   3.837  0.00  0.00    +0.036 A 
ENDBRANCH  24  34
ENDBRANCH  23  25
ENDBRANCH  22  23
ENDBRANCH   1  22
TORSDOF 6
