REMARK  Name = ZINC30544970
REMARK  6 active torsions:
REMARK  status: ('A' for Active; 'I' for Inactive)
REMARK    1  A    between atoms: C_1  and  C_2
REMARK    2  A    between atoms: C_2  and  C_4
REMARK    3  A    between atoms: C_2  and  N_14
REMARK    4  A    between atoms: N_6  and  C_7
REMARK    5  A    between atoms: N_17  and  C_20
REMARK    6  A    between atoms: C_23  and  N_26
REMARK                            x       y       z     vdW  Elec       q    Type
REMARK                         _______ _______ _______ _____ _____    ______ ____
ROOT
ATOM      1  N   UNL     1       3.878  -4.531  -0.004  0.00  0.00    +0.389 N 
ATOM      2  C   UNL     1       4.602  -3.975  -1.156  0.00  0.00    -0.059 C 
ATOM      3  C   UNL     1       6.060  -4.440  -1.111  0.00  0.00    +0.086 C 
ATOM      4  N   UNL     1       6.104  -5.908  -1.123  0.00  0.00    -0.333 N 
ATOM      5  C   UNL     1       5.380  -6.464   0.028  0.00  0.00    +0.086 C 
ATOM      6  C   UNL     1       3.922  -6.000  -0.017  0.00  0.00    -0.059 C 
ATOM      7  H   UNL     1       4.378  -4.184   0.911  0.00  0.00    -0.081 HD
ENDROOT
BRANCH   4   8
ATOM      8  C   UNL     1       7.422  -6.369  -1.156  0.00  0.00    +0.030 A 
ATOM      9  C   UNL     1       7.882  -7.234  -0.170  0.00  0.00    +0.025 A 
ATOM     10  C   UNL     1       9.184  -7.692  -0.208  0.00  0.00    +0.034 A 
ATOM     11  C   UNL     1      10.034  -7.282  -1.219  0.00  0.00    +0.126 A 
ATOM     12  C   UNL     1       9.581  -6.417  -2.199  0.00  0.00    +0.034 A 
ATOM     13  C   UNL     1       8.278  -5.960  -2.170  0.00  0.00    +0.025 A 
BRANCH  11  14
ATOM     14  N   UNL     1      11.430  -7.771  -1.253  0.00  0.00    +0.056 N 
ATOM     15  O   UNL     1      12.180  -7.411  -2.144  0.00  0.00    -0.126 OA
ATOM     16  O   UNL     1      11.830  -8.533  -0.391  0.00  0.00    -0.126 OA
ENDBRANCH  11  14
ENDBRANCH   4   8
BRANCH   1  18
ATOM     17  C   UNL     1       1.667  -4.787  -1.025  0.00  0.00    -0.004 C 
ATOM     18  C   UNL     1       2.491  -4.047   0.029  0.00  0.00    +0.017 C 
BRANCH  18  19
ATOM     19  C   UNL     1       1.904  -4.299   1.394  0.00  0.00    +0.203 C 
ATOM     20  O   UNL     1       2.464  -5.048   2.166  0.00  0.00    -0.277 OA
ATOM     21  N   UNL     1       0.757  -3.691   1.757  0.00  0.00    -0.287 N 
ATOM     22  H   UNL     1       0.204  -3.081   1.028  0.00  0.00    +0.155 HD
BRANCH  21  23
ATOM     23  C   UNL     1       0.270  -3.837   3.061  0.00  0.00    +0.033 A 
ATOM     24  C   UNL     1       1.155  -3.959   4.124  0.00  0.00    +0.024 A 
ATOM     25  C   UNL     1       0.672  -4.103   5.410  0.00  0.00    +0.016 A 
ATOM     26  C   UNL     1      -0.692  -4.125   5.639  0.00  0.00    +0.013 A 
ATOM     27  C   UNL     1      -1.576  -4.003   4.582  0.00  0.00    +0.016 A 
ATOM     28  C   UNL     1      -1.098  -3.859   3.294  0.00  0.00    +0.024 A 
ATOM     29  I   UNL     1      -1.421  -4.344   7.591  0.00  0.00    -0.044 I 
ENDBRANCH  21  23
ENDBRANCH  18  19
ENDBRANCH   1  18
TORSDOF 5
