REMARK  Name = ZINC35782621
REMARK  17 active torsions:
REMARK  status: ('A' for Active; 'I' for Inactive)
REMARK    1  A    between atoms: C_1  and  C_2
REMARK    2  A    between atoms: C_2  and  C_3
REMARK    3  A    between atoms: C_4  and  C_22
REMARK    4  A    between atoms: C_5  and  O_14
REMARK    5  A    between atoms: N_6  and  C_8
REMARK    6  A    between atoms: O_14  and  C_15
REMARK    7  A    between atoms: C_22  and  N_23
REMARK    8  A    between atoms: N_23  and  C_24
REMARK    9  A    between atoms: N_23  and  C_31
REMARK   10  A    between atoms: C_24  and  C_25
REMARK   11  A    between atoms: C_25  and  C_27
REMARK   12  A    between atoms: C_25  and  O_30
REMARK   13  A    between atoms: C_27  and  C_28
REMARK   14  A    between atoms: C_27  and  C_29
REMARK   15  A    between atoms: C_31  and  C_32
REMARK   16  A    between atoms: C_32  and  C_33
REMARK   17  A    between atoms: C_32  and  C_34
REMARK                            x       y       z     vdW  Elec       q    Type
REMARK                         _______ _______ _______ _____ _____    ______ ____
ROOT
ATOM      1  C   UNL     1       0.431  -0.386   1.592  0.00  0.00    +0.068 A 
ATOM      2  C   UNL     1       1.720  -0.532   1.070  0.00  0.00    +0.021 A 
ATOM      3  C   UNL     1       2.529  -0.967   2.072  0.00  0.00    +0.225 A 
ATOM      4  N   UNL     1       1.765  -1.090   3.191  0.00  0.00    -0.200 N 
ATOM      5  N   UNL     1       0.457  -0.714   2.858  0.00  0.00    -0.168 NA
ENDROOT
BRANCH   4   6
ATOM      6  C   UNL     1       2.208  -1.512   4.451  0.00  0.00    +0.069 A 
ATOM      7  C   UNL     1       3.088  -2.581   4.557  0.00  0.00    +0.028 A 
ATOM      8  C   UNL     1       3.524  -2.994   5.801  0.00  0.00    +0.002 A 
ATOM      9  C   UNL     1       3.083  -2.346   6.940  0.00  0.00    +0.000 A 
ATOM     10  C   UNL     1       2.206  -1.282   6.838  0.00  0.00    +0.002 A 
ATOM     11  C   UNL     1       1.772  -0.859   5.596  0.00  0.00    +0.028 A 
ENDBRANCH   4   6
BRANCH   1  13
ATOM     12  C   UNL     1      -0.986   1.576   1.051  0.00  0.00    +0.010 C 
ATOM     13  C   UNL     1      -0.782   0.076   0.827  0.00  0.00    +0.054 C 
ENDBRANCH   1  13
BRANCH   3  14
ATOM     14  O   UNL     1       3.857  -1.231   1.974  0.00  0.00    -0.435 OA
BRANCH  14  15
ATOM     15  C   UNL     1       4.232  -2.462   1.535  0.00  0.00    +0.165 A 
ATOM     16  C   UNL     1       3.274  -3.369   1.109  0.00  0.00    +0.049 A 
ATOM     17  C   UNL     1       3.658  -4.620   0.662  0.00  0.00    +0.004 A 
ATOM     18  C   UNL     1       4.995  -4.968   0.642  0.00  0.00    +0.003 A 
ATOM     19  C   UNL     1       5.954  -4.066   1.066  0.00  0.00    +0.042 A 
ATOM     20  C   UNL     1       5.577  -2.811   1.508  0.00  0.00    +0.165 A 
ATOM     21  F   UNL     1       6.513  -1.929   1.919  0.00  0.00    -0.202 F 
ENDBRANCH  14  15
ENDBRANCH   3  14
BRANCH   2  22
ATOM     22  C   UNL     1       2.138  -0.256  -0.351  0.00  0.00    -0.036 C 
BRANCH  22  23
ATOM     23  N   UNL     1       2.432   1.175  -0.506  0.00  0.00    +0.384 N 
ATOM     24  H   UNL     1       1.631   1.716  -0.219  0.00  0.00    -0.081 HD
BRANCH  23  25
ATOM     25  C   UNL     1       3.588   1.530   0.329  0.00  0.00    -0.046 C 
BRANCH  25  26
ATOM     26  C   UNL     1       3.818   3.041   0.265  0.00  0.00    +0.101 C 
BRANCH  26  27
ATOM     27  C   UNL     1       5.094   3.396   1.032  0.00  0.00    +0.010 C 
ATOM     28  C   UNL     1       6.285   2.671   0.402  0.00  0.00    +0.010 C 
ATOM     29  C   UNL     1       5.324   4.907   0.968  0.00  0.00    +0.010 C 
ENDBRANCH  26  27
BRANCH  26  30
ATOM     30  O   UNL     1       2.705   3.718   0.853  0.00  0.00    -0.393 OA
ATOM     31  H   UNL     1       2.553   3.491   1.780  0.00  0.00    +0.210 HD
ENDBRANCH  26  30
ENDBRANCH  25  26
ENDBRANCH  23  25
BRANCH  23  32
ATOM     32  C   UNL     1       2.738   1.463  -1.914  0.00  0.00    -0.075 C 
BRANCH  32  33
ATOM     33  C   UNL     1       1.489   1.229  -2.765  0.00  0.00    -0.034 C 
ATOM     34  C   UNL     1       0.416   2.254  -2.389  0.00  0.00    +0.005 C 
ATOM     35  C   UNL     1       1.844   1.383  -4.245  0.00  0.00    +0.005 C 
ENDBRANCH  32  33
ENDBRANCH  23  32
ENDBRANCH  22  23
ENDBRANCH   2  22
TORSDOF 12
