REMARK  Name = ZINC36286354
REMARK  5 active torsions:
REMARK  status: ('A' for Active; 'I' for Inactive)
REMARK    1  A    between atoms: C_1  and  C_2
REMARK    2  A    between atoms: C_5  and  C_8
REMARK    3  A    between atoms: C_9  and  C_22
REMARK    4  A    between atoms: C_13  and  N_21
REMARK    5  A    between atoms: C_14  and  C_16
REMARK                            x       y       z     vdW  Elec       q    Type
REMARK                         _______ _______ _______ _____ _____    ______ ____
ROOT
ATOM      1  C   UNL     1       0.059  -4.251  -0.021  0.00  0.00    +0.067 A 
ATOM      2  C   UNL     1       1.126  -4.905  -0.519  0.00  0.00    +0.015 A 
ATOM      3  S   UNL     1       0.654  -6.612  -0.297  0.00  0.00    -0.054 S 
ATOM      4  C   UNL     1      -0.937  -6.330   0.445  0.00  0.00    +0.180 A 
ATOM      5  N   UNL     1      -1.019  -4.959   0.488  0.00  0.00    -0.274 N 
ATOM      6  C   UNL     1      -2.251  -4.684   1.070  0.00  0.00    +0.132 A 
ATOM      7  C   UNL     1      -2.848  -5.878   1.352  0.00  0.00    +0.147 A 
ATOM      8  N   UNL     1      -2.009  -6.868   0.945  0.00  0.00    -0.216 NA
ATOM      9  C   UNL     1       2.392  -4.340  -1.110  0.00  0.00    +0.054 C 
ENDROOT
BRANCH   1  14
ATOM     10  C   UNL     1      -0.018   1.503   0.010  0.00  0.00    +0.044 C 
ATOM     11  C   UNL     1       0.002  -0.004   0.002  0.00  0.00    -0.050 A 
ATOM     12  C   UNL     1       0.006  -0.686  -1.202  0.00  0.00    +0.004 A 
ATOM     13  C   UNL     1       0.024  -2.066  -1.216  0.00  0.00    +0.010 A 
ATOM     14  C   UNL     1       0.040  -2.773  -0.013  0.00  0.00    -0.000 A 
ATOM     15  C   UNL     1       0.036  -2.079   1.198  0.00  0.00    +0.010 A 
ATOM     16  C   UNL     1       0.023  -0.699   1.198  0.00  0.00    +0.004 A 
ENDBRANCH   1  14
BRANCH   7  17
ATOM     17  C   UNL     1      -4.171  -6.062   1.977  0.00  0.00    +0.156 A 
ATOM     18  C   UNL     1      -5.054  -7.061   1.700  0.00  0.00    +0.051 A 
ATOM     19  C   UNL     1      -6.179  -6.849   2.524  0.00  0.00    +0.042 A 
ATOM     20  C   UNL     1      -5.931  -5.745   3.254  0.00  0.00    +0.196 A 
ATOM     21  O   UNL     1      -4.715  -5.274   2.925  0.00  0.00    -0.461 OA
ENDBRANCH   7  17
BRANCH   6  22
ATOM     22  N   UNL     1      -2.782  -3.417   1.320  0.00  0.00    -0.342 N 
ATOM     23  H   UNL     1      -2.277  -2.624   1.081  0.00  0.00    +0.144 HD
ATOM     24  H   UNL     1      -3.655  -3.330   1.732  0.00  0.00    +0.144 HD
ENDBRANCH   6  22
TORSDOF 3
