REMARK  Name = ZINC40986738
REMARK  13 active torsions:
REMARK  status: ('A' for Active; 'I' for Inactive)
REMARK    1  A    between atoms: C_1  and  C_2
REMARK    2  A    between atoms: C_2  and  C_3
REMARK    3  A    between atoms: C_3  and  C_4
REMARK    4  A    between atoms: C_4  and  S_5
REMARK    5  A    between atoms: S_5  and  C_6
REMARK    6  A    between atoms: C_11  and  C_20
REMARK    7  A    between atoms: C_13  and  C_17
REMARK    8  A    between atoms: C_14  and  C_16
REMARK    9  A    between atoms: C_22  and  O_29
REMARK   10  A    between atoms: C_23  and  O_27
REMARK   11  A    between atoms: O_27  and  C_28
REMARK   12  A    between atoms: O_29  and  C_30
REMARK   13  A    between atoms: C_30  and  C_31
REMARK                            x       y       z     vdW  Elec       q    Type
REMARK                         _______ _______ _______ _____ _____    ______ ____
ROOT
ATOM      1  C   UNL     1      -2.722  -4.452   0.434  0.00  0.00    +0.210 A 
ATOM      2  N   UNL     1      -1.595  -5.175   0.353  0.00  0.00    -0.187 NA
ATOM      3  C   UNL     1      -1.896  -6.432   0.168  0.00  0.00    +0.219 A 
ATOM      4  N   UNL     1      -3.247  -6.541   0.131  0.00  0.00    -0.220 N 
ATOM      5  N   UNL     1      -3.757  -5.255   0.306  0.00  0.00    -0.141 NA
ATOM      6  C   UNL     1      -3.951  -7.807  -0.052  0.00  0.00    +0.177 C 
ATOM      7  C   UNL     1      -2.972  -8.867  -0.480  0.00  0.00    +0.060 C 
ATOM      8  C   UNL     1      -1.642  -8.701  -0.425  0.00  0.00    +0.018 C 
ATOM      9  N   UNL     1      -1.068  -7.536   0.021  0.00  0.00    -0.287 N 
ATOM     10  C   UNL     1      -0.748  -9.831  -0.867  0.00  0.00    +0.061 C 
ATOM     11  H   UNL     1      -0.121  -7.487   0.225  0.00  0.00    +0.155 HD
ENDROOT
BRANCH   6  12
ATOM     12  C   UNL     1      -4.597  -8.215   1.248  0.00  0.00    -0.014 A 
ATOM     13  C   UNL     1      -5.967  -8.385   1.313  0.00  0.00    +0.055 A 
ATOM     14  C   UNL     1      -6.563  -8.760   2.506  0.00  0.00    +0.163 A 
ATOM     15  C   UNL     1      -5.779  -8.966   3.638  0.00  0.00    +0.175 A 
ATOM     16  C   UNL     1      -4.406  -8.794   3.566  0.00  0.00    +0.063 A 
ATOM     17  C   UNL     1      -3.817  -8.424   2.369  0.00  0.00    +0.025 A 
ATOM     18 BR   UNL     1      -3.336  -9.072   5.100  0.00  0.00    -0.046 Br
BRANCH  15  19
ATOM     19  O   UNL     1      -6.359  -9.333   4.811  0.00  0.00    -0.490 OA
ATOM     20  C   UNL     1      -6.500 -10.734   5.054  0.00  0.00    +0.277 C 
ENDBRANCH  15  19
BRANCH  14  21
ATOM     21  O   UNL     1      -7.911  -8.927   2.572  0.00  0.00    -0.489 OA
BRANCH  21  22
ATOM     22  C   UNL     1      -8.652  -8.698   1.372  0.00  0.00    +0.226 C 
ATOM     23  C   UNL     1     -10.141  -8.932   1.639  0.00  0.00    +0.048 C 
ENDBRANCH  21  22
ENDBRANCH  14  21
ENDBRANCH   6  12
BRANCH   7  24
ATOM     24  C   UNL     1      -3.478 -10.097  -0.963  0.00  0.00    +0.241 C 
ATOM     25  O   UNL     1      -3.858 -10.188  -2.117  0.00  0.00    -0.271 OA
ATOM     26  N   UNL     1      -3.540 -11.168  -0.147  0.00  0.00    -0.325 N 
ATOM     27  H   UNL     1      -3.237 -11.096   0.771  0.00  0.00    +0.145 HD
ATOM     28  H   UNL     1      -3.887 -12.011  -0.479  0.00  0.00    +0.145 HD
ENDBRANCH   7  24
BRANCH   1  29
ATOM     29  S   UNL     1      -2.804  -2.709   0.679  0.00  0.00    -0.084 S 
BRANCH  29  30
ATOM     30  C   UNL     1      -1.066  -2.197   0.775  0.00  0.00    +0.077 C 
BRANCH  30  31
ATOM     31  C   UNL     1      -0.991  -0.684   0.990  0.00  0.00    +0.011 C 
BRANCH  31  33
ATOM     32  C   UNL     1       0.549   1.260   1.286  0.00  0.00    +0.004 C 
ATOM     33  C   UNL     1       0.474  -0.253   1.071  0.00  0.00    -0.003 C 
ENDBRANCH  31  33
ENDBRANCH  30  31
ENDBRANCH  29  30
ENDBRANCH   1  29
TORSDOF 9
