REMARK  Name = ZINC01088817
REMARK  11 active torsions:
REMARK  status: ('A' for Active; 'I' for Inactive)
REMARK    1  A    between atoms: C_1  and  C_2
REMARK    2  A    between atoms: C_2  and  O_3
REMARK    3  A    between atoms: O_3  and  C_4
REMARK    4  A    between atoms: C_4  and  C_6
REMARK    5  A    between atoms: C_6  and  O_7
REMARK    6  A    between atoms: O_7  and  C_8
REMARK    7  A    between atoms: C_18  and  C_19
REMARK    8  A    between atoms: C_23  and  O_27
REMARK    9  A    between atoms: C_24  and  O_25
REMARK   10  A    between atoms: O_25  and  C_26
REMARK   11  A    between atoms: O_27  and  C_28
REMARK                            x       y       z     vdW  Elec       q    Type
REMARK                         _______ _______ _______ _____ _____    ______ ____
ROOT
ATOM      1  C   UNL     1       2.253   5.374  -0.199  0.00  0.00    +0.211 A 
ATOM      2  C   UNL     1       2.376   3.962  -0.214  0.00  0.00    +0.235 A 
ATOM      3  O   UNL     1       3.451   3.421  -0.410  0.00  0.00    -0.283 OA
ATOM      4  C   UNL     1       1.151   3.172   0.019  0.00  0.00    +0.068 A 
ATOM      5  C   UNL     1       1.180   1.778   0.021  0.00  0.00    +0.015 A 
ATOM      6  C   UNL     1       0.017   1.074   0.241  0.00  0.00    +0.001 A 
ATOM      7  C   UNL     1      -1.178   1.746   0.454  0.00  0.00    +0.004 A 
ATOM      8  C   UNL     1      -1.219   3.123   0.459  0.00  0.00    +0.047 A 
ATOM      9  C   UNL     1      -0.057   3.853   0.239  0.00  0.00    +0.140 A 
ATOM     10  O   UNL     1      -0.081   5.202   0.235  0.00  0.00    -0.451 OA
ATOM     11  C   UNL     1       1.022   5.941   0.026  0.00  0.00    +0.184 A 
ENDROOT
BRANCH  11  12
ATOM     12  C   UNL     1       0.907   7.410   0.039  0.00  0.00    +0.066 A 
ATOM     13  C   UNL     1       1.781   8.177   0.817  0.00  0.00    +0.015 A 
ATOM     14  C   UNL     1       1.674   9.550   0.821  0.00  0.00    +0.004 A 
ATOM     15  C   UNL     1       0.696  10.178   0.067  0.00  0.00    +0.049 A 
ATOM     16  C   UNL     1      -0.180   9.432  -0.703  0.00  0.00    +0.162 A 
ATOM     17  C   UNL     1      -0.081   8.045  -0.723  0.00  0.00    +0.172 A 
BRANCH  17  18
ATOM     18  O   UNL     1      -0.939   7.310  -1.478  0.00  0.00    -0.491 OA
ATOM     19  C   UNL     1      -2.153   6.887  -0.855  0.00  0.00    +0.277 C 
ENDBRANCH  17  18
BRANCH  16  20
ATOM     20  O   UNL     1      -1.138  10.056  -1.441  0.00  0.00    -0.491 OA
ATOM     21  C   UNL     1      -1.182  11.483  -1.373  0.00  0.00    +0.277 C 
ENDBRANCH  16  20
ENDBRANCH  11  12
BRANCH   1  22
ATOM     22  O   UNL     1       3.345   6.160  -0.407  0.00  0.00    -0.474 OA
BRANCH  22  23
ATOM     23  C   UNL     1       3.698   6.434  -1.764  0.00  0.00    +0.349 C 
BRANCH  23  24
ATOM     24  C   UNL     1       4.922   7.312  -1.798  0.00  0.00    +0.345 C 
ATOM     25  O   UNL     1       5.438   7.668  -0.765  0.00  0.00    -0.247 OA
BRANCH  24  26
ATOM     26  O   UNL     1       5.438   7.700  -2.974  0.00  0.00    -0.463 OA
BRANCH  26  28
ATOM     27  C   UNL     1       7.057   8.883  -4.356  0.00  0.00    +0.048 C 
ATOM     28  C   UNL     1       6.617   8.546  -2.930  0.00  0.00    +0.229 C 
ENDBRANCH  26  28
ENDBRANCH  24  26
ENDBRANCH  23  24
ENDBRANCH  22  23
ENDBRANCH   1  22
TORSDOF 8
