REMARK  Name = ZINC03286301
REMARK  7 active torsions:
REMARK  status: ('A' for Active; 'I' for Inactive)
REMARK    1  A    between atoms: C_1  and  C_2
REMARK    2  A    between atoms: C_2  and  O_3
REMARK    3  A    between atoms: O_3  and  C_4
REMARK    4  A    between atoms: C_4  and  C_6
REMARK    5  A    between atoms: C_10  and  N_11
REMARK    6  A    between atoms: C_12  and  C_14
REMARK    7  A    between atoms: C_14  and  N_15
REMARK                            x       y       z     vdW  Elec       q    Type
REMARK                         _______ _______ _______ _____ _____    ______ ____
ROOT
ATOM      1  N   UNL     1      -1.119   2.575   0.022  0.00  0.00    -0.278 N 
ATOM      2  C   UNL     1      -2.365   2.062   0.026  0.00  0.00    +0.236 C 
ATOM      3  O   UNL     1      -2.527   0.860   0.020  0.00  0.00    -0.274 OA
ATOM      4  H   UNL     1      -0.990   3.536   0.026  0.00  0.00    +0.155 HD
ENDROOT
BRANCH   1   9
ATOM      5  C   UNL     1       1.326   2.063   0.001  0.00  0.00    +0.091 A 
ATOM      6  C   UNL     1       2.288   0.973  -0.014  0.00  0.00    -0.021 A 
ATOM      7  C   UNL     1       1.753  -0.266  -0.016  0.00  0.00    -0.004 A 
ATOM      8  S   UNL     1       0.002  -0.004   0.002  0.00  0.00    -0.077 S 
ATOM      9  C   UNL     1      -0.021   1.728   0.011  0.00  0.00    +0.086 A 
ATOM     10  C   UNL     1       2.491  -1.569  -0.031  0.00  0.00    +0.043 C 
ATOM     11  C   UNL     1       3.951  -1.293  -0.422  0.00  0.00    +0.005 C 
ATOM     12  C   UNL     1       4.473  -0.123   0.416  0.00  0.00    +0.005 C 
ATOM     13  C   UNL     1       3.798   1.176  -0.027  0.00  0.00    +0.037 C 
BRANCH   5  14
ATOM     14  C   UNL     1       1.762   3.461   0.003  0.00  0.00    +0.342 C 
ATOM     15  O   UNL     1       1.954   4.036   1.058  0.00  0.00    -0.245 OA
BRANCH  14  16
ATOM     16  O   UNL     1       1.951   4.111  -1.164  0.00  0.00    -0.461 OA
BRANCH  16  18
ATOM     17  C   UNL     1       2.544   6.060  -2.498  0.00  0.00    +0.048 C 
ATOM     18  C   UNL     1       2.384   5.495  -1.085  0.00  0.00    +0.229 C 
ENDBRANCH  16  18
ENDBRANCH  14  16
ENDBRANCH   5  14
ENDBRANCH   1   9
BRANCH   2  19
ATOM     19  C   UNL     1      -3.559   2.982   0.037  0.00  0.00    +0.214 C 
BRANCH  19  20
ATOM     20  N   UNL     1      -4.789   2.187   0.039  0.00  0.00    -0.215 N 
ATOM     21  C   UNL     1      -5.420   1.770   1.156  0.00  0.00    +0.247 C 
ATOM     22  O   UNL     1      -5.090   1.973   2.305  0.00  0.00    -0.273 OA
ATOM     23  C   UNL     1      -6.625   0.995   0.674  0.00  0.00    +0.113 C 
ATOM     24  C   UNL     1      -7.910   1.653   1.162  0.00  0.00    +0.035 C 
ATOM     25  C   UNL     1      -9.118   0.871   0.640  0.00  0.00    +0.003 C 
ATOM     26  C   UNL     1      -9.043  -0.573   1.140  0.00  0.00    +0.000 C 
ATOM     27  C   UNL     1      -7.761  -1.228   0.622  0.00  0.00    +0.003 C 
ATOM     28  C   UNL     1      -6.548  -0.454   1.144  0.00  0.00    +0.035 C 
ATOM     29  N   UNL     1      -6.532   1.067  -0.790  0.00  0.00    -0.285 N 
ATOM     30  C   UNL     1      -5.430   1.789  -1.067  0.00  0.00    +0.310 C 
ATOM     31  O   UNL     1      -5.057   2.047  -2.194  0.00  0.00    -0.252 OA
ATOM     32  H   UNL     1      -7.146   0.675  -1.431  0.00  0.00    +0.151 HD
ENDBRANCH  19  20
ENDBRANCH   2  19
TORSDOF 6
