REMARK  Name = ZINC36207630
REMARK  14 active torsions:
REMARK  status: ('A' for Active; 'I' for Inactive)
REMARK    1  A    between atoms: C_1  and  C_2
REMARK    2  A    between atoms: C_5  and  C_8
REMARK    3  A    between atoms: C_17  and  C_19
REMARK    4  A    between atoms: C_19  and  N_20
REMARK    5  A    between atoms: N_20  and  C_21
REMARK    6  A    between atoms: N_20  and  C_33
REMARK    7  A    between atoms: C_21  and  C_22
REMARK    8  A    between atoms: C_22  and  C_24
REMARK    9  A    between atoms: C_22  and  O_32
REMARK   10  A    between atoms: C_24  and  O_25
REMARK   11  A    between atoms: O_25  and  C_26
REMARK   12  A    between atoms: C_33  and  C_34
REMARK   13  A    between atoms: C_34  and  C_35
REMARK   14  A    between atoms: C_34  and  C_36
REMARK                            x       y       z     vdW  Elec       q    Type
REMARK                         _______ _______ _______ _____ _____    ______ ____
ROOT
ATOM      1  C   UNL     1       3.334  -7.614   2.685  0.00  0.00    -0.003 C 
ENDROOT
BRANCH   1  11
ATOM      2  C   UNL     1      -0.152  -4.240  -0.307  0.00  0.00    +0.004 A 
ATOM      3  C   UNL     1      -1.088  -4.939  -0.994  0.00  0.00    +0.056 A 
ATOM      4  S   UNL     1      -0.726  -6.633  -0.576  0.00  0.00    -0.076 S 
ATOM      5  C   UNL     1       0.660  -6.367   0.499  0.00  0.00    +0.116 A 
ATOM      6  C   UNL     1       0.814  -4.971   0.505  0.00  0.00    +0.080 A 
ATOM      7  C   UNL     1       1.887  -4.468   1.307  0.00  0.00    +0.260 A 
ATOM      8  O   UNL     1       2.097  -3.269   1.379  0.00  0.00    -0.267 OA
ATOM      9  N   UNL     1       2.661  -5.339   1.981  0.00  0.00    -0.312 N 
ATOM     10  H   UNL     1       3.390  -5.004   2.526  0.00  0.00    +0.170 HD
ATOM     11  C   UNL     1       2.442  -6.677   1.913  0.00  0.00    +0.094 A 
ATOM     12  N   UNL     1       1.464  -7.165   1.198  0.00  0.00    -0.229 NA
BRANCH   2  17
ATOM     13  C   UNL     1       0.023   1.508  -0.613  0.00  0.00    +0.044 C 
ATOM     14  C   UNL     1      -0.023   0.003  -0.533  0.00  0.00    -0.050 A 
ATOM     15  C   UNL     1      -0.085  -0.747  -1.694  0.00  0.00    +0.004 A 
ATOM     16  C   UNL     1      -0.127  -2.124  -1.627  0.00  0.00    +0.009 A 
ATOM     17  C   UNL     1      -0.106  -2.760  -0.386  0.00  0.00    -0.017 A 
ATOM     18  C   UNL     1      -0.043  -1.999   0.780  0.00  0.00    +0.009 A 
ATOM     19  C   UNL     1       0.003  -0.622   0.701  0.00  0.00    +0.004 A 
ENDBRANCH   2  17
ENDBRANCH   1  11
BRANCH   1  20
ATOM     20  N   UNL     1       2.904  -9.000   2.455  0.00  0.00    +0.386 N 
ATOM     21  H   UNL     1       1.926  -9.091   2.688  0.00  0.00    -0.081 HD
BRANCH  20  22
ATOM     22  C   UNL     1       3.695  -9.904   3.300  0.00  0.00    -0.043 C 
BRANCH  22  23
ATOM     23  C   UNL     1       3.369  -9.644   4.772  0.00  0.00    +0.135 C 
BRANCH  23  24
ATOM     24  O   UNL     1       1.992  -9.941   5.014  0.00  0.00    -0.390 OA
ATOM     25  H   UNL     1       1.731 -10.836   4.754  0.00  0.00    +0.210 HD
ENDBRANCH  23  24
BRANCH  23  26
ATOM     26  C   UNL     1       4.245 -10.536   5.654  0.00  0.00    +0.258 C 
BRANCH  26  27
ATOM     27  O   UNL     1       4.024 -10.211   7.028  0.00  0.00    -0.489 OA
BRANCH  27  28
ATOM     28  C   UNL     1       4.731 -10.916   7.950  0.00  0.00    +0.121 A 
ATOM     29  C   UNL     1       5.623 -11.896   7.540  0.00  0.00    +0.045 A 
ATOM     30  C   UNL     1       6.341 -12.612   8.479  0.00  0.00    +0.004 A 
ATOM     31  C   UNL     1       6.170 -12.351   9.827  0.00  0.00    +0.000 A 
ATOM     32  C   UNL     1       5.281 -11.375  10.237  0.00  0.00    +0.004 A 
ATOM     33  C   UNL     1       4.566 -10.653   9.302  0.00  0.00    +0.045 A 
ENDBRANCH  27  28
ENDBRANCH  26  27
ENDBRANCH  23  26
ENDBRANCH  22  23
ENDBRANCH  20  22
BRANCH  20  34
ATOM     34  C   UNL     1       3.105  -9.347   1.042  0.00  0.00    -0.075 C 
BRANCH  34  35
ATOM     35  C   UNL     1       2.521 -10.735   0.770  0.00  0.00    -0.034 C 
ATOM     36  C   UNL     1       1.005 -10.700   0.981  0.00  0.00    +0.005 C 
ATOM     37  C   UNL     1       2.826 -11.143  -0.672  0.00  0.00    +0.005 C 
ENDBRANCH  34  35
ENDBRANCH  20  34
ENDBRANCH   1  20
TORSDOF 11
