REMARK  Name = ZINC39697692
REMARK  7 active torsions:
REMARK  status: ('A' for Active; 'I' for Inactive)
REMARK    1  A    between atoms: C_1  and  C_2
REMARK    2  A    between atoms: C_5  and  N_9
REMARK    3  A    between atoms: C_7  and  N_8
REMARK    4  A    between atoms: C_10  and  C_12
REMARK    5  A    between atoms: C_12  and  C_14
REMARK    6  A    between atoms: C_12  and  S_15
REMARK    7  A    between atoms: S_15  and  C_16
REMARK                            x       y       z     vdW  Elec       q    Type
REMARK                         _______ _______ _______ _____ _____    ______ ____
ROOT
ATOM      1  C   UNL     1      -0.134  -6.343  -1.202  0.00  0.00    +0.137 C 
ATOM      2  C   UNL     1       1.263  -6.941  -1.024  0.00  0.00    +0.029 C 
ENDROOT
BRANCH   1   4
ATOM      3  N   UNL     1       0.059  -4.175  -0.027  0.00  0.00    -0.285 N 
ATOM      4  C   UNL     1      -0.040  -4.839  -1.196  0.00  0.00    +0.230 C 
ATOM      5  O   UNL     1      -0.053  -4.226  -2.243  0.00  0.00    -0.274 OA
ATOM      6  H   UNL     1       0.146  -4.666   0.804  0.00  0.00    +0.155 HD
BRANCH   3  11
ATOM      7  C   UNL     1      -0.051   1.502   0.017  0.00  0.00    +0.045 C 
ATOM      8  C   UNL     1      -0.021  -0.004   0.007  0.00  0.00    -0.030 A 
ATOM      9  C   UNL     1      -0.756  -0.703  -0.932  0.00  0.00    +0.007 A 
ATOM     10  C   UNL     1      -0.731  -2.084  -0.945  0.00  0.00    +0.024 A 
ATOM     11  C   UNL     1       0.034  -2.776  -0.014  0.00  0.00    +0.035 A 
ATOM     12  C   UNL     1       0.774  -2.078   0.930  0.00  0.00    +0.046 A 
ATOM     13  C   UNL     1       0.751  -0.690   0.937  0.00  0.00    +0.029 A 
BRANCH  13  14
ATOM     14  N   UNL     1       1.498   0.017   1.882  0.00  0.00    -0.358 N 
ATOM     15  H   UNL     1       1.478   0.987   1.889  0.00  0.00    +0.142 HD
ATOM     16  H   UNL     1       2.036  -0.462   2.531  0.00  0.00    +0.142 HD
ENDBRANCH  13  14
ENDBRANCH   3  11
ENDBRANCH   1   4
BRANCH   1  17
ATOM     17  S   UNL     1      -0.832  -6.899  -2.781  0.00  0.00    -0.072 S 
BRANCH  17  18
ATOM     18  C   UNL     1      -1.014  -8.640  -2.578  0.00  0.00    +0.208 C 
ATOM     19  N   UNL     1      -0.653  -9.169  -1.433  0.00  0.00    -0.227 NA
ATOM     20  C   UNL     1      -0.733 -10.622  -1.301  0.00  0.00    +0.252 C 
ATOM     21  C   UNL     1      -1.845 -11.076  -2.235  0.00  0.00    +0.117 C 
ATOM     22  C   UNL     1      -2.634 -11.899  -1.491  0.00  0.00    +0.025 A 
ATOM     23  C   UNL     1      -3.750 -12.706  -1.826  0.00  0.00    +0.012 A 
ATOM     24  C   UNL     1      -4.335 -13.412  -0.821  0.00  0.00    +0.001 A 
ATOM     25  C   UNL     1      -3.905 -13.390   0.509  0.00  0.00    +0.002 A 
ATOM     26  C   UNL     1      -2.844 -12.659   0.942  0.00  0.00    +0.026 A 
ATOM     27  C   UNL     1      -2.141 -11.865  -0.080  0.00  0.00    +0.046 A 
ATOM     28  N   UNL     1      -1.100 -11.097   0.025  0.00  0.00    -0.358 N 
ATOM     29  N   UNL     1      -1.972 -10.562  -3.463  0.00  0.00    -0.147 NA
ATOM     30  N   UNL     1      -1.524  -9.354  -3.611  0.00  0.00    -0.122 NA
ATOM     31  H   UNL     1      -0.642 -10.877   0.851  0.00  0.00    +0.162 HD
ENDBRANCH  17  18
ENDBRANCH   1  17
TORSDOF 5
