REMARK  Name = ZINC12498227
REMARK  14 active torsions:
REMARK  status: ('A' for Active; 'I' for Inactive)
REMARK    1  A    between atoms: C_1  and  C_2
REMARK    2  A    between atoms: C_2  and  C_3
REMARK    3  A    between atoms: C_3  and  C_4
REMARK    4  A    between atoms: C_4  and  C_35
REMARK    5  A    between atoms: C_9  and  C_11
REMARK    6  A    between atoms: C_13  and  O_19
REMARK    7  A    between atoms: C_16  and  O_17
REMARK    8  A    between atoms: O_17  and  C_18
REMARK    9  A    between atoms: O_19  and  C_20
REMARK   10  A    between atoms: N_23  and  C_26
REMARK   11  A    between atoms: C_30  and  C_32
REMARK   12  A    between atoms: C_32  and  C_34
REMARK   13  A    between atoms: C_35  and  O_37
REMARK   14  A    between atoms: O_37  and  C_38
REMARK                            x       y       z     vdW  Elec       q    Type
REMARK                         _______ _______ _______ _____ _____    ______ ____
ROOT
ATOM      1  C   UNL     1      -3.346   6.112  -0.434  0.00  0.00    +0.044 C 
ATOM      2  C   UNL     1      -4.207   5.083  -1.069  0.00  0.00    +0.086 C 
ATOM      3  C   UNL     1      -3.159   3.931  -1.336  0.00  0.00    +0.077 C 
ATOM      4  C   UNL     1      -2.557   3.875   0.048  0.00  0.00    -0.023 C 
ATOM      5  C   UNL     1      -4.096   2.948  -1.925  0.00  0.00    +0.229 C 
ATOM      6  O   UNL     1      -4.075   1.743  -1.796  0.00  0.00    -0.275 OA
ATOM      7  N   UNL     1      -4.992   3.691  -2.648  0.00  0.00    -0.210 N 
ATOM      8  C   UNL     1      -4.955   5.024  -2.322  0.00  0.00    +0.229 C 
ATOM      9  O   UNL     1      -5.438   5.949  -2.939  0.00  0.00    -0.275 OA
ATOM     10  N   UNL     1      -2.361   5.323   0.361  0.00  0.00    +0.395 N 
ATOM     11  H   UNL     1      -2.515   5.486   1.363  0.00  0.00    -0.083 HD
ATOM     12  H   UNL     1      -1.407   5.606   0.110  0.00  0.00    -0.083 HD
ENDROOT
BRANCH   4  13
ATOM     13  C   UNL     1      -1.242   3.140   0.031  0.00  0.00    -0.015 A 
ATOM     14  C   UNL     1      -0.055   3.847   0.023  0.00  0.00    +0.051 A 
ATOM     15  C   UNL     1       1.155   3.170   0.008  0.00  0.00    +0.121 A 
ATOM     16  C   UNL     1       1.174   1.783   0.000  0.00  0.00    +0.049 A 
ATOM     17  C   UNL     1      -0.013   1.076   0.008  0.00  0.00    +0.049 A 
ATOM     18  C   UNL     1      -1.223   1.753   0.017  0.00  0.00    +0.122 A 
BRANCH  18  19
ATOM     19  O   UNL     1      -2.392   1.057   0.019  0.00  0.00    -0.495 OA
ATOM     20  C   UNL     1      -2.297  -0.369   0.010  0.00  0.00    +0.277 C 
ENDBRANCH  18  19
BRANCH  15  21
ATOM     21  O   UNL     1       2.323   3.865  -0.000  0.00  0.00    -0.495 OA
ATOM     22  C   UNL     1       3.532   3.104  -0.016  0.00  0.00    +0.277 C 
ENDBRANCH  15  21
ENDBRANCH   4  13
BRANCH   7  23
ATOM     23  C   UNL     1      -5.852   3.150  -3.615  0.00  0.00    +0.045 A 
ATOM     24  C   UNL     1      -6.731   3.977  -4.303  0.00  0.00    +0.024 A 
ATOM     25  C   UNL     1      -7.582   3.450  -5.258  0.00  0.00    +0.003 A 
ATOM     26  C   UNL     1      -7.564   2.098  -5.534  0.00  0.00    +0.011 A 
ATOM     27  C   UNL     1      -6.683   1.257  -4.847  0.00  0.00    +0.019 A 
ATOM     28  C   UNL     1      -5.820   1.792  -3.886  0.00  0.00    +0.035 A 
BRANCH  27  29
ATOM     29  C   UNL     1      -6.660  -0.186  -5.139  0.00  0.00    +0.160 C 
ATOM     30  O   UNL     1      -5.895  -0.913  -4.542  0.00  0.00    -0.292 OA
ATOM     31  C   UNL     1      -7.587  -0.759  -6.180  0.00  0.00    +0.091 C 
ENDBRANCH  27  29
ENDBRANCH   7  23
BRANCH   1  32
ATOM     32  C   UNL     1      -2.643   6.932  -1.485  0.00  0.00    +0.297 C 
ATOM     33  O   UNL     1      -3.122   7.035  -2.590  0.00  0.00    -0.252 OA
BRANCH  32  34
ATOM     34  O   UNL     1      -1.486   7.546  -1.195  0.00  0.00    -0.469 OA
ATOM     35  C   UNL     1      -0.865   8.318  -2.256  0.00  0.00    +0.280 C 
ENDBRANCH  32  34
ENDBRANCH   1  32
BRANCH   1  36
ATOM     36  C   UNL     1      -4.179   7.016   0.477  0.00  0.00    -0.001 C 
BRANCH  36  38
ATOM     37  C   UNL     1      -4.104   8.972   2.031  0.00  0.00    +0.004 C 
ATOM     38  C   UNL     1      -3.272   8.068   1.120  0.00  0.00    -0.004 C 
ENDBRANCH  36  38
ENDBRANCH   1  36
TORSDOF 9
