REMARK  Name = ZINC20294192
REMARK  10 active torsions:
REMARK  status: ('A' for Active; 'I' for Inactive)
REMARK    1  A    between atoms: C_1  and  C_2
REMARK    2  A    between atoms: C_3  and  C_9
REMARK    3  A    between atoms: C_4  and  C_8
REMARK    4  A    between atoms: N_5  and  C_7
REMARK    5  A    between atoms: N_10  and  N_11
REMARK    6  A    between atoms: C_14  and  S_17
REMARK    7  A    between atoms: S_17  and  C_18
REMARK    8  A    between atoms: C_18  and  C_19
REMARK    9  A    between atoms: N_21  and  C_22
REMARK   10  A    between atoms: C_26  and  C_28
REMARK                            x       y       z     vdW  Elec       q    Type
REMARK                         _______ _______ _______ _____ _____    ______ ____
ROOT
ATOM      1  N   UNL     1       1.619   3.138  -0.530  0.00  0.00    -0.205 N 
ATOM      2  C   UNL     1       1.219   1.813  -0.436  0.00  0.00    +0.232 A 
ATOM      3  N   UNL     1      -0.067   1.354  -0.509  0.00  0.00    -0.186 NA
ATOM      4  C   UNL     1      -0.039  -0.005  -0.372  0.00  0.00    +0.211 A 
ATOM      5  N   UNL     1       1.211  -0.371  -0.221  0.00  0.00    -0.144 NA
ATOM      6  N   UNL     1       2.008   0.780  -0.261  0.00  0.00    -0.245 N 
ATOM      7  H   UNL     1       0.870   3.929  -0.678  0.00  0.00    +0.177 HD
ATOM      8  H   UNL     1       3.095   0.926  -0.176  0.00  0.00    +0.192 HD
ENDROOT
BRANCH   1  10
ATOM      9  C   UNL     1       3.352   4.707  -0.526  0.00  0.00    +0.141 C 
ATOM     10  N   UNL     1       2.978   3.467  -0.438  0.00  0.00    -0.187 NA
BRANCH   9  13
ATOM     11  C   UNL     1       5.734   2.656  -0.103  0.00  0.00    +0.068 C 
ATOM     12  C   UNL     1       5.853   4.152  -0.241  0.00  0.00    +0.069 A 
ATOM     13  C   UNL     1       4.783   5.054  -0.429  0.00  0.00    +0.038 A 
ATOM     14  C   UNL     1       5.324   6.319  -0.510  0.00  0.00    +0.045 A 
ATOM     15  N   UNL     1       6.660   6.196  -0.370  0.00  0.00    -0.271 N 
ATOM     16  N   UNL     1       6.963   4.839  -0.208  0.00  0.00    -0.176 NA
ATOM     17  C   UNL     1       7.629   7.294  -0.391  0.00  0.00    +0.172 C 
ATOM     18  C   UNL     1       4.563   7.604  -0.715  0.00  0.00    +0.066 C 
ENDBRANCH   9  13
ENDBRANCH   1  10
BRANCH   4  19
ATOM     19  S   UNL     1      -1.437  -1.077  -0.394  0.00  0.00    -0.075 S 
BRANCH  19  20
ATOM     20  C   UNL     1      -0.726  -2.730  -0.166  0.00  0.00    +0.173 C 
BRANCH  20  21
ATOM     21  C   UNL     1      -1.830  -3.756  -0.165  0.00  0.00    +0.227 C 
ATOM     22  O   UNL     1      -2.983  -3.406  -0.305  0.00  0.00    -0.275 OA
ATOM     23  N   UNL     1      -1.537  -5.062  -0.009  0.00  0.00    -0.285 N 
ATOM     24  H   UNL     1      -0.487  -5.389   0.030  0.00  0.00    +0.155 HD
BRANCH  23  25
ATOM     25  C   UNL     1      -2.567  -6.003   0.102  0.00  0.00    +0.034 A 
ATOM     26  C   UNL     1      -3.759  -5.658   0.727  0.00  0.00    +0.025 A 
ATOM     27  C   UNL     1      -4.776  -6.587   0.831  0.00  0.00    +0.022 A 
ATOM     28  C   UNL     1      -4.604  -7.862   0.322  0.00  0.00    +0.053 A 
ATOM     29  C   UNL     1      -3.416  -8.210  -0.296  0.00  0.00    +0.075 A 
ATOM     30  C   UNL     1      -2.398  -7.283  -0.408  0.00  0.00    +0.037 A 
ATOM     31 CL   UNL     1      -5.882  -9.029   0.460  0.00  0.00    -0.083 Cl
BRANCH  29  32
ATOM     32  C   UNL     1      -3.233  -9.599  -0.850  0.00  0.00    +0.419 C 
ATOM     33  F   UNL     1      -1.962  -9.709  -1.423  0.00  0.00    -0.166 F 
ATOM     34  F   UNL     1      -3.361 -10.533   0.184  0.00  0.00    -0.166 F 
ATOM     35  F   UNL     1      -4.207  -9.845  -1.824  0.00  0.00    -0.166 F 
ENDBRANCH  29  32
ENDBRANCH  23  25
ENDBRANCH  20  21
ENDBRANCH  19  20
ENDBRANCH   4  19
TORSDOF 7
