REMARK  Name = ZINC22527556
REMARK  5 active torsions:
REMARK  status: ('A' for Active; 'I' for Inactive)
REMARK    1  A    between atoms: C_9  and  C_18
REMARK    2  A    between atoms: C_18  and  N_19
REMARK    3  A    between atoms: C_20  and  C_22
REMARK    4  A    between atoms: C_22  and  N_23
REMARK    5  A    between atoms: C_24  and  C_26
REMARK                            x       y       z     vdW  Elec       q    Type
REMARK                         _______ _______ _______ _____ _____    ______ ____
ROOT
ATOM      1  N   UNL     1      -3.698   1.118   0.026  0.00  0.00    -0.314 N 
ATOM      2  C   UNL     1      -2.422   0.686   0.017  0.00  0.00    +0.230 C 
ATOM      3  O   UNL     1      -2.184  -0.503   0.010  0.00  0.00    -0.274 OA
ATOM      4  H   UNL     1      -3.914   2.197   0.033  0.00  0.00    +0.149 HD
ENDROOT
BRANCH   1   5
ATOM      5  C   UNL     1      -4.799   0.151   0.026  0.00  0.00    +0.108 C 
BRANCH   5  14
ATOM      6  C   UNL     1      -7.171  -2.273   3.564  0.00  0.00    +0.000 A 
ATOM      7  C   UNL     1      -7.060  -2.987   2.385  0.00  0.00    +0.000 A 
ATOM      8  C   UNL     1      -7.091  -2.332   1.161  0.00  0.00    +0.004 A 
ATOM      9  C   UNL     1      -7.234  -0.974   1.144  0.00  0.00    -0.036 A 
ATOM     10  C   UNL     1      -7.346  -0.255   2.332  0.00  0.00    -0.036 A 
ATOM     11  C   UNL     1      -7.316  -0.892   3.540  0.00  0.00    +0.004 A 
ATOM     12  C   UNL     1      -7.496   1.247   2.147  0.00  0.00    +0.050 C 
ATOM     13  C   UNL     1      -6.256   1.685   1.339  0.00  0.00    +0.018 C 
ATOM     14  C   UNL     1      -6.134   0.898   0.036  0.00  0.00    +0.019 C 
ATOM     15  C   UNL     1      -7.284  -0.121  -0.114  0.00  0.00    +0.054 C 
ATOM     16  C   UNL     1      -8.563   0.693   0.011  0.00  0.00    -0.036 A 
ATOM     17  C   UNL     1      -8.674   1.412   1.199  0.00  0.00    -0.036 A 
ATOM     18  C   UNL     1      -9.770   2.188   1.445  0.00  0.00    +0.004 A 
ATOM     19  C   UNL     1     -10.776   2.249   0.489  0.00  0.00    +0.000 A 
ATOM     20  C   UNL     1     -10.666   1.535  -0.690  0.00  0.00    +0.000 A 
ATOM     21  C   UNL     1      -9.548   0.748  -0.933  0.00  0.00    +0.004 A 
ENDBRANCH   5  14
ENDBRANCH   1   5
BRANCH   2  22
ATOM     22  C   UNL     1      -1.290   1.681   0.017  0.00  0.00    +0.200 C 
BRANCH  22  23
ATOM     23  N   UNL     1      -0.011   0.966   0.007  0.00  0.00    -0.303 N 
ATOM     24  C   UNL     1       1.147   1.655   0.000  0.00  0.00    +0.245 C 
ATOM     25  O   UNL     1       1.130   2.871   0.007  0.00  0.00    -0.270 OA
ATOM     26  H   UNL     1       0.004  -0.134   0.006  0.00  0.00    +0.150 HD
BRANCH  24  27
ATOM     27  C   UNL     1       2.435   0.935  -0.016  0.00  0.00    +0.040 A 
ATOM     28  C   UNL     1       2.456  -0.462  -0.024  0.00  0.00    +0.017 A 
ATOM     29  C   UNL     1       3.659  -1.133  -0.039  0.00  0.00    +0.050 A 
ATOM     30  C   UNL     1       4.854  -0.425  -0.047  0.00  0.00    +0.166 A 
ATOM     31  C   UNL     1       4.840   0.970  -0.039  0.00  0.00    +0.167 A 
ATOM     32  C   UNL     1       3.636   1.648  -0.030  0.00  0.00    +0.062 A 
ATOM     33  O   UNL     1       6.129   1.419  -0.049  0.00  0.00    -0.453 OA
ATOM     34  C   UNL     1       6.923   0.296  -0.476  0.00  0.00    +0.466 C 
ATOM     35  O   UNL     1       6.151  -0.847  -0.061  0.00  0.00    -0.453 OA
ENDBRANCH  24  27
ENDBRANCH  22  23
ENDBRANCH   2  22
TORSDOF 5
