REMARK  Name = ZINC09441627
REMARK  12 active torsions:
REMARK  status: ('A' for Active; 'I' for Inactive)
REMARK    1  A    between atoms: C_1  and  C_2
REMARK    2  A    between atoms: C_2  and  N_3
REMARK    3  A    between atoms: N_3  and  C_4
REMARK    4  A    between atoms: N_3  and  S_6
REMARK    5  A    between atoms: C_4  and  C_5
REMARK    6  A    between atoms: S_6  and  C_9
REMARK    7  A    between atoms: C_13  and  C_15
REMARK    8  A    between atoms: C_15  and  O_17
REMARK    9  A    between atoms: O_17  and  C_18
REMARK   10  A    between atoms: C_18  and  C_19
REMARK   11  A    between atoms: N_24  and  C_25
REMARK   12  A    between atoms: C_31  and  C_33
REMARK                            x       y       z     vdW  Elec       q    Type
REMARK                         _______ _______ _______ _____ _____    ______ ____
ROOT
ATOM      1  C   UNL     1       3.983   0.705  -4.246  0.00  0.00    +0.342 C 
ATOM      2  O   UNL     1       5.110   0.539  -4.667  0.00  0.00    -0.245 OA
ENDROOT
BRANCH   1   7
ATOM      3  C   UNL     1       1.510  -1.061  -2.043  0.00  0.00    +0.106 A 
ATOM      4  C   UNL     1       2.222  -2.195  -1.691  0.00  0.00    +0.031 A 
ATOM      5  C   UNL     1       3.505  -2.389  -2.167  0.00  0.00    +0.041 A 
ATOM      6  C   UNL     1       4.087  -1.450  -2.999  0.00  0.00    +0.137 A 
ATOM      7  C   UNL     1       3.372  -0.302  -3.358  0.00  0.00    +0.096 A 
ATOM      8  C   UNL     1       2.073  -0.118  -2.876  0.00  0.00    +0.046 A 
ATOM      9  F   UNL     1       5.340  -1.641  -3.465  0.00  0.00    -0.205 F 
BRANCH   3  10
ATOM     10  S   UNL     1      -0.125  -0.826  -1.430  0.00  0.00    +0.061 S 
ATOM     11  O   UNL     1      -0.630  -2.116  -1.114  0.00  0.00    -0.153 OA
ATOM     12  O   UNL     1      -0.780   0.046  -2.342  0.00  0.00    -0.153 OA
BRANCH  10  13
ATOM     13  N   UNL     1       0.002  -0.004   0.002  0.00  0.00    -0.177 NA
BRANCH  13  15
ATOM     14  C   UNL     1       1.418   1.990  -0.001  0.00  0.00    +0.022 C 
ATOM     15  C   UNL     1      -0.018   1.461   0.010  0.00  0.00    +0.106 C 
ENDBRANCH  13  15
BRANCH  13  16
ATOM     16  C   UNL     1       0.135  -0.742   1.261  0.00  0.00    +0.106 C 
ATOM     17  C   UNL     1      -1.245  -0.910   1.901  0.00  0.00    +0.022 C 
ENDBRANCH  13  16
ENDBRANCH  10  13
ENDBRANCH   3  10
ENDBRANCH   1   7
BRANCH   1  18
ATOM     18  O   UNL     1       3.291   1.809  -4.589  0.00  0.00    -0.452 OA
BRANCH  18  19
ATOM     19  C   UNL     1       3.955   2.758  -5.465  0.00  0.00    +0.328 C 
BRANCH  19  20
ATOM     20  C   UNL     1       3.035   3.920  -5.737  0.00  0.00    +0.258 C 
ATOM     21  O   UNL     1       1.929   3.946  -5.242  0.00  0.00    -0.272 OA
ATOM     22  N   UNL     1       3.442   4.929  -6.532  0.00  0.00    -0.237 N 
ATOM     23  C   UNL     1       2.619   5.969  -6.775  0.00  0.00    +0.306 C 
ATOM     24  O   UNL     1       1.510   5.995  -6.279  0.00  0.00    -0.252 OA
ATOM     25  N   UNL     1       3.026   6.979  -7.570  0.00  0.00    -0.296 N 
ATOM     26  H   UNL     1       4.327   4.909  -6.928  0.00  0.00    +0.159 HD
ATOM     27  H   UNL     1       3.911   6.958  -7.966  0.00  0.00    +0.151 HD
BRANCH  25  28
ATOM     28  C   UNL     1       2.131   8.108  -7.835  0.00  0.00    +0.077 C 
ATOM     29  C   UNL     1       1.202   7.761  -9.000  0.00  0.00    +0.022 C 
ATOM     30  C   UNL     1       2.038   7.468 -10.248  0.00  0.00    +0.002 C 
ATOM     31  C   UNL     1       2.867   8.702 -10.607  0.00  0.00    +0.000 C 
ATOM     32  C   UNL     1       3.796   9.050  -9.442  0.00  0.00    +0.005 C 
ATOM     33  C   UNL     1       2.961   9.342  -8.194  0.00  0.00    +0.006 C 
ATOM     34  C   UNL     1       3.890   9.690  -7.029  0.00  0.00    +0.009 C 
ENDBRANCH  25  28
ENDBRANCH  19  20
ENDBRANCH  18  19
ENDBRANCH   1  18
TORSDOF 9
