REMARK  Name = ZINC38508701
REMARK  5 active torsions:
REMARK  status: ('A' for Active; 'I' for Inactive)
REMARK    1  A    between atoms: C_1  and  C_2
REMARK    2  A    between atoms: N_4  and  C_27
REMARK    3  A    between atoms: C_6  and  C_7
REMARK    4  A    between atoms: N_9  and  C_10
REMARK    5  A    between atoms: C_10  and  C_11
REMARK                            x       y       z     vdW  Elec       q    Type
REMARK                         _______ _______ _______ _____ _____    ______ ____
ROOT
ATOM      1  C   UNL     1       0.083  -0.460   2.557  0.00  0.00    +0.273 C 
ATOM      2  O   UNL     1       0.168   0.714   2.861  0.00  0.00    -0.268 OA
ATOM      3  N   UNL     1      -0.048  -1.397   3.516  0.00  0.00    -0.241 N 
ATOM      4  C   UNL     1      -0.197  -1.017   4.840  0.00  0.00    +0.169 A 
ATOM      5  N   UNL     1      -0.331  -1.774   5.903  0.00  0.00    -0.221 NA
ATOM      6  C   UNL     1      -0.469  -1.262   7.146  0.00  0.00    +0.115 A 
ATOM      7  C   UNL     1      -0.621  -1.961   8.368  0.00  0.00    +0.150 A 
ATOM      8  C   UNL     1      -0.751  -1.281   9.553  0.00  0.00    +0.040 A 
ATOM      9  C   UNL     1      -0.738   0.106   9.597  0.00  0.00    +0.004 A 
ATOM     10  C   UNL     1      -0.592   0.820   8.422  0.00  0.00    +0.017 A 
ATOM     11  C   UNL     1      -0.461   0.148   7.231  0.00  0.00    +0.044 A 
ATOM     12  S   UNL     1      -0.249   0.629   5.534  0.00  0.00    -0.052 S 
ATOM     13  F   UNL     1      -0.639  -3.312   8.367  0.00  0.00    -0.203 F 
ENDROOT
BRANCH   1  19
ATOM     14  C   UNL     1       0.123   1.515   0.031  0.00  0.00    +0.048 C 
ATOM     15  C   UNL     1       0.141   0.008   0.017  0.00  0.00    -0.001 A 
ATOM     16  C   UNL     1       0.182  -0.801  -1.067  0.00  0.00    +0.112 A 
ATOM     17  N   UNL     1       0.183  -2.074  -0.617  0.00  0.00    -0.274 N 
ATOM     18  N   UNL     1       0.144  -2.091   0.667  0.00  0.00    -0.167 NA
ATOM     19  C   UNL     1       0.122  -0.859   1.135  0.00  0.00    +0.150 A 
ATOM     20  C   UNL     1       0.222  -3.264  -1.470  0.00  0.00    +0.172 C 
ENDBRANCH   1  19
BRANCH   3  21
ATOM     21  C   UNL     1      -0.032  -2.818   3.160  0.00  0.00    +0.152 C 
BRANCH  21  22
ATOM     22  C   UNL     1       1.376  -3.347   3.265  0.00  0.00    -0.012 A 
ATOM     23  C   UNL     1       2.192  -3.397   2.145  0.00  0.00    +0.008 A 
ATOM     24  C   UNL     1       3.479  -3.891   2.289  0.00  0.00    +0.020 A 
ATOM     25  C   UNL     1       3.904  -4.313   3.535  0.00  0.00    +0.111 A 
ATOM     26  N   UNL     1       3.099  -4.251   4.578  0.00  0.00    -0.263 NA
ATOM     27  C   UNL     1       1.871  -3.781   4.479  0.00  0.00    +0.116 A 
ENDBRANCH  21  22
ENDBRANCH   3  21
TORSDOF 3
