REMARK  Name = ZINC20906837
REMARK  8 active torsions:
REMARK  status: ('A' for Active; 'I' for Inactive)
REMARK    1  A    between atoms: C_3  and  C_8
REMARK    2  A    between atoms: C_5  and  O_7
REMARK    3  A    between atoms: N_9  and  N_10
REMARK    4  A    between atoms: C_13  and  S_16
REMARK    5  A    between atoms: S_16  and  C_17
REMARK    6  A    between atoms: C_17  and  C_18
REMARK    7  A    between atoms: N_20  and  N_21
REMARK    8  A    between atoms: C_22  and  C_24
REMARK                            x       y       z     vdW  Elec       q    Type
REMARK                         _______ _______ _______ _____ _____    ______ ____
ROOT
ATOM      1  N   UNL     1      -1.234   7.354   0.051  0.00  0.00    -0.205 N 
ATOM      2  C   UNL     1      -2.447   8.028   0.066  0.00  0.00    +0.232 A 
ATOM      3  N   UNL     1      -2.612   9.385   0.074  0.00  0.00    -0.186 NA
ATOM      4  C   UNL     1      -3.953   9.647   0.089  0.00  0.00    +0.211 A 
ATOM      5  N   UNL     1      -4.590   8.500   0.090  0.00  0.00    -0.144 NA
ATOM      6  N   UNL     1      -3.636   7.475   0.070  0.00  0.00    -0.245 N 
ATOM      7  H   UNL     1      -0.291   7.920   0.044  0.00  0.00    +0.177 HD
ATOM      8  H   UNL     1      -3.732   6.379   0.058  0.00  0.00    +0.192 HD
ENDROOT
BRANCH   1  10
ATOM      9  C   UNL     1      -0.076   5.323   0.030  0.00  0.00    +0.138 C 
ATOM     10  N   UNL     1      -1.211   5.953   0.044  0.00  0.00    -0.188 NA
BRANCH   9  13
ATOM     11  C   UNL     1      -1.221   1.748   0.017  0.00  0.00    +0.004 A 
ATOM     12  C   UNL     1      -1.248   3.127   0.031  0.00  0.00    +0.010 A 
ATOM     13  C   UNL     1      -0.051   3.849   0.023  0.00  0.00    -0.002 A 
ATOM     14  C   UNL     1       1.168   3.168   0.007  0.00  0.00    +0.054 A 
ATOM     15  C   UNL     1       1.182   1.784   0.000  0.00  0.00    +0.117 A 
ATOM     16  C   UNL     1      -0.013   1.076   0.008  0.00  0.00    +0.045 A 
BRANCH  15  17
ATOM     17  O   UNL     1       2.366   1.117  -0.015  0.00  0.00    -0.507 OA
ATOM     18  H   UNL     1       2.378   0.017  -0.020  0.00  0.00    +0.292 HD
ENDBRANCH  15  17
ENDBRANCH   9  13
ENDBRANCH   1  10
BRANCH   4  19
ATOM     19  S   UNL     1      -4.696  11.245   0.103  0.00  0.00    -0.075 S 
BRANCH  19  20
ATOM     20  C   UNL     1      -6.477  10.900   0.119  0.00  0.00    +0.174 C 
BRANCH  20  21
ATOM     21  C   UNL     1      -7.239  12.200   0.133  0.00  0.00    +0.239 C 
ATOM     22  O   UNL     1      -6.641  13.255   0.131  0.00  0.00    -0.273 OA
ATOM     23  N   UNL     1      -8.587  12.190   0.146  0.00  0.00    -0.233 N 
ATOM     24  H   UNL     1      -9.130  11.234   0.148  0.00  0.00    +0.173 HD
BRANCH  23  25
ATOM     25  N   UNL     1      -9.296  13.399   0.159  0.00  0.00    -0.227 N 
ATOM     26  C   UNL     1     -10.644  13.389   0.172  0.00  0.00    +0.333 C 
ATOM     27  O   UNL     1     -11.243  12.334   0.173  0.00  0.00    -0.264 OA
ATOM     28  H   UNL     1      -8.753  14.355   0.157  0.00  0.00    +0.173 HD
BRANCH  26  29
ATOM     29  C   UNL     1     -11.407  14.688   0.185  0.00  0.00    +0.471 C 
ATOM     30  F   UNL     1     -12.780  14.423   0.198  0.00  0.00    -0.162 F 
ATOM     31  F   UNL     1     -11.063  15.419   1.327  0.00  0.00    -0.162 F 
ATOM     32  F   UNL     1     -11.085  15.429  -0.957  0.00  0.00    -0.162 F 
ENDBRANCH  26  29
ENDBRANCH  23  25
ENDBRANCH  20  21
ENDBRANCH  19  20
ENDBRANCH   4  19
TORSDOF 8
