REMARK  Name = ZINC04794117
REMARK  9 active torsions:
REMARK  status: ('A' for Active; 'I' for Inactive)
REMARK    1  A    between atoms: C_4  and  N_7
REMARK    2  A    between atoms: C_12  and  C_13
REMARK    3  A    between atoms: C_12  and  N_67
REMARK    4  A    between atoms: C_13  and  N_14
REMARK    5  A    between atoms: C_15  and  C_17
REMARK    6  A    between atoms: C_20  and  C_23
REMARK    7  A    between atoms: C_23  and  N_24
REMARK    8  A    between atoms: N_24  and  S_25
REMARK    9  A    between atoms: S_25  and  C_28
REMARK                            x       y       z     vdW  Elec       q    Type
REMARK                         _______ _______ _______ _____ _____    ______ ____
ROOT
ATOM      1  N   UNL     1      -8.383   3.158   4.501  0.00  0.00    -0.317 N 
ATOM      2  C   UNL     1      -7.107   3.278   4.918  0.00  0.00    +0.216 C 
ATOM      3  O   UNL     1      -6.512   4.322   4.756  0.00  0.00    -0.276 OA
ATOM      4  H   UNL     1      -8.859   2.323   4.631  0.00  0.00    +0.149 HD
ENDROOT
BRANCH   2   5
ATOM      5  C   UNL     1      -6.420   2.115   5.587  0.00  0.00    +0.075 C 
ATOM      6  C   UNL     1      -4.990   2.513   5.960  0.00  0.00    +0.013 C 
ATOM      7  C   UNL     1      -4.222   2.900   4.694  0.00  0.00    +0.005 C 
ATOM      8  C   UNL     1      -4.187   1.709   3.735  0.00  0.00    +0.005 C 
ATOM      9  C   UNL     1      -5.616   1.311   3.362  0.00  0.00    +0.005 C 
ATOM     10  C   UNL     1      -6.384   0.924   4.628  0.00  0.00    +0.013 C 
BRANCH   8  11
ATOM     11  C   UNL     1      -3.419   2.096   2.469  0.00  0.00    +0.109 C 
BRANCH  11  12
ATOM     12  N   UNL     1      -3.281   0.922   1.603  0.00  0.00    -0.189 NA
ATOM     13  H   UNL     1      -3.454   0.035   1.957  0.00  0.00    +0.148 HD
BRANCH  12  14
ATOM     14  S   UNL     1      -2.832   1.109   0.021  0.00  0.00    +0.065 S 
ATOM     15  O   UNL     1      -3.664   2.126  -0.521  0.00  0.00    -0.153 OA
ATOM     16  O   UNL     1      -2.761  -0.196  -0.538  0.00  0.00    -0.153 OA
BRANCH  14  17
ATOM     17  C   UNL     1      -1.190   1.748   0.017  0.00  0.00    +0.142 A 
ATOM     18  C   UNL     1      -0.013   1.076   0.008  0.00  0.00    +0.036 A 
ATOM     19  C   UNL     1       1.169   1.793   0.001  0.00  0.00    +0.010 A 
ATOM     20  C   UNL     1       1.115   3.148   0.008  0.00  0.00    +0.047 A 
ATOM     21  S   UNL     1      -0.644   3.448   0.027  0.00  0.00    -0.077 S 
ENDBRANCH  14  17
ENDBRANCH  12  14
ENDBRANCH  11  12
ENDBRANCH   8  11
ENDBRANCH   2   5
BRANCH   1  22
ATOM     22  C   UNL     1      -9.051   4.288   3.851  0.00  0.00    +0.085 C 
BRANCH  22  23
ATOM     23  C   UNL     1     -10.480   3.890   3.479  0.00  0.00    -0.060 C 
BRANCH  23  29
ATOM     24  N   UNL     1     -13.246   6.913   2.449  0.00  0.00    -0.333 N 
ATOM     25  C   UNL     1     -13.061   5.799   1.508  0.00  0.00    +0.086 C 
ATOM     26  C   UNL     1     -12.435   4.612   2.244  0.00  0.00    -0.060 C 
ATOM     27  C   UNL     1     -11.334   6.138   3.767  0.00  0.00    -0.060 C 
ATOM     28  C   UNL     1     -11.961   7.325   3.031  0.00  0.00    +0.086 C 
ATOM     29  N   UNL     1     -11.134   5.033   2.806  0.00  0.00    +0.383 N 
ATOM     30  H   UNL     1     -10.530   5.361   2.043  0.00  0.00    -0.082 HD
BRANCH  24  34
ATOM     31  C   UNL     1     -15.143  10.127   0.601  0.00  0.00    +0.000 A 
ATOM     32  C   UNL     1     -14.780  10.212   1.933  0.00  0.00    +0.002 A 
ATOM     33  C   UNL     1     -14.151   9.148   2.549  0.00  0.00    +0.023 A 
ATOM     34  C   UNL     1     -13.882   7.991   1.829  0.00  0.00    +0.030 A 
ATOM     35  C   UNL     1     -14.243   7.910   0.490  0.00  0.00    +0.023 A 
ATOM     36  C   UNL     1     -14.877   8.976  -0.118  0.00  0.00    +0.002 A 
ENDBRANCH  24  34
ENDBRANCH  23  29
ENDBRANCH  22  23
ENDBRANCH   1  22
TORSDOF 9
