REMARK  Name = ZINC24275740
REMARK  7 active torsions:
REMARK  status: ('A' for Active; 'I' for Inactive)
REMARK    1  A    between atoms: C_1  and  C_2
REMARK    2  A    between atoms: C_2  and  C_3
REMARK    3  A    between atoms: C_2  and  C_4
REMARK    4  A    between atoms: C_4  and  C_6
REMARK    5  A    between atoms: C_4  and  N_16
REMARK    6  A    between atoms: C_17  and  C_19
REMARK    7  A    between atoms: N_28  and  C_29
REMARK                            x       y       z     vdW  Elec       q    Type
REMARK                         _______ _______ _______ _____ _____    ______ ____
ROOT
ATOM      1  N   UNL     1       3.909   6.340  -0.696  0.00  0.00    -0.308 N 
ATOM      2  C   UNL     1       3.682   7.602  -0.279  0.00  0.00    +0.218 C 
ATOM      3  O   UNL     1       2.780   8.249  -0.768  0.00  0.00    -0.275 OA
ATOM      4  H   UNL     1       4.727   5.753  -0.253  0.00  0.00    +0.149 HD
ENDROOT
BRANCH   2   5
ATOM      5  C   UNL     1       4.548   8.208   0.795  0.00  0.00    +0.092 C 
ATOM      6  C   UNL     1       4.082   9.637   1.081  0.00  0.00    +0.016 C 
ATOM      7  C   UNL     1       4.940  10.242   2.194  0.00  0.00    +0.020 C 
ATOM      8  C   UNL     1       6.401  10.293   1.737  0.00  0.00    +0.109 C 
ATOM      9  N   UNL     1       6.814   8.945   1.322  0.00  0.00    -0.285 N 
ATOM     10  C   UNL     1       6.005   8.235   0.322  0.00  0.00    +0.122 C 
ATOM     11  C   UNL     1       7.913   8.371   1.849  0.00  0.00    +0.306 C 
ATOM     12  O   UNL     1       8.191   7.220   1.570  0.00  0.00    -0.252 OA
ATOM     13  N   UNL     1       8.705   9.072   2.685  0.00  0.00    -0.269 N 
ATOM     14  H   UNL     1       8.415  10.086   2.995  0.00  0.00    +0.156 HD
BRANCH  13  15
ATOM     15  C   UNL     1       9.896   8.509   3.157  0.00  0.00    +0.035 A 
ATOM     16  C   UNL     1       9.960   7.151   3.438  0.00  0.00    +0.023 A 
ATOM     17  C   UNL     1      11.138   6.597   3.900  0.00  0.00    +0.002 A 
ATOM     18  C   UNL     1      12.250   7.396   4.093  0.00  0.00    +0.000 A 
ATOM     19  C   UNL     1      12.188   8.750   3.819  0.00  0.00    +0.002 A 
ATOM     20  C   UNL     1      11.014   9.309   3.352  0.00  0.00    +0.023 A 
ENDBRANCH  13  15
ENDBRANCH   2   5
BRANCH   1  21
ATOM     21  C   UNL     1       3.067   5.751  -1.740  0.00  0.00    +0.106 C 
BRANCH  21  22
ATOM     22  C   UNL     1       3.081   4.250  -1.608  0.00  0.00    -0.023 A 
ATOM     23  C   UNL     1       4.258   3.595  -1.296  0.00  0.00    +0.009 A 
ATOM     24  C   UNL     1       4.274   2.218  -1.176  0.00  0.00    +0.050 A 
ATOM     25  C   UNL     1       3.110   1.490  -1.367  0.00  0.00    +0.162 A 
ATOM     26  C   UNL     1       1.926   2.148  -1.678  0.00  0.00    +0.162 A 
ATOM     27  C   UNL     1       1.916   3.530  -1.799  0.00  0.00    +0.055 A 
ATOM     28  O   UNL     1       0.771   1.453  -1.866  0.00  0.00    -0.485 OA
ATOM     29  C   UNL     1       0.898   0.048  -2.107  0.00  0.00    +0.270 C 
ATOM     30  C   UNL     1       1.884  -0.528  -1.081  0.00  0.00    +0.270 C 
ATOM     31  O   UNL     1       3.143   0.134  -1.249  0.00  0.00    -0.485 OA
ENDBRANCH  21  22
BRANCH  21  33
ATOM     32  C   UNL     1       2.728   5.531  -4.205  0.00  0.00    +0.009 C 
ATOM     33  C   UNL     1       3.607   6.147  -3.115  0.00  0.00    +0.008 C 
ATOM     34  C   UNL     1       3.594   7.671  -3.249  0.00  0.00    +0.009 C 
ENDBRANCH  21  33
ENDBRANCH   1  21
TORSDOF 5
