REMARK  Name = ZINC55079726
REMARK  6 active torsions:
REMARK  status: ('A' for Active; 'I' for Inactive)
REMARK    1  A    between atoms: C_1  and  C_2
REMARK    2  A    between atoms: C_2  and  C_3
REMARK    3  A    between atoms: C_3  and  C_5
REMARK    4  A    between atoms: C_3  and  N_6
REMARK    5  A    between atoms: C_12  and  C_14
REMARK    6  A    between atoms: C_14  and  C_20
REMARK                            x       y       z     vdW  Elec       q    Type
REMARK                         _______ _______ _______ _____ _____    ______ ____
ROOT
ATOM      1  N   UNL     1       2.263  -0.190   1.181  0.00  0.00    -0.297 NA
ATOM      2  C   UNL     1       2.507   1.258   1.170  0.00  0.00    +0.103 C 
ATOM      3  C   UNL     1       3.977   1.523   0.830  0.00  0.00    +0.123 C 
ATOM      4  N   UNL     1       4.818   0.759   1.764  0.00  0.00    -0.298 N 
ATOM      5  C   UNL     1       4.543  -0.677   1.932  0.00  0.00    +0.123 C 
ATOM      6  C   UNL     1       3.050  -0.855   2.229  0.00  0.00    +0.103 C 
ATOM      7  C   UNL     1       5.814   1.357   2.447  0.00  0.00    +0.236 C 
ATOM      8  O   UNL     1       6.084   2.519   2.232  0.00  0.00    -0.274 OA
ENDROOT
BRANCH   7   9
ATOM      9  C   UNL     1       6.592   0.581   3.478  0.00  0.00    +0.133 C 
ATOM     10  C   UNL     1       7.385  -0.531   2.789  0.00  0.00    +0.031 C 
ATOM     11  C   UNL     1       8.175  -1.319   3.836  0.00  0.00    +0.002 C 
ATOM     12  C   UNL     1       9.140  -0.379   4.560  0.00  0.00    +0.000 C 
ATOM     13  C   UNL     1       8.348   0.734   5.249  0.00  0.00    +0.002 C 
ATOM     14  C   UNL     1       7.558   1.522   4.202  0.00  0.00    +0.031 C 
BRANCH   9  15
ATOM     15  C   UNL     1       5.661  -0.011   4.452  0.00  0.00    +0.079 C 
ATOM     16  N   UNL     1       4.942  -0.469   5.204  0.00  0.00    -0.195 NA
ENDBRANCH   9  15
ENDBRANCH   7   9
BRANCH   1  17
ATOM     17  C   UNL     1       0.832  -0.482   1.333  0.00  0.00    +0.053 C 
ATOM     18  C   UNL     1       0.399  -0.178   2.769  0.00  0.00    +0.024 C 
BRANCH  17  20
ATOM     19  C   UNL     1       0.939  -2.247  -0.432  0.00  0.00    +0.005 C 
ATOM     20  C   UNL     1       0.577  -1.960   1.027  0.00  0.00    +0.015 C 
ENDBRANCH  17  20
ENDBRANCH   1  17
TORSDOF 4
