REMARK  Name = ZINC33068965
REMARK  12 active torsions:
REMARK  status: ('A' for Active; 'I' for Inactive)
REMARK    1  A    between atoms: C_1  and  C_2
REMARK    2  A    between atoms: C_2  and  C_3
REMARK    3  A    between atoms: C_3  and  N_4
REMARK    4  A    between atoms: N_4  and  C_5
REMARK    5  A    between atoms: N_4  and  C_16
REMARK    6  A    between atoms: C_5  and  C_6
REMARK    7  A    between atoms: C_9  and  O_14
REMARK    8  A    between atoms: C_10  and  O_12
REMARK    9  A    between atoms: O_12  and  C_13
REMARK   10  A    between atoms: O_14  and  C_15
REMARK   11  A    between atoms: C_16  and  C_17
REMARK   12  A    between atoms: C_22  and  C_27
REMARK                            x       y       z     vdW  Elec       q    Type
REMARK                         _______ _______ _______ _____ _____    ______ ____
ROOT
ATOM      1  N   UNL     1      -1.302  -1.990  -0.068  0.00  0.00    -0.293 NA
ENDROOT
BRANCH   1   2
ATOM      2  C   UNL     1      -1.082  -0.554   0.149  0.00  0.00    +0.085 C 
BRANCH   2   4
ATOM      3  C   UNL     1       0.625   1.181   0.714  0.00  0.00    +0.005 C 
ATOM      4  C   UNL     1       0.411  -0.292   0.361  0.00  0.00    +0.012 C 
ENDBRANCH   2   4
ENDBRANCH   1   2
BRANCH   1   5
ATOM      5  C   UNL     1      -2.722  -2.334   0.082  0.00  0.00    +0.120 C 
BRANCH   5   6
ATOM      6  C   UNL     1      -3.143  -2.119   1.513  0.00  0.00    -0.030 A 
ATOM      7  C   UNL     1      -3.029  -3.150   2.427  0.00  0.00    +0.009 A 
ATOM      8  C   UNL     1      -3.413  -2.959   3.741  0.00  0.00    +0.050 A 
ATOM      9  C   UNL     1      -3.914  -1.731   4.144  0.00  0.00    +0.162 A 
ATOM     10  C   UNL     1      -4.028  -0.693   3.224  0.00  0.00    +0.162 A 
ATOM     11  C   UNL     1      -3.636  -0.891   1.910  0.00  0.00    +0.054 A 
BRANCH  10  12
ATOM     12  O   UNL     1      -4.519   0.513   3.615  0.00  0.00    -0.491 OA
ATOM     13  C   UNL     1      -4.607   1.532   2.617  0.00  0.00    +0.277 C 
ENDBRANCH  10  12
BRANCH   9  14
ATOM     14  O   UNL     1      -4.293  -1.541   5.436  0.00  0.00    -0.491 OA
ATOM     15  C   UNL     1      -4.148  -2.651   6.325  0.00  0.00    +0.277 C 
ENDBRANCH   9  14
ENDBRANCH   5   6
ENDBRANCH   1   5
BRANCH   1  16
ATOM     16  C   UNL     1      -0.794  -2.407  -1.382  0.00  0.00    +0.138 C 
BRANCH  16  17
ATOM     17  C   UNL     1      -0.684  -3.909  -1.424  0.00  0.00    +0.037 A 
ATOM     18  C   UNL     1      -1.464  -4.646  -2.290  0.00  0.00    +0.093 A 
ATOM     19  C   UNL     1      -1.347  -6.036  -2.315  0.00  0.00    +0.259 A 
ATOM     20  O   UNL     1      -2.035  -6.694  -3.080  0.00  0.00    -0.267 OA
ATOM     21  N   UNL     1      -0.461  -6.661  -1.482  0.00  0.00    -0.261 N 
ATOM     22  C   UNL     1      -0.232  -8.013  -1.391  0.00  0.00    +0.033 A 
ATOM     23  C   UNL     1       0.664  -8.502  -0.534  0.00  0.00    +0.070 A 
ATOM     24  S   UNL     1       1.278  -7.016   0.242  0.00  0.00    -0.059 S 
ATOM     25  C   UNL     1       0.273  -5.853  -0.655  0.00  0.00    +0.158 A 
ATOM     26  N   UNL     1       0.172  -4.547  -0.630  0.00  0.00    -0.337 N 
ATOM     27  C   UNL     1      -1.007  -8.957  -2.273  0.00  0.00    +0.064 C 
ATOM     28  H   UNL     1       0.728  -4.037  -0.021  0.00  0.00    +0.168 HD
ENDBRANCH  16  17
ENDBRANCH   1  16
TORSDOF 8
