REMARK  Name = ZINC06193652
REMARK  10 active torsions:
REMARK  status: ('A' for Active; 'I' for Inactive)
REMARK    1  A    between atoms: C_1  and  C_2
REMARK    2  A    between atoms: C_2  and  N_69
REMARK    3  A    between atoms: C_3  and  C_4
REMARK    4  A    between atoms: C_3  and  N_69
REMARK    5  A    between atoms: C_10  and  C_12
REMARK    6  A    between atoms: C_10  and  C_26
REMARK    7  A    between atoms: C_10  and  N_69
REMARK    8  A    between atoms: C_17  and  C_25
REMARK    9  A    between atoms: C_18  and  C_24
REMARK   10  A    between atoms: N_30  and  C_31
REMARK                            x       y       z     vdW  Elec       q    Type
REMARK                         _______ _______ _______ _____ _____    ______ ____
ROOT
ATOM      1  C   UNL     1       2.918  -2.201  -2.096  0.00  0.00    +0.039 C 
ENDROOT
BRANCH   1   2
ATOM      2  C   UNL     1       1.445  -1.885  -2.117  0.00  0.00    +0.011 A 
ATOM      3  C   UNL     1       0.587  -2.615  -1.362  0.00  0.00    +0.017 A 
ATOM      4  C   UNL     1      -0.838  -2.283  -1.405  0.00  0.00    -0.001 A 
ATOM      5  C   UNL     1      -1.772  -2.999  -0.648  0.00  0.00    +0.010 A 
ATOM      6  C   UNL     1      -3.094  -2.663  -0.710  0.00  0.00    +0.004 A 
ATOM      7  C   UNL     1      -3.521  -1.618  -1.518  0.00  0.00    -0.046 A 
ATOM      8  C   UNL     1      -2.619  -0.899  -2.273  0.00  0.00    -0.024 A 
ATOM      9  C   UNL     1      -1.267  -1.222  -2.225  0.00  0.00    +0.052 A 
ATOM     10  N   UNL     1      -0.343  -0.519  -2.969  0.00  0.00    -0.322 N 
ATOM     11  H   UNL     1      -0.650   0.232  -3.554  0.00  0.00    +0.169 HD
ATOM     12  C   UNL     1       0.964  -0.828  -2.919  0.00  0.00    +0.251 A 
ATOM     13  O   UNL     1       1.754  -0.182  -3.586  0.00  0.00    -0.268 OA
ATOM     14  C   UNL     1      -3.097   0.233  -3.146  0.00  0.00    +0.046 C 
ATOM     15  C   UNL     1      -4.985  -1.266  -1.571  0.00  0.00    +0.044 C 
ENDBRANCH   1   2
BRANCH   1  16
ATOM     16  C   UNL     1       3.392  -2.484  -3.499  0.00  0.00    +0.143 A 
ATOM     17  N   UNL     1       3.840  -1.609  -4.365  0.00  0.00    -0.115 NA
ATOM     18  N   UNL     1       4.145  -2.239  -5.447  0.00  0.00    -0.023 NA
ATOM     19  N   UNL     1       3.902  -3.494  -5.293  0.00  0.00    -0.044 NA
ATOM     20  N   UNL     1       3.442  -3.686  -4.103  0.00  0.00    -0.227 N 
BRANCH  20  21
ATOM     21  C   UNL     1       3.044  -4.970  -3.521  0.00  0.00    +0.111 C 
ATOM     22  C   UNL     1       4.246  -5.917  -3.506  0.00  0.00    +0.027 C 
ATOM     23  C   UNL     1       3.831  -7.258  -2.898  0.00  0.00    +0.002 C 
ATOM     24  C   UNL     1       2.708  -7.872  -3.736  0.00  0.00    +0.000 C 
ATOM     25  C   UNL     1       1.506  -6.926  -3.750  0.00  0.00    +0.002 C 
ATOM     26  C   UNL     1       1.921  -5.584  -4.359  0.00  0.00    +0.027 C 
ENDBRANCH  20  21
ENDBRANCH   1  16
BRANCH   1  27
ATOM     27  N   UNL     1       3.657  -1.034  -1.572  0.00  0.00    +0.392 N 
ATOM     28  H   UNL     1       3.654  -0.291  -2.281  0.00  0.00    -0.080 HD
BRANCH  27  30
ATOM     29  C   UNL     1       5.772  -1.716  -2.595  0.00  0.00    -0.017 C 
ATOM     30  C   UNL     1       5.056  -1.411  -1.278  0.00  0.00    -0.080 C 
ENDBRANCH  27  30
BRANCH  27  31
ATOM     31  C   UNL     1       3.002  -0.530  -0.346  0.00  0.00    -0.042 C 
BRANCH  31  32
ATOM     32  C   UNL     1       3.417   0.902  -0.131  0.00  0.00    -0.064 A 
ATOM     33  C   UNL     1       2.904   1.900  -0.939  0.00  0.00    +0.002 A 
ATOM     34  C   UNL     1       3.285   3.214  -0.742  0.00  0.00    +0.000 A 
ATOM     35  C   UNL     1       4.180   3.530   0.263  0.00  0.00    +0.000 A 
ATOM     36  C   UNL     1       4.692   2.533   1.072  0.00  0.00    +0.000 A 
ATOM     37  C   UNL     1       4.311   1.219   0.874  0.00  0.00    +0.002 A 
ENDBRANCH  31  32
ENDBRANCH  27  31
ENDBRANCH   1  27
TORSDOF 7
