REMARK  Name = ZINC09497375
REMARK  10 active torsions:
REMARK  status: ('A' for Active; 'I' for Inactive)
REMARK    1  A    between atoms: C_1  and  C_2
REMARK    2  A    between atoms: C_2  and  O_3
REMARK    3  A    between atoms: O_3  and  C_4
REMARK    4  A    between atoms: C_5  and  O_34
REMARK    5  A    between atoms: C_7  and  C_11
REMARK    6  A    between atoms: C_16  and  C_20
REMARK    7  A    between atoms: C_16  and  C_21
REMARK    8  A    between atoms: C_23  and  C_33
REMARK    9  A    between atoms: C_24  and  C_25
REMARK   10  A    between atoms: O_34  and  C_35
REMARK                            x       y       z     vdW  Elec       q    Type
REMARK                         _______ _______ _______ _____ _____    ______ ____
ROOT
ATOM      1  C   UNL     1       2.391   1.237   0.011  0.00  0.00    +0.090 C 
ATOM      2  C   UNL     1       3.150   1.726   1.220  0.00  0.00    +0.024 C 
ATOM      3  C   UNL     1       4.187   2.578   1.085  0.00  0.00    +0.016 C 
ATOM      4  C   UNL     1       4.954   3.065   2.289  0.00  0.00    +0.058 C 
ATOM      5  C   UNL     1       4.024   3.129   3.500  0.00  0.00    -0.023 C 
ATOM      6  C   UNL     1       3.444   1.731   3.738  0.00  0.00    +0.086 C 
ATOM      7  C   UNL     1       2.746   1.272   2.487  0.00  0.00    +0.162 C 
ATOM      8  O   UNL     1       1.817   0.494   2.574  0.00  0.00    -0.292 OA
ATOM      9  C   UNL     1       2.889   4.118   3.227  0.00  0.00    +0.011 C 
ATOM     10  C   UNL     1       4.811   3.577   4.734  0.00  0.00    +0.011 C 
ATOM     11  N   UNL     1       4.569   3.016  -0.154  0.00  0.00    -0.321 N 
ATOM     12  C   UNL     1       4.206   2.327  -1.279  0.00  0.00    +0.014 C 
ATOM     13  C   UNL     1       3.177   1.465  -1.246  0.00  0.00    +0.043 C 
ATOM     14  C   UNL     1       4.966   2.537  -2.563  0.00  0.00    +0.061 C 
ATOM     15  H   UNL     1       5.174   3.930  -0.252  0.00  0.00    +0.152 HD
ENDROOT
BRANCH  13  16
ATOM     16  C   UNL     1       2.826   0.757  -2.422  0.00  0.00    +0.245 C 
ATOM     17  O   UNL     1       1.920   1.159  -3.128  0.00  0.00    -0.270 OA
ATOM     18  N   UNL     1       3.497  -0.363  -2.759  0.00  0.00    -0.298 N 
ATOM     19  C   UNL     1       4.662  -0.801  -1.980  0.00  0.00    +0.108 C 
ATOM     20  C   UNL     1       4.441  -2.258  -1.547  0.00  0.00    +0.019 C 
ATOM     21  C   UNL     1       4.155  -3.114  -2.783  0.00  0.00    +0.003 C 
ATOM     22  C   UNL     1       2.879  -2.615  -3.466  0.00  0.00    +0.019 C 
ATOM     23  C   UNL     1       3.079  -1.165  -3.917  0.00  0.00    +0.108 C 
ENDBRANCH  13  16
BRANCH   1  27
ATOM     24  C   UNL     1      -1.323   3.341  -0.256  0.00  0.00    +0.176 A 
ATOM     25  C   UNL     1      -1.313   1.951  -0.202  0.00  0.00    +0.163 A 
ATOM     26  C   UNL     1      -0.108   1.273  -0.110  0.00  0.00    +0.054 A 
ATOM     27  C   UNL     1       1.081   1.977  -0.083  0.00  0.00    -0.031 A 
ATOM     28  C   UNL     1       1.072   3.358  -0.142  0.00  0.00    +0.023 A 
ATOM     29  C   UNL     1      -0.127   4.042  -0.229  0.00  0.00    +0.063 A 
ATOM     30 BR   UNL     1      -0.136   5.931  -0.311  0.00  0.00    -0.046 Br
BRANCH  25  31
ATOM     31  O   UNL     1      -2.483   1.259  -0.235  0.00  0.00    -0.491 OA
ATOM     32  C   UNL     1      -2.405  -0.157  -0.061  0.00  0.00    +0.277 C 
ENDBRANCH  25  31
BRANCH  24  33
ATOM     33  O   UNL     1      -2.504   4.012  -0.342  0.00  0.00    -0.487 OA
BRANCH  33  35
ATOM     34  C   UNL     1      -4.332   5.032  -1.549  0.00  0.00    +0.048 C 
ATOM     35  C   UNL     1      -3.006   4.276  -1.654  0.00  0.00    +0.226 C 
ENDBRANCH  33  35
ENDBRANCH  24  33
ENDBRANCH   1  27
TORSDOF 5
