REMARK  Name = ZINC01837812
REMARK  13 active torsions:
REMARK  status: ('A' for Active; 'I' for Inactive)
REMARK    1  A    between atoms: C_1  and  O_2
REMARK    2  A    between atoms: O_2  and  C_3
REMARK    3  A    between atoms: C_6  and  C_11
REMARK    4  A    between atoms: C_8  and  O_9
REMARK    5  A    between atoms: O_9  and  C_10
REMARK    6  A    between atoms: C_11  and  N_13
REMARK    7  A    between atoms: N_13  and  O_14
REMARK    8  A    between atoms: O_14  and  C_15
REMARK    9  A    between atoms: C_15  and  C_16
REMARK   10  A    between atoms: C_20  and  C_40
REMARK   11  A    between atoms: C_21  and  C_34
REMARK   12  A    between atoms: N_22  and  C_28
REMARK   13  A    between atoms: C_28  and  C_29
REMARK                            x       y       z     vdW  Elec       q    Type
REMARK                         _______ _______ _______ _____ _____    ______ ____
ROOT
ATOM      1  C   UNL     1       5.277  -1.635  -8.722  0.00  0.00    +0.180 A 
ATOM      2  N   UNL     1       6.463  -2.233  -8.689  0.00  0.00    -0.208 NA
ATOM      3  C   UNL     1       6.641  -2.927  -9.797  0.00  0.00    +0.169 A 
ATOM      4  C   UNL     1       7.710  -3.768 -10.323  0.00  0.00    +0.071 A 
ATOM      5  C   UNL     1       9.024  -4.189  -9.842  0.00  0.00    +0.020 A 
ATOM      6  C   UNL     1       9.555  -5.000 -10.828  0.00  0.00    +0.060 A 
ATOM      7  N   UNL     1       8.654  -5.093 -11.860  0.00  0.00    -0.317 N 
ATOM      8  C   UNL     1       7.532  -4.358 -11.581  0.00  0.00    +0.147 A 
ATOM      9  N   UNL     1       6.393  -4.131 -12.252  0.00  0.00    -0.217 NA
ATOM     10  C   UNL     1       5.441  -3.381 -11.780  0.00  0.00    +0.227 A 
ATOM     11  N   UNL     1       5.522  -2.766 -10.572  0.00  0.00    -0.201 N 
ATOM     12  N   UNL     1       4.665  -1.932  -9.842  0.00  0.00    -0.146 NA
ENDROOT
BRANCH   6  13
ATOM     13  C   UNL     1      10.875  -5.659 -10.779  0.00  0.00    -0.001 A 
ATOM     14  C   UNL     1      11.793  -5.469 -11.814  0.00  0.00    +0.010 A 
ATOM     15  C   UNL     1      13.025  -6.087 -11.762  0.00  0.00    +0.001 A 
ATOM     16  C   UNL     1      13.352  -6.895 -10.687  0.00  0.00    +0.000 A 
ATOM     17  C   UNL     1      12.447  -7.088  -9.658  0.00  0.00    +0.001 A 
ATOM     18  C   UNL     1      11.214  -6.472  -9.694  0.00  0.00    +0.010 A 
ENDBRANCH   6  13
BRANCH   5  19
ATOM     19  C   UNL     1       9.660  -3.822  -8.556  0.00  0.00    -0.015 A 
ATOM     20  C   UNL     1      10.805  -3.024  -8.544  0.00  0.00    +0.008 A 
ATOM     21  C   UNL     1      11.392  -2.685  -7.342  0.00  0.00    +0.001 A 
ATOM     22  C   UNL     1      10.849  -3.134  -6.152  0.00  0.00    +0.000 A 
ATOM     23  C   UNL     1       9.714  -3.925  -6.158  0.00  0.00    +0.001 A 
ATOM     24  C   UNL     1       9.113  -4.266  -7.352  0.00  0.00    +0.008 A 
ENDBRANCH   5  19
BRANCH   1  25
ATOM     25  C   UNL     1       4.718  -0.754  -7.633  0.00  0.00    +0.270 C 
BRANCH  25  26
ATOM     26  O   UNL     1       3.987  -1.554  -6.702  0.00  0.00    -0.266 OA
BRANCH  26  27
ATOM     27  N   UNL     1       3.418  -0.819  -5.634  0.00  0.00    -0.265 N 
ATOM     28  H   UNL     1       3.543   0.142  -5.586  0.00  0.00    +0.194 HD
BRANCH  27  29
ATOM     29  C   UNL     1       2.677  -1.477  -4.651  0.00  0.00    +0.062 C 
ATOM     30  C   UNL     1       2.506  -2.798  -4.718  0.00  0.00    +0.038 C 
BRANCH  29  34
ATOM     31  C   UNL     1       0.968   0.737  -1.446  0.00  0.00    +0.162 A 
ATOM     32  C   UNL     1       1.705   1.389  -2.423  0.00  0.00    +0.050 A 
ATOM     33  C   UNL     1       2.260   0.673  -3.464  0.00  0.00    +0.014 A 
ATOM     34  C   UNL     1       2.082  -0.708  -3.535  0.00  0.00    +0.003 A 
ATOM     35  C   UNL     1       1.341  -1.364  -2.552  0.00  0.00    +0.059 A 
ATOM     36  C   UNL     1       0.790  -0.643  -1.508  0.00  0.00    +0.162 A 
BRANCH  31  38
ATOM     37  C   UNL     1       0.643   2.858  -0.420  0.00  0.00    +0.277 C 
ATOM     38  O   UNL     1       0.422   1.446  -0.422  0.00  0.00    -0.491 OA
ENDBRANCH  31  38
BRANCH  36  39
ATOM     39  O   UNL     1       0.072  -1.280  -0.545  0.00  0.00    -0.491 OA
ATOM     40  C   UNL     1      -0.069  -2.697  -0.672  0.00  0.00    +0.277 C 
ENDBRANCH  36  39
ENDBRANCH  29  34
ENDBRANCH  27  29
ENDBRANCH  26  27
ENDBRANCH  25  26
ENDBRANCH   1  25
BRANCH   7  41
ATOM     41  C   UNL     1       8.863  -5.866 -13.087  0.00  0.00    +0.198 C 
BRANCH  41  42
ATOM     42  C   UNL     1       8.345  -7.268 -12.891  0.00  0.00    +0.124 A 
ATOM     43  C   UNL     1       7.083  -7.678 -13.109  0.00  0.00    +0.046 A 
ATOM     44  C   UNL     1       7.041  -9.057 -12.801  0.00  0.00    +0.041 A 
ATOM     45  C   UNL     1       8.280  -9.407 -12.413  0.00  0.00    +0.195 A 
ATOM     46  O   UNL     1       9.068  -8.321 -12.476  0.00  0.00    -0.466 OA
ENDBRANCH  41  42
ENDBRANCH   7  41
TORSDOF 11
