REMARK  Name = ZINC13124174
REMARK  8 active torsions:
REMARK  status: ('A' for Active; 'I' for Inactive)
REMARK    1  A    between atoms: C_1  and  O_2
REMARK    2  A    between atoms: O_2  and  C_3
REMARK    3  A    between atoms: C_5  and  C_12
REMARK    4  A    between atoms: C_7  and  O_10
REMARK    5  A    between atoms: C_8  and  O_9
REMARK    6  A    between atoms: O_10  and  C_11
REMARK    7  A    between atoms: C_15  and  C_33
REMARK    8  A    between atoms: C_16  and  C_18
REMARK                            x       y       z     vdW  Elec       q    Type
REMARK                         _______ _______ _______ _____ _____    ______ ____
ROOT
ATOM      1  C   UNL     1      -4.867   0.229   0.150  0.00  0.00    +0.117 A 
ATOM      2  N   UNL     1      -4.936   1.593   0.141  0.00  0.00    -0.339 N 
ATOM      3  H   UNL     1      -4.191   2.208   0.221  0.00  0.00    +0.167 HD
ATOM      4  C   UNL     1      -6.263   1.931  -0.005  0.00  0.00    +0.072 A 
ATOM      5  C   UNL     1      -6.964   0.739  -0.080  0.00  0.00    +0.072 A 
ATOM      6  N   UNL     1      -6.076  -0.265   0.013  0.00  0.00    -0.339 N 
ATOM      7  H   UNL     1      -6.295  -1.209  -0.014  0.00  0.00    +0.167 HD
ENDROOT
BRANCH   5   8
ATOM      8  C   UNL     1      -8.430   0.597  -0.240  0.00  0.00    +0.001 A 
ATOM      9  C   UNL     1      -9.095   1.346  -1.212  0.00  0.00    +0.012 A 
ATOM     10  C   UNL     1     -10.464   1.204  -1.353  0.00  0.00    +0.028 A 
ATOM     11  C   UNL     1     -11.149   0.336  -0.542  0.00  0.00    +0.101 A 
ATOM     12  C   UNL     1     -10.520  -0.429   0.440  0.00  0.00    +0.010 A 
ATOM     13  C   UNL     1      -9.127  -0.284   0.573  0.00  0.00    +0.020 A 
ATOM     14  C   UNL     1     -11.407  -1.322   1.234  0.00  0.00    +0.009 A 
ATOM     15  C   UNL     1     -11.026  -2.189   2.276  0.00  0.00    +0.010 A 
ATOM     16  C   UNL     1     -11.963  -2.959   2.924  0.00  0.00    +0.001 A 
ATOM     17  C   UNL     1     -13.299  -2.901   2.570  0.00  0.00    +0.002 A 
ATOM     18  C   UNL     1     -13.694  -2.053   1.548  0.00  0.00    +0.028 A 
ATOM     19  C   UNL     1     -12.760  -1.286   0.902  0.00  0.00    +0.101 A 
ATOM     20  S   UNL     1     -12.863  -0.109  -0.422  0.00  0.00    +0.026 S 
ATOM     21  O   UNL     1     -13.214  -0.814  -1.605  0.00  0.00    -0.164 OA
ATOM     22  O   UNL     1     -13.574   1.024   0.057  0.00  0.00    -0.164 OA
ENDBRANCH   5   8
BRANCH   1  25
ATOM     23  C   UNL     1      -1.238  -0.666   0.554  0.00  0.00    +0.166 A 
ATOM     24  C   UNL     1      -2.397   0.079   0.426  0.00  0.00    +0.061 A 
ATOM     25  C   UNL     1      -3.628  -0.564   0.287  0.00  0.00    +0.023 A 
ATOM     26  C   UNL     1      -3.686  -1.959   0.276  0.00  0.00    +0.061 A 
ATOM     27  C   UNL     1      -2.525  -2.700   0.404  0.00  0.00    +0.166 A 
ATOM     28  C   UNL     1      -1.299  -2.056   0.538  0.00  0.00    +0.201 A 
BRANCH  23  30
ATOM     29  C   UNL     1      -0.051   1.390   0.698  0.00  0.00    +0.277 C 
ATOM     30  O   UNL     1      -0.039  -0.039   0.690  0.00  0.00    -0.491 OA
ENDBRANCH  23  30
BRANCH  28  31
ATOM     31  O   UNL     1      -0.158  -2.786   0.659  0.00  0.00    -0.501 OA
ATOM     32  H   UNL     1       0.076  -3.003   1.572  0.00  0.00    +0.292 HD
ENDBRANCH  28  31
BRANCH  27  33
ATOM     33  O   UNL     1      -2.581  -4.059   0.395  0.00  0.00    -0.491 OA
ATOM     34  C   UNL     1      -3.872  -4.654   0.249  0.00  0.00    +0.277 C 
ENDBRANCH  27  33
ENDBRANCH   1  25
BRANCH   4  35
ATOM     35  C   UNL     1      -6.826   3.293  -0.069  0.00  0.00    +0.000 A 
ATOM     36  C   UNL     1      -7.942   3.628   0.703  0.00  0.00    +0.010 A 
ATOM     37  C   UNL     1      -8.463   4.903   0.638  0.00  0.00    +0.001 A 
ATOM     38  C   UNL     1      -7.884   5.850  -0.188  0.00  0.00    +0.000 A 
ATOM     39  C   UNL     1      -6.779   5.526  -0.955  0.00  0.00    +0.001 A 
ATOM     40  C   UNL     1      -6.243   4.256  -0.896  0.00  0.00    +0.010 A 
ENDBRANCH   4  35
TORSDOF 6
