REMARK  Name = ZINC05459213
REMARK  2 active torsions:
REMARK  status: ('A' for Active; 'I' for Inactive)
REMARK    1  A    between atoms: C_4  and  C_7
REMARK    2  A    between atoms: C_10  and  C_22
REMARK                            x       y       z     vdW  Elec       q    Type
REMARK                         _______ _______ _______ _____ _____    ______ ____
ROOT
ATOM      1  C   UNL     1       3.711  -0.707  -0.038  0.00  0.00    +0.106 C 
ATOM      2  C   UNL     1       4.048  -1.192   1.377  0.00  0.00    +0.057 C 
ATOM      3  C   UNL     1       2.908  -2.067   1.909  0.00  0.00    +0.122 C 
ATOM      4  N   UNL     1       2.572  -3.076   0.901  0.00  0.00    -0.306 N 
ATOM      5  C   UNL     1       1.896  -4.255   1.052  0.00  0.00    +0.069 A 
ATOM      6  C   UNL     1       1.316  -4.876   2.151  0.00  0.00    +0.028 A 
ATOM      7  C   UNL     1       0.699  -6.097   1.932  0.00  0.00    +0.002 A 
ATOM      8  C   UNL     1       0.655  -6.684   0.679  0.00  0.00    +0.002 A 
ATOM      9  C   UNL     1       1.225  -6.086  -0.430  0.00  0.00    +0.028 A 
ATOM     10  C   UNL     1       1.853  -4.851  -0.234  0.00  0.00    +0.065 A 
ATOM     11  N   UNL     1       2.490  -4.020  -1.083  0.00  0.00    -0.327 N 
ATOM     12  C   UNL     1       2.915  -2.973  -0.428  0.00  0.00    +0.175 A 
ATOM     13  N   UNL     1       3.612  -1.878  -0.929  0.00  0.00    -0.309 N 
ATOM     14  H   UNL     1       4.012  -1.883  -1.812  0.00  0.00    +0.149 HD
ATOM     15  H   UNL     1       2.613  -4.176  -2.033  0.00  0.00    +0.169 HD
ENDROOT
BRANCH   3  16
ATOM     16  C   UNL     1       3.344  -2.746   3.181  0.00  0.00    -0.024 A 
ATOM     17  C   UNL     1       4.440  -3.589   3.173  0.00  0.00    +0.007 A 
ATOM     18  C   UNL     1       4.841  -4.213   4.340  0.00  0.00    +0.020 A 
ATOM     19  C   UNL     1       4.145  -3.994   5.515  0.00  0.00    +0.041 A 
ATOM     20  C   UNL     1       3.048  -3.150   5.523  0.00  0.00    +0.020 A 
ATOM     21  C   UNL     1       2.652  -2.522   4.357  0.00  0.00    +0.007 A 
ATOM     22 CL   UNL     1       4.647  -4.777   6.981  0.00  0.00    -0.084 Cl
ENDBRANCH   3  16
BRANCH   1  26
ATOM     23  C   UNL     1      -0.017   1.378   0.010  0.00  0.00    +0.000 A 
ATOM     24  C   UNL     1       1.171   2.086   0.002  0.00  0.00    +0.000 A 
ATOM     25  C   UNL     1       2.377   1.411  -0.013  0.00  0.00    +0.005 A 
ATOM     26  C   UNL     1       2.396   0.029  -0.020  0.00  0.00    -0.027 A 
ATOM     27  C   UNL     1       1.208  -0.679  -0.012  0.00  0.00    +0.005 A 
ATOM     28  C   UNL     1       0.002  -0.004   0.002  0.00  0.00    +0.000 A 
ENDBRANCH   1  26
TORSDOF 2
