REMARK  Name = ZINC34757599
REMARK  7 active torsions:
REMARK  status: ('A' for Active; 'I' for Inactive)
REMARK    1  A    between atoms: C_1  and  N_2
REMARK    2  A    between atoms: C_12  and  O_14
REMARK    3  A    between atoms: O_14  and  C_15
REMARK    4  A    between atoms: C_19  and  O_21
REMARK    5  A    between atoms: O_21  and  C_22
REMARK    6  A    between atoms: C_27  and  C_29
REMARK    7  A    between atoms: C_33  and  C_35
REMARK                            x       y       z     vdW  Elec       q    Type
REMARK                         _______ _______ _______ _____ _____    ______ ____
ROOT
ATOM      1  C   UNL     1      -0.600   1.320   0.387  0.00  0.00    -0.096 C 
ATOM      2  N   UNL     1      -0.474  -0.136   0.240  0.00  0.00    +0.380 N 
ATOM      3  C   UNL     1       0.302  -0.439  -0.969  0.00  0.00    -0.060 C 
ATOM      4  C   UNL     1       0.336  -1.956  -1.186  0.00  0.00    +0.089 C 
ATOM      5  N   UNL     1       0.848  -2.590   0.038  0.00  0.00    -0.303 N 
ATOM      6  C   UNL     1       0.233  -2.217   1.322  0.00  0.00    +0.089 C 
ATOM      7  C   UNL     1       0.203  -0.689   1.420  0.00  0.00    -0.060 C 
ATOM      8  C   UNL     1       1.879  -3.512  -0.015  0.00  0.00    +0.221 A 
ATOM      9  N   UNL     1       2.361  -4.008   1.112  0.00  0.00    -0.219 NA
ATOM     10  C   UNL     1       3.349  -4.899   1.107  0.00  0.00    +0.056 A 
ATOM     11  C   UNL     1       3.866  -5.309  -0.099  0.00  0.00    +0.053 A 
ATOM     12  C   UNL     1       3.342  -4.764  -1.274  0.00  0.00    +0.230 A 
ATOM     13  N   UNL     1       2.355  -3.881  -1.195  0.00  0.00    -0.179 NA
ATOM     14  C   UNL     1       4.965  -6.333  -0.204  0.00  0.00    +0.150 C 
ATOM     15  N   UNL     1       5.543  -6.571   1.124  0.00  0.00    -0.293 N 
ATOM     16  C   UNL     1       4.608  -6.726   2.251  0.00  0.00    +0.114 C 
ATOM     17  C   UNL     1       3.858  -5.406   2.429  0.00  0.00    +0.075 C 
ATOM     18  C   UNL     1       6.876  -6.644   1.304  0.00  0.00    +0.247 C 
ATOM     19  O   UNL     1       7.333  -6.742   2.426  0.00  0.00    -0.270 OA
ATOM     20  H   UNL     1      -1.393  -0.545   0.159  0.00  0.00    -0.082 HD
ENDROOT
BRANCH  18  21
ATOM     21  C   UNL     1       7.784  -6.605   0.138  0.00  0.00    +0.037 A 
ATOM     22  C   UNL     1       9.072  -6.086   0.269  0.00  0.00    +0.013 A 
ATOM     23  C   UNL     1       9.914  -6.053  -0.824  0.00  0.00    +0.001 A 
ATOM     24  C   UNL     1       9.483  -6.533  -2.047  0.00  0.00    +0.012 A 
ATOM     25  C   UNL     1       8.207  -7.050  -2.184  0.00  0.00    +0.056 A 
ATOM     26  C   UNL     1       7.357  -7.093  -1.098  0.00  0.00    +0.025 A 
BRANCH  25  27
ATOM     27  C   UNL     1       7.746  -7.570  -3.521  0.00  0.00    +0.417 C 
ATOM     28  F   UNL     1       8.775  -7.426  -4.458  0.00  0.00    -0.166 F 
ATOM     29  F   UNL     1       7.409  -8.923  -3.404  0.00  0.00    -0.166 F 
ATOM     30  F   UNL     1       6.626  -6.846  -3.943  0.00  0.00    -0.166 F 
ENDBRANCH  25  27
ENDBRANCH  18  21
BRANCH  12  31
ATOM     31  O   UNL     1       3.834  -5.136  -2.481  0.00  0.00    -0.437 OA
BRANCH  31  32
ATOM     32  C   UNL     1       3.376  -4.487  -3.584  0.00  0.00    +0.134 A 
ATOM     33  C   UNL     1       2.697  -3.284  -3.450  0.00  0.00    +0.046 A 
ATOM     34  C   UNL     1       2.232  -2.624  -4.571  0.00  0.00    +0.007 A 
ATOM     35  C   UNL     1       2.441  -3.160  -5.828  0.00  0.00    +0.046 A 
ATOM     36  C   UNL     1       3.119  -4.362  -5.967  0.00  0.00    +0.124 A 
ATOM     37  C   UNL     1       3.592  -5.024  -4.844  0.00  0.00    +0.092 A 
BRANCH  36  38
ATOM     38  O   UNL     1       3.325  -4.888  -7.203  0.00  0.00    -0.495 OA
ATOM     39  C   UNL     1       2.815  -4.150  -8.315  0.00  0.00    +0.277 C 
ENDBRANCH  36  38
ENDBRANCH  31  32
ENDBRANCH  12  31
TORSDOF 5
