REMARK  Name = ZINC05550952
REMARK  2 active torsions:
REMARK  status: ('A' for Active; 'I' for Inactive)
REMARK    1  A    between atoms: C_5  and  C_7
REMARK    2  A    between atoms: N_13  and  C_14
REMARK                            x       y       z     vdW  Elec       q    Type
REMARK                         _______ _______ _______ _____ _____    ______ ____
ROOT
ATOM      1  C   UNL     1      -1.258  -0.760   0.011  0.00  0.00    +0.029 C 
ATOM      2  C   UNL     1      -2.441  -0.106   0.128  0.00  0.00    +0.078 C 
ATOM      3  C   UNL     1      -3.805  -0.655   0.259  0.00  0.00    +0.256 C 
ATOM      4  O   UNL     1      -4.011  -1.854   0.274  0.00  0.00    -0.269 OA
ATOM      5  N   UNL     1      -4.794   0.217   0.359  0.00  0.00    -0.260 N 
ATOM      6  C   UNL     1      -4.541   1.572   0.340  0.00  0.00    +0.166 C 
ATOM      7  N   UNL     1      -5.398   2.564   0.427  0.00  0.00    -0.225 NA
ATOM      8  S   UNL     1      -2.765   1.650   0.174  0.00  0.00    -0.049 S 
ATOM      9  H   UNL     1      -5.707  -0.099   0.446  0.00  0.00    +0.157 HD
ENDROOT
BRANCH   1  14
ATOM     10  C   UNL     1       1.060   1.989  -1.052  0.00  0.00    +0.001 A 
ATOM     11  C   UNL     1       2.293   1.411  -0.803  0.00  0.00    +0.001 A 
ATOM     12  C   UNL     1       2.374   0.128  -0.290  0.00  0.00    +0.020 A 
ATOM     13  C   UNL     1       1.224  -0.586  -0.022  0.00  0.00    +0.048 A 
ATOM     14  C   UNL     1      -0.027  -0.008  -0.272  0.00  0.00    -0.005 A 
ATOM     15  C   UNL     1      -0.099   1.290  -0.790  0.00  0.00    +0.009 A 
ATOM     16 CL   UNL     1       1.327  -2.195   0.622  0.00  0.00    -0.083 Cl
ENDBRANCH   1  14
BRANCH   7  17
ATOM     17  C   UNL     1      -4.953   3.858   0.389  0.00  0.00    +0.080 A 
ATOM     18  C   UNL     1      -3.930   4.222  -0.489  0.00  0.00    +0.029 A 
ATOM     19  C   UNL     1      -3.486   5.528  -0.523  0.00  0.00    +0.002 A 
ATOM     20  C   UNL     1      -4.053   6.476   0.311  0.00  0.00    +0.001 A 
ATOM     21  C   UNL     1      -5.066   6.123   1.184  0.00  0.00    +0.017 A 
ATOM     22  C   UNL     1      -5.524   4.822   1.224  0.00  0.00    +0.043 A 
ATOM     23 BR   UNL     1      -6.915   4.342   2.412  0.00  0.00    -0.048 Br
ENDBRANCH   7  17
TORSDOF 2
