REMARK  Name = ZINC35544242
REMARK  12 active torsions:
REMARK  status: ('A' for Active; 'I' for Inactive)
REMARK    1  A    between atoms: C_1  and  O_2
REMARK    2  A    between atoms: O_2  and  C_3
REMARK    3  A    between atoms: C_5  and  C_13
REMARK    4  A    between atoms: C_7  and  O_11
REMARK    5  A    between atoms: C_8  and  O_9
REMARK    6  A    between atoms: O_9  and  C_10
REMARK    7  A    between atoms: O_11  and  C_12
REMARK    8  A    between atoms: N_17  and  C_18
REMARK    9  A    between atoms: C_18  and  C_19
REMARK   10  A    between atoms: N_21  and  N_22
REMARK   11  A    between atoms: C_23  and  C_24
REMARK   12  A    between atoms: C_29  and  N_30
REMARK                            x       y       z     vdW  Elec       q    Type
REMARK                         _______ _______ _______ _____ _____    ______ ____
ROOT
ATOM      1  C   UNL     1      -5.300   0.617   0.595  0.00  0.00    +0.082 A 
ATOM      2  C   UNL     1      -5.412   2.025   0.682  0.00  0.00    +0.077 A 
ATOM      3  S   UNL     1      -7.176   2.250   0.502  0.00  0.00    -0.060 S 
ATOM      4  C   UNL     1      -7.617   0.526   0.332  0.00  0.00    +0.160 A 
ATOM      5  N   UNL     1      -8.822  -0.019   0.160  0.00  0.00    -0.320 N 
ATOM      6  N   UNL     1      -6.385  -0.095   0.419  0.00  0.00    -0.211 N 
ATOM      7  H   UNL     1      -8.912  -0.981   0.081  0.00  0.00    +0.148 HD
ENDROOT
BRANCH   1  10
ATOM      8  C   UNL     1      -2.512  -1.858   0.127  0.00  0.00    +0.166 A 
ATOM      9  C   UNL     1      -3.747  -1.247   0.032  0.00  0.00    +0.059 A 
ATOM     10  C   UNL     1      -3.982  -0.037   0.696  0.00  0.00    +0.008 A 
ATOM     11  C   UNL     1      -2.963   0.550   1.454  0.00  0.00    +0.059 A 
ATOM     12  C   UNL     1      -1.729  -0.064   1.546  0.00  0.00    +0.166 A 
ATOM     13  C   UNL     1      -1.500  -1.272   0.888  0.00  0.00    +0.204 A 
BRANCH   8  15
ATOM     14  C   UNL     1      -3.364  -3.576  -1.278  0.00  0.00    +0.277 C 
ATOM     15  O   UNL     1      -2.284  -3.033  -0.517  0.00  0.00    -0.491 OA
ENDBRANCH   8  15
BRANCH  13  16
ATOM     16  O   UNL     1      -0.287  -1.877   0.984  0.00  0.00    -0.488 OA
ATOM     17  C   UNL     1       0.692  -1.526   0.005  0.00  0.00    +0.277 C 
ENDBRANCH  13  16
BRANCH  12  18
ATOM     18  O   UNL     1      -0.739   0.507   2.283  0.00  0.00    -0.491 OA
ATOM     19  C   UNL     1      -1.076   1.682   3.022  0.00  0.00    +0.277 C 
ENDBRANCH  12  18
ENDBRANCH   1  10
BRANCH   6  20
ATOM     20  N   UNL     1      -6.304  -1.379   0.332  0.00  0.00    -0.172 NA
ATOM     21  C   UNL     1      -6.311  -2.119   1.429  0.00  0.00    +0.143 C 
BRANCH  21  22
ATOM     22  C   UNL     1      -6.370  -3.528   1.331  0.00  0.00    +0.029 A 
ATOM     23  C   UNL     1      -6.408  -4.149   0.068  0.00  0.00    +0.061 A 
ATOM     24  C   UNL     1      -6.465  -5.521  -0.016  0.00  0.00    +0.167 A 
ATOM     25  C   UNL     1      -6.484  -6.295   1.154  0.00  0.00    +0.168 A 
ATOM     26  C   UNL     1      -6.447  -5.676   2.402  0.00  0.00    +0.083 A 
ATOM     27  C   UNL     1      -6.385  -4.318   2.498  0.00  0.00    +0.138 A 
ATOM     28  O   UNL     1      -6.540  -7.608   0.801  0.00  0.00    -0.453 OA
ATOM     29  C   UNL     1      -6.969  -7.622  -0.573  0.00  0.00    +0.466 C 
ATOM     30  O   UNL     1      -6.510  -6.360  -1.091  0.00  0.00    -0.453 OA
BRANCH  27  31
ATOM     31  N   UNL     1      -6.340  -3.672   3.829  0.00  0.00    +0.057 N 
ATOM     32  O   UNL     1      -6.218  -4.408   4.915  0.00  0.00    -0.126 OA
ATOM     33  O   UNL     1      -6.421  -2.361   3.928  0.00  0.00    -0.126 OA
ENDBRANCH  27  31
ENDBRANCH  21  22
ENDBRANCH   6  20
BRANCH   5  34
ATOM     34  C   UNL     1     -10.009   0.836   0.088  0.00  0.00    +0.130 C 
BRANCH  34  35
ATOM     35  C   UNL     1     -11.233  -0.020  -0.108  0.00  0.00    -0.016 C 
ATOM     36  C   UNL     1     -12.240   0.076   0.725  0.00  0.00    +0.005 C 
ENDBRANCH  34  35
ENDBRANCH   5  34
TORSDOF 9
