REMARK  Name = ZINC39695097
REMARK  8 active torsions:
REMARK  status: ('A' for Active; 'I' for Inactive)
REMARK    1  A    between atoms: C_1  and  C_2
REMARK    2  A    between atoms: C_4  and  C_7
REMARK    3  A    between atoms: C_8  and  C_13
REMARK    4  A    between atoms: C_9  and  C_12
REMARK    5  A    between atoms: C_17  and  C_26
REMARK    6  A    between atoms: N_28  and  C_29
REMARK    7  A    between atoms: C_29  and  C_30
REMARK    8  A    between atoms: C_35  and  C_36
REMARK                            x       y       z     vdW  Elec       q    Type
REMARK                         _______ _______ _______ _____ _____    ______ ____
ROOT
ATOM      1  C   UNL     1       0.455  -5.120   0.019  0.00  0.00    +0.252 C 
ATOM      2  O   UNL     1       1.065  -5.308   1.054  0.00  0.00    -0.270 OA
ATOM      3  N   UNL     1       1.060  -5.328  -1.167  0.00  0.00    -0.296 N 
ATOM      4  C   UNL     1       0.487  -5.148  -2.522  0.00  0.00    +0.121 C 
ATOM      5  C   UNL     1       1.637  -4.536  -3.353  0.00  0.00    +0.100 C 
ATOM      6  C   UNL     1       2.921  -4.961  -2.620  0.00  0.00    -0.004 C 
ATOM      7  C   UNL     1       2.450  -5.782  -1.411  0.00  0.00    +0.115 C 
ATOM      8  C   UNL     1       3.793  -5.817  -3.534  0.00  0.00    -0.010 C 
ATOM      9  C   UNL     1       5.089  -6.179  -2.803  0.00  0.00    -0.082 C 
ATOM     10  N   UNL     1       5.799  -4.951  -2.426  0.00  0.00    +0.379 N 
ATOM     11  C   UNL     1       4.992  -4.178  -1.474  0.00  0.00    -0.082 C 
ATOM     12  C   UNL     1       3.691  -3.732  -2.149  0.00  0.00    -0.010 C 
ATOM     13  H   UNL     1       6.681  -5.192  -1.999  0.00  0.00    -0.086 HD
ATOM     14  H   UNL     1       5.968  -4.395  -3.250  0.00  0.00    -0.086 HD
ENDROOT
BRANCH   1  16
ATOM     15  C   UNL     1      -1.382  -3.347   0.075  0.00  0.00    +0.201 A 
ATOM     16  C   UNL     1      -0.945  -4.664   0.062  0.00  0.00    +0.108 A 
ATOM     17  C   UNL     1      -2.097  -5.489   0.096  0.00  0.00    +0.093 A 
ATOM     18  N   UNL     1      -3.145  -4.722   0.128  0.00  0.00    -0.082 NA
ATOM     19  O   UNL     1      -2.724  -3.371   0.121  0.00  0.00    -0.352 OA
ATOM     20  C   UNL     1      -2.105  -6.996   0.095  0.00  0.00    +0.070 C 
BRANCH  15  24
ATOM     21  C   UNL     1       0.081   1.511   0.043  0.00  0.00    +0.089 C 
ATOM     22  C   UNL     1       0.101   0.004   0.037  0.00  0.00    +0.135 A 
ATOM     23  C   UNL     1      -0.978  -0.797   0.070  0.00  0.00    +0.079 A 
ATOM     24  C   UNL     1      -0.528  -2.141   0.051  0.00  0.00    +0.152 A 
ATOM     25  N   UNL     1       0.784  -2.122   0.007  0.00  0.00    -0.075 NA
ATOM     26  O   UNL     1       1.198  -0.767  -0.007  0.00  0.00    -0.359 OA
ENDBRANCH  15  24
ENDBRANCH   1  16
BRANCH   5  27
ATOM     27  C   UNL     1       1.521  -3.034  -3.384  0.00  0.00    +0.218 C 
ATOM     28  O   UNL     1       0.915  -2.455  -2.507  0.00  0.00    -0.275 OA
ATOM     29  N   UNL     1       2.089  -2.334  -4.386  0.00  0.00    -0.311 N 
ATOM     30  H   UNL     1       2.574  -2.797  -5.087  0.00  0.00    +0.149 HD
BRANCH  29  31
ATOM     31  C   UNL     1       1.976  -0.874  -4.416  0.00  0.00    +0.139 C 
BRANCH  31  32
ATOM     32  C   UNL     1       2.693  -0.339  -5.629  0.00  0.00    -0.026 A 
ATOM     33  C   UNL     1       3.966   0.185  -5.504  0.00  0.00    +0.005 A 
ATOM     34  C   UNL     1       4.624   0.676  -6.616  0.00  0.00    +0.002 A 
ATOM     35  C   UNL     1       4.009   0.643  -7.854  0.00  0.00    +0.020 A 
ATOM     36  C   UNL     1       2.735   0.119  -7.979  0.00  0.00    +0.044 A 
ATOM     37  C   UNL     1       2.079  -0.377  -6.866  0.00  0.00    -0.027 A 
ATOM     38  C   UNL     1       0.694  -0.954  -7.003  0.00  0.00    +0.045 C 
ATOM     39 CL   UNL     1       1.962   0.078  -9.533  0.00  0.00    -0.083 Cl
ENDBRANCH  31  32
ENDBRANCH  29  31
ENDBRANCH   5  27
TORSDOF 5
