REMARK  Name = ZINC38889557
REMARK  7 active torsions:
REMARK  status: ('A' for Active; 'I' for Inactive)
REMARK    1  A    between atoms: C_1  and  C_2
REMARK    2  A    between atoms: C_2  and  C_3
REMARK    3  A    between atoms: C_3  and  C_4
REMARK    4  A    between atoms: C_4  and  N_5
REMARK    5  A    between atoms: C_12  and  O_31
REMARK    6  A    between atoms: C_14  and  C_18
REMARK    7  A    between atoms: C_26  and  C_30
REMARK                            x       y       z     vdW  Elec       q    Type
REMARK                         _______ _______ _______ _____ _____    ______ ____
ROOT
ATOM      1  N   UNL     1       1.425  -2.500  -2.470  0.00  0.00    -0.270 N 
ATOM      2  C   UNL     1       0.694  -2.729  -3.640  0.00  0.00    +0.042 A 
ATOM      3  C   UNL     1      -0.566  -2.167  -3.798  0.00  0.00    +0.024 A 
ATOM      4  C   UNL     1      -1.282  -2.397  -4.957  0.00  0.00    +0.002 A 
ATOM      5  C   UNL     1      -0.746  -3.187  -5.958  0.00  0.00    +0.000 A 
ATOM      6  C   UNL     1       0.508  -3.748  -5.803  0.00  0.00    +0.008 A 
ATOM      7  C   UNL     1       1.229  -3.521  -4.647  0.00  0.00    +0.003 A 
ATOM      8  C   UNL     1       2.596  -4.131  -4.475  0.00  0.00    +0.167 C 
ATOM      9  C   UNL     1       3.483  -3.178  -3.674  0.00  0.00    +0.194 C 
ATOM     10  C   UNL     1       2.754  -2.705  -2.446  0.00  0.00    +0.235 C 
ATOM     11  O   UNL     1       3.372  -2.510  -1.420  0.00  0.00    -0.274 OA
ENDROOT
BRANCH   9  12
ATOM     12  C   UNL     1       4.744  -3.894  -3.264  0.00  0.00    +0.233 C 
ATOM     13  O   UNL     1       4.915  -5.052  -3.582  0.00  0.00    -0.274 OA
ATOM     14  N   UNL     1       5.683  -3.248  -2.544  0.00  0.00    -0.264 N 
ATOM     15  C   UNL     1       6.842  -3.906  -2.167  0.00  0.00    +0.165 A 
ATOM     16  N   UNL     1       7.205  -5.143  -2.417  0.00  0.00    -0.225 NA
ATOM     17  C   UNL     1       8.376  -5.657  -1.983  0.00  0.00    +0.080 A 
ATOM     18  C   UNL     1       8.883  -6.963  -2.182  0.00  0.00    +0.029 A 
ATOM     19  C   UNL     1      10.100  -7.326  -1.668  0.00  0.00    +0.005 A 
ATOM     20  C   UNL     1      10.875  -6.436  -0.940  0.00  0.00    -0.049 A 
ATOM     21  C   UNL     1      10.410  -5.151  -0.726  0.00  0.00    +0.020 A 
ATOM     22  C   UNL     1       9.192  -4.778  -1.237  0.00  0.00    +0.041 A 
ATOM     23  S   UNL     1       8.226  -3.287  -1.222  0.00  0.00    -0.052 S 
ATOM     24  C   UNL     1      12.210  -6.864  -0.386  0.00  0.00    +0.044 C 
ATOM     25  H   UNL     1       5.546  -2.322  -2.290  0.00  0.00    +0.157 HD
ENDBRANCH   9  12
BRANCH   8  26
ATOM     26  O   UNL     1       2.479  -5.373  -3.777  0.00  0.00    -0.386 OA
ATOM     27  H   UNL     1       1.929  -6.027  -4.229  0.00  0.00    +0.210 HD
ENDBRANCH   8  26
BRANCH   1  28
ATOM     28  C   UNL     1       0.739  -2.027  -1.265  0.00  0.00    +0.114 C 
BRANCH  28  29
ATOM     29  C   UNL     1       0.718  -0.497  -1.257  0.00  0.00    +0.019 C 
BRANCH  29  31
ATOM     30  C   UNL     1      -0.019   1.526   0.010  0.00  0.00    +0.004 C 
ATOM     31  C   UNL     1       0.002  -0.004   0.002  0.00  0.00    -0.002 C 
ENDBRANCH  29  31
ENDBRANCH  28  29
ENDBRANCH   1  28
TORSDOF 5
