REMARK  Name = ZINC01479414
REMARK  11 active torsions:
REMARK  status: ('A' for Active; 'I' for Inactive)
REMARK    1  A    between atoms: C_1  and  C_2
REMARK    2  A    between atoms: C_5  and  N_8
REMARK    3  A    between atoms: C_9  and  C_30
REMARK    4  A    between atoms: C_12  and  S_13
REMARK    5  A    between atoms: S_13  and  C_14
REMARK    6  A    between atoms: C_14  and  C_15
REMARK    7  A    between atoms: N_17  and  N_18
REMARK    8  A    between atoms: C_19  and  C_20
REMARK    9  A    between atoms: C_24  and  C_27
REMARK   10  A    between atoms: C_25  and  O_26
REMARK   11  A    between atoms: C_27  and  C_28
REMARK                            x       y       z     vdW  Elec       q    Type
REMARK                         _______ _______ _______ _____ _____    ______ ____
ROOT
ATOM      1  S   UNL     1      -1.696  -0.631   0.015  0.00  0.00    -0.076 S 
ENDROOT
BRANCH   1   6
ATOM      2  N   UNL     1      -2.321  -3.358   0.012  0.00  0.00    -0.270 N 
ATOM      3  C   UNL     1      -1.611  -4.539  -0.007  0.00  0.00    +0.169 A 
ATOM      4  N   UNL     1      -0.336  -4.222  -0.017  0.00  0.00    -0.128 NA
ATOM      5  N   UNL     1      -0.202  -2.944  -0.011  0.00  0.00    -0.122 NA
ATOM      6  C   UNL     1      -1.383  -2.364   0.003  0.00  0.00    +0.197 A 
BRANCH   2  11
ATOM      7  C   UNL     1      -7.963  -2.749   0.096  0.00  0.00    +0.044 C 
ATOM      8  C   UNL     1      -6.465  -2.911   0.074  0.00  0.00    -0.050 A 
ATOM      9  C   UNL     1      -5.740  -2.477  -1.021  0.00  0.00    +0.005 A 
ATOM     10  C   UNL     1      -4.367  -2.624  -1.045  0.00  0.00    +0.026 A 
ATOM     11  C   UNL     1      -3.715  -3.208   0.033  0.00  0.00    +0.051 A 
ATOM     12  C   UNL     1      -4.445  -3.648   1.128  0.00  0.00    +0.026 A 
ATOM     13  C   UNL     1      -5.818  -3.493   1.148  0.00  0.00    +0.005 A 
ENDBRANCH   2  11
BRANCH   3  14
ATOM     14  C   UNL     1      -2.176  -5.904  -0.009  0.00  0.00    +0.022 A 
ATOM     15  C   UNL     1      -3.527  -6.123  -0.303  0.00  0.00    +0.031 A 
ATOM     16  C   UNL     1      -4.011  -7.415  -0.299  0.00  0.00    +0.111 A 
ATOM     17  N   UNL     1      -3.223  -8.433  -0.013  0.00  0.00    -0.263 NA
ATOM     18  C   UNL     1      -1.945  -8.271   0.274  0.00  0.00    +0.111 A 
ATOM     19  C   UNL     1      -1.376  -7.015   0.287  0.00  0.00    +0.031 A 
ENDBRANCH   3  14
ENDBRANCH   1   6
BRANCH   1  20
ATOM     20  C   UNL     1       0.002  -0.004   0.002  0.00  0.00    +0.174 C 
BRANCH  20  21
ATOM     21  C   UNL     1      -0.018   1.503   0.010  0.00  0.00    +0.242 C 
ATOM     22  O   UNL     1      -1.077   2.095   0.018  0.00  0.00    -0.273 OA
ATOM     23  N   UNL     1       1.139   2.192   0.003  0.00  0.00    -0.206 N 
ATOM     24  H   UNL     1       1.986   1.719  -0.008  0.00  0.00    +0.177 HD
BRANCH  23  25
ATOM     25  N   UNL     1       1.121   3.593   0.011  0.00  0.00    -0.188 NA
ATOM     26  C   UNL     1       2.236   4.258   0.004  0.00  0.00    +0.142 C 
BRANCH  26  27
ATOM     27  C   UNL     1       2.216   5.731   0.012  0.00  0.00    +0.036 A 
ATOM     28  C   UNL     1       3.413   6.450   0.004  0.00  0.00    +0.013 A 
ATOM     29  C   UNL     1       3.388   7.829   0.011  0.00  0.00    +0.001 A 
ATOM     30  C   UNL     1       2.179   8.504   0.026  0.00  0.00    +0.007 A 
ATOM     31  C   UNL     1       0.987   7.805   0.034  0.00  0.00    -0.002 A 
ATOM     32  C   UNL     1       0.995   6.419   0.021  0.00  0.00    +0.129 A 
BRANCH  32  33
ATOM     33  O   UNL     1      -0.176   5.731   0.023  0.00  0.00    -0.506 OA
ATOM     34  H   UNL     1      -0.511   5.527   0.907  0.00  0.00    +0.292 HD
ENDBRANCH  32  33
BRANCH  31  35
ATOM     35  C   UNL     1      -0.322   8.550   0.051  0.00  0.00    +0.065 C 
BRANCH  35  36
ATOM     36  C   UNL     1      -0.807   8.683   1.471  0.00  0.00    -0.030 C 
ATOM     37  C   UNL     1      -1.085   9.866   1.960  0.00  0.00    +0.004 C 
ENDBRANCH  35  36
ENDBRANCH  31  35
ENDBRANCH  26  27
ENDBRANCH  23  25
ENDBRANCH  20  21
ENDBRANCH   1  20
TORSDOF 10
