REMARK  Name = ZINC39636104
REMARK  6 active torsions:
REMARK  status: ('A' for Active; 'I' for Inactive)
REMARK    1  A    between atoms: C_1  and  C_2
REMARK    2  A    between atoms: C_8  and  N_10
REMARK    3  A    between atoms: C_11  and  C_13
REMARK    4  A    between atoms: C_24  and  C_26
REMARK    5  A    between atoms: C_29  and  O_33
REMARK    6  A    between atoms: O_33  and  C_34
REMARK                            x       y       z     vdW  Elec       q    Type
REMARK                         _______ _______ _______ _____ _____    ______ ____
ROOT
ATOM      1  C   UNL     1       4.099   0.023   2.474  0.00  0.00    +0.100 C 
ATOM      2  C   UNL     1       5.187  -0.714   1.661  0.00  0.00    +0.121 C 
ATOM      3  N   UNL     1       6.421  -0.569   2.469  0.00  0.00    -0.296 N 
ATOM      4  C   UNL     1       5.965  -0.729   3.871  0.00  0.00    +0.115 C 
ATOM      5  C   UNL     1       4.613   0.010   3.924  0.00  0.00    -0.004 C 
ATOM      6  C   UNL     1       3.636  -0.742   4.824  0.00  0.00    -0.010 C 
ATOM      7  C   UNL     1       4.139  -0.691   6.269  0.00  0.00    -0.082 C 
ATOM      8  N   UNL     1       4.255   0.708   6.700  0.00  0.00    +0.379 N 
ATOM      9  C   UNL     1       5.264   1.399   5.889  0.00  0.00    -0.082 C 
ATOM     10  C   UNL     1       4.810   1.437   4.427  0.00  0.00    -0.010 C 
ATOM     11  C   UNL     1       7.675  -0.341   2.029  0.00  0.00    +0.247 C 
ATOM     12  O   UNL     1       7.875  -0.122   0.850  0.00  0.00    -0.270 OA
ATOM     13  H   UNL     1       3.364   1.168   6.589  0.00  0.00    -0.086 HD
ATOM     14  H   UNL     1       4.527   0.738   7.671  0.00  0.00    -0.086 HD
ENDROOT
BRANCH  11  15
ATOM     15  C   UNL     1       8.804  -0.359   2.979  0.00  0.00    +0.040 A 
ATOM     16  C   UNL     1       8.684  -1.032   4.198  0.00  0.00    +0.036 A 
ATOM     17  C   UNL     1       9.741  -1.046   5.082  0.00  0.00    +0.085 A 
ATOM     18  C   UNL     1      10.926  -0.392   4.763  0.00  0.00    +0.157 A 
ATOM     19  C   UNL     1      11.049   0.278   3.551  0.00  0.00    +0.085 A 
ATOM     20  C   UNL     1       9.998   0.292   2.659  0.00  0.00    +0.036 A 
ATOM     21 CL   UNL     1      12.530   1.094   3.158  0.00  0.00    -0.080 Cl
ATOM     22 CL   UNL     1       9.593  -1.882   6.597  0.00  0.00    -0.080 Cl
BRANCH  18  23
ATOM     23  O   UNL     1      11.965  -0.408   5.637  0.00  0.00    -0.492 OA
ATOM     24  C   UNL     1      12.902  -1.479   5.511  0.00  0.00    +0.277 C 
ENDBRANCH  18  23
ENDBRANCH  11  15
BRANCH   1  26
ATOM     25  N   UNL     1       1.626  -0.029   2.471  0.00  0.00    -0.312 N 
ATOM     26  C   UNL     1       2.785  -0.709   2.376  0.00  0.00    +0.218 C 
ATOM     27  O   UNL     1       2.772  -1.911   2.212  0.00  0.00    -0.275 OA
ATOM     28  H   UNL     1       1.637   0.932   2.603  0.00  0.00    +0.149 HD
BRANCH  25  35
ATOM     29  C   UNL     1      -0.350   0.220   4.574  0.00  0.00    +0.009 C 
ATOM     30  C   UNL     1      -0.735   0.058   3.102  0.00  0.00    +0.006 C 
ATOM     31  C   UNL     1      -2.069  -0.685   3.003  0.00  0.00    +0.005 C 
ATOM     32  C   UNL     1      -2.454  -0.847   1.531  0.00  0.00    +0.000 C 
ATOM     33  C   UNL     1      -1.370  -1.645   0.805  0.00  0.00    +0.002 C 
ATOM     34  C   UNL     1      -0.036  -0.902   0.904  0.00  0.00    +0.022 C 
ATOM     35  C   UNL     1       0.349  -0.740   2.376  0.00  0.00    +0.076 C 
ENDBRANCH  25  35
ENDBRANCH   1  26
TORSDOF 4
