REMARK  Name = ZINC09540869
REMARK  14 active torsions:
REMARK  status: ('A' for Active; 'I' for Inactive)
REMARK    1  A    between atoms: C_1  and  C_2
REMARK    2  A    between atoms: C_2  and  O_3
REMARK    3  A    between atoms: O_3  and  C_4
REMARK    4  A    between atoms: C_4  and  C_6
REMARK    5  A    between atoms: C_7  and  N_37
REMARK    6  A    between atoms: C_11  and  C_36
REMARK    7  A    between atoms: N_12  and  C_24
REMARK    8  A    between atoms: C_16  and  C_18
REMARK    9  A    between atoms: C_24  and  C_25
REMARK   10  A    between atoms: C_25  and  C_26
REMARK   11  A    between atoms: C_29  and  O_34
REMARK   12  A    between atoms: C_30  and  O_32
REMARK   13  A    between atoms: O_32  and  C_33
REMARK   14  A    between atoms: O_34  and  C_35
REMARK                            x       y       z     vdW  Elec       q    Type
REMARK                         _______ _______ _______ _____ _____    ______ ____
ROOT
ATOM      1  C   UNL     1      -0.776   1.580   3.566  0.00  0.00    +0.105 C 
ATOM      2  C   UNL     1      -0.281   1.144   4.752  0.00  0.00    +0.195 C 
ATOM      3  O   UNL     1      -0.801   1.537   5.926  0.00  0.00    -0.441 OA
ATOM      4  C   UNL     1      -1.575   2.642   5.986  0.00  0.00    +0.141 A 
ATOM      5  C   UNL     1      -1.798   3.278   7.225  0.00  0.00    +0.068 A 
ATOM      6  C   UNL     1      -2.572   4.383   7.282  0.00  0.00    +0.022 A 
ATOM      7  N   UNL     1      -3.142   4.894   6.160  0.00  0.00    -0.312 N 
ATOM      8  C   UNL     1      -2.952   4.316   4.960  0.00  0.00    +0.259 A 
ATOM      9  O   UNL     1      -3.474   4.792   3.963  0.00  0.00    -0.267 OA
ATOM     10  C   UNL     1      -2.157   3.167   4.852  0.00  0.00    +0.071 A 
ATOM     11  C   UNL     1      -1.947   2.522   3.510  0.00  0.00    +0.100 C 
ATOM     12  C   UNL     1      -2.807   5.057   8.609  0.00  0.00    +0.064 C 
ENDROOT
BRANCH  11  13
ATOM     13  C   UNL     1      -3.186   1.755   3.124  0.00  0.00    -0.032 A 
ATOM     14  C   UNL     1      -3.642   0.705   3.906  0.00  0.00    +0.024 A 
ATOM     15  C   UNL     1      -4.785   0.027   3.524  0.00  0.00    +0.111 A 
ATOM     16  N   UNL     1      -5.432   0.364   2.425  0.00  0.00    -0.263 NA
ATOM     17  C   UNL     1      -5.025   1.354   1.656  0.00  0.00    +0.111 A 
ATOM     18  C   UNL     1      -3.893   2.080   1.977  0.00  0.00    +0.024 A 
ENDBRANCH  11  13
BRANCH   2  19
ATOM     19  N   UNL     1       0.783   0.282   4.751  0.00  0.00    -0.329 N 
ATOM     20  H   UNL     1       1.230   0.064   3.919  0.00  0.00    +0.145 HD
ATOM     21  H   UNL     1       1.089  -0.111   5.584  0.00  0.00    +0.145 HD
ENDBRANCH   2  19
BRANCH   1  22
ATOM     22  C   UNL     1      -0.187   1.141   2.370  0.00  0.00    +0.341 C 
ATOM     23  O   UNL     1       0.576   1.870   1.763  0.00  0.00    -0.245 OA
BRANCH  22  24
ATOM     24  O   UNL     1      -0.468  -0.091   1.893  0.00  0.00    -0.462 OA
BRANCH  24  26
ATOM     25  C   UNL     1      -0.270  -1.889   0.290  0.00  0.00    +0.048 C 
ATOM     26  C   UNL     1       0.166  -0.473   0.670  0.00  0.00    +0.229 C 
ENDBRANCH  24  26
ENDBRANCH  22  24
ENDBRANCH   1  22
BRANCH   7  27
ATOM     27  C   UNL     1      -3.977   6.094   6.258  0.00  0.00    +0.130 C 
BRANCH  27  28
ATOM     28  C   UNL     1      -3.104   7.338   6.077  0.00  0.00    +0.057 C 
BRANCH  28  29
ATOM     29  C   UNL     1      -3.962   8.573   6.178  0.00  0.00    -0.042 A 
ATOM     30  C   UNL     1      -4.543   9.104   5.042  0.00  0.00    +0.007 A 
ATOM     31  C   UNL     1      -5.335  10.233   5.130  0.00  0.00    +0.049 A 
ATOM     32  C   UNL     1      -5.541  10.841   6.358  0.00  0.00    +0.161 A 
ATOM     33  C   UNL     1      -4.952  10.310   7.501  0.00  0.00    +0.162 A 
ATOM     34  C   UNL     1      -4.163   9.174   7.407  0.00  0.00    +0.053 A 
BRANCH  33  35
ATOM     35  O   UNL     1      -5.151  10.903   8.709  0.00  0.00    -0.491 OA
ATOM     36  C   UNL     1      -4.516  10.302   9.839  0.00  0.00    +0.277 C 
ENDBRANCH  33  35
BRANCH  32  37
ATOM     37  O   UNL     1      -6.316  11.955   6.445  0.00  0.00    -0.491 OA
ATOM     38  C   UNL     1      -6.888  12.444   5.231  0.00  0.00    +0.277 C 
ENDBRANCH  32  37
ENDBRANCH  28  29
ENDBRANCH  27  28
ENDBRANCH   7  27
TORSDOF 10
