REMARK  Name = ZINC08998674
REMARK  9 active torsions:
REMARK  status: ('A' for Active; 'I' for Inactive)
REMARK    1  A    between atoms: C_1  and  C_2
REMARK    2  A    between atoms: C_2  and  O_3
REMARK    3  A    between atoms: O_3  and  C_4
REMARK    4  A    between atoms: C_4  and  C_5
REMARK    5  A    between atoms: C_5  and  N_6
REMARK    6  A    between atoms: C_10  and  S_27
REMARK    7  A    between atoms: N_15  and  C_16
REMARK    8  A    between atoms: C_16  and  C_18
REMARK    9  A    between atoms: S_27  and  N_30
REMARK                            x       y       z     vdW  Elec       q    Type
REMARK                         _______ _______ _______ _____ _____    ______ ____
ROOT
ATOM      1  N   UNL     1       4.959  -4.167  -0.048  0.00  0.00    -0.319 N 
ATOM      2  C   UNL     1       6.228  -4.714  -0.027  0.00  0.00    +0.058 A 
ATOM      3  C   UNL     1       6.592  -6.070  -0.007  0.00  0.00    +0.029 A 
ATOM      4  C   UNL     1       7.915  -6.443   0.018  0.00  0.00    +0.030 A 
ATOM      5  C   UNL     1       8.927  -5.497   0.024  0.00  0.00    +0.106 A 
ATOM      6  C   UNL     1       8.597  -4.154   0.005  0.00  0.00    +0.045 A 
ATOM      7  C   UNL     1       7.274  -3.780  -0.020  0.00  0.00    +0.041 A 
ATOM      8  S   UNL     1       6.428  -2.220  -0.050  0.00  0.00    -0.052 S 
ATOM      9  C   UNL     1       4.799  -2.816  -0.070  0.00  0.00    +0.167 A 
ATOM     10  N   UNL     1       3.668  -2.120  -0.096  0.00  0.00    -0.152 NA
ENDROOT
BRANCH   5  11
ATOM     11  S   UNL     1      10.616  -6.000   0.056  0.00  0.00    +0.056 S 
ATOM     12  O   UNL     1      11.351  -4.917   0.607  0.00  0.00    -0.153 OA
ATOM     13  O   UNL     1      10.641  -7.304   0.621  0.00  0.00    -0.153 OA
BRANCH  11  14
ATOM     14  N   UNL     1      11.110  -6.156  -1.517  0.00  0.00    -0.204 NA
ATOM     15  H   UNL     1      10.489  -5.976  -2.240  0.00  0.00    +0.144 HD
ATOM     16  H   UNL     1      12.020  -6.428  -1.714  0.00  0.00    +0.144 HD
ENDBRANCH  11  14
ENDBRANCH   5  11
BRANCH  10  17
ATOM     17  C   UNL     1       3.705  -0.783  -0.109  0.00  0.00    +0.269 C 
ATOM     18  O   UNL     1       4.777  -0.203  -0.099  0.00  0.00    -0.268 OA
BRANCH  17  19
ATOM     19  C   UNL     1       2.445  -0.009  -0.138  0.00  0.00    +0.040 A 
ATOM     20  C   UNL     1       1.208  -0.666  -0.150  0.00  0.00    +0.015 A 
ATOM     21  C   UNL     1       0.040   0.023  -0.176  0.00  0.00    +0.029 A 
ATOM     22  C   UNL     1       0.031   1.438  -0.192  0.00  0.00    +0.078 A 
ATOM     23  C   UNL     1       1.292   2.080  -0.179  0.00  0.00    +0.040 A 
ATOM     24  C   UNL     1       2.473   1.387  -0.153  0.00  0.00    +0.030 A 
ATOM     25  S   UNL     1       0.835   3.796  -0.206  0.00  0.00    -0.075 S 
ATOM     26  C   UNL     1      -0.887   3.574  -0.230  0.00  0.00    +0.157 A 
ATOM     27  N   UNL     1      -1.023   2.277  -0.223  0.00  0.00    -0.247 NA
ENDBRANCH  17  19
ENDBRANCH  10  17
BRANCH   1  28
ATOM     28  C   UNL     1       3.784  -5.043  -0.050  0.00  0.00    +0.152 C 
BRANCH  28  29
ATOM     29  C   UNL     1       2.675  -4.409   0.792  0.00  0.00    +0.181 C 
BRANCH  29  30
ATOM     30  O   UNL     1       1.580  -5.322   0.901  0.00  0.00    -0.378 OA
BRANCH  30  32
ATOM     31  C   UNL     1      -0.624  -5.879   1.721  0.00  0.00    +0.034 C 
ATOM     32  C   UNL     1       0.484  -4.825   1.672  0.00  0.00    +0.156 C 
ENDBRANCH  30  32
ENDBRANCH  29  30
ENDBRANCH  28  29
ENDBRANCH   1  28
TORSDOF 8
