REMARK  Name = ZINC13495852
REMARK  14 active torsions:
REMARK  status: ('A' for Active; 'I' for Inactive)
REMARK    1  A    between atoms: C_1  and  C_2
REMARK    2  A    between atoms: C_2  and  C_3
REMARK    3  A    between atoms: C_3  and  C_5
REMARK    4  A    between atoms: C_3  and  N_75
REMARK    5  A    between atoms: N_9  and  C_10
REMARK    6  A    between atoms: C_10  and  C_11
REMARK    7  A    between atoms: C_11  and  C_12
REMARK    8  A    between atoms: C_18  and  C_19
REMARK    9  A    between atoms: C_18  and  N_75
REMARK   10  A    between atoms: C_19  and  C_20
REMARK   11  A    between atoms: C_26  and  C_27
REMARK   12  A    between atoms: C_26  and  N_75
REMARK   13  A    between atoms: C_31  and  C_40
REMARK   14  A    between atoms: C_33  and  C_39
REMARK                            x       y       z     vdW  Elec       q    Type
REMARK                         _______ _______ _______ _____ _____    ______ ____
ROOT
ATOM      1  N   UNL     1      -1.346   8.496  -1.532  0.00  0.00    +0.389 N 
ATOM      2  H   UNL     1      -2.103   8.341  -2.209  0.00  0.00    -0.080 HD
ENDROOT
BRANCH   1   3
ATOM      3  C   UNL     1      -1.493   9.845  -0.947  0.00  0.00    +0.003 C 
BRANCH   3   4
ATOM      4  C   UNL     1      -2.962  10.144  -0.791  0.00  0.00    +0.138 A 
ATOM      5  N   UNL     1      -3.870   9.355  -0.272  0.00  0.00    -0.115 NA
ATOM      6  N   UNL     1      -5.003   9.968  -0.317  0.00  0.00    -0.023 NA
ATOM      7  N   UNL     1      -4.840  11.128  -0.851  0.00  0.00    -0.044 NA
ATOM      8  N   UNL     1      -3.594  11.276  -1.152  0.00  0.00    -0.231 N 
BRANCH   8   9
ATOM      9  C   UNL     1      -2.983  12.454  -1.774  0.00  0.00    +0.152 C 
BRANCH   9  10
ATOM     10  C   UNL     1      -3.024  12.306  -3.296  0.00  0.00    +0.058 C 
BRANCH  10  11
ATOM     11  C   UNL     1      -2.396  13.517  -3.936  0.00  0.00    -0.046 A 
ATOM     12  C   UNL     1      -3.176  14.611  -4.259  0.00  0.00    +0.004 A 
ATOM     13  C   UNL     1      -2.599  15.724  -4.840  0.00  0.00    +0.000 A 
ATOM     14  C   UNL     1      -1.243  15.739  -5.109  0.00  0.00    +0.000 A 
ATOM     15  C   UNL     1      -0.464  14.642  -4.792  0.00  0.00    +0.000 A 
ATOM     16  C   UNL     1      -1.040  13.531  -4.205  0.00  0.00    +0.004 A 
ENDBRANCH  10  11
ENDBRANCH   9  10
ENDBRANCH   8   9
ENDBRANCH   3   4
BRANCH   3  18
ATOM     17  C   UNL     1       0.701   9.756   0.245  0.00  0.00    +0.002 C 
ATOM     18  C   UNL     1      -0.811   9.912   0.421  0.00  0.00    -0.011 C 
ENDBRANCH   3  18
ENDBRANCH   1   3
BRANCH   1  19
ATOM     19  C   UNL     1      -0.048   8.387  -2.231  0.00  0.00    -0.073 C 
BRANCH  19  20
ATOM     20  C   UNL     1      -0.128   9.173  -3.541  0.00  0.00    +0.016 C 
BRANCH  20  21
ATOM     21  C   UNL     1       1.135   8.955  -4.335  0.00  0.00    -0.049 A 
ATOM     22  C   UNL     1       2.212   9.805  -4.166  0.00  0.00    +0.003 A 
ATOM     23  C   UNL     1       3.372   9.603  -4.890  0.00  0.00    +0.000 A 
ATOM     24  C   UNL     1       3.451   8.557  -5.791  0.00  0.00    +0.000 A 
ATOM     25  C   UNL     1       2.372   7.711  -5.964  0.00  0.00    +0.000 A 
ATOM     26  C   UNL     1       1.214   7.910  -5.235  0.00  0.00    +0.003 A 
ENDBRANCH  20  21
ENDBRANCH  19  20
ENDBRANCH   1  19
BRANCH   1  27
ATOM     27  C   UNL     1      -1.436   7.472  -0.470  0.00  0.00    -0.037 C 
BRANCH  27  28
ATOM     28  C   UNL     1      -1.651   6.126  -1.112  0.00  0.00    +0.001 A 
ATOM     29  C   UNL     1      -0.591   5.313  -1.348  0.00  0.00    +0.017 A 
ATOM     30  C   UNL     1      -0.833   4.011  -1.973  0.00  0.00    -0.001 A 
ATOM     31  C   UNL     1       0.219   3.130  -2.240  0.00  0.00    +0.013 A 
ATOM     32  C   UNL     1      -0.041   1.923  -2.824  0.00  0.00    -0.050 A 
ATOM     33  C   UNL     1      -1.340   1.562  -3.155  0.00  0.00    +0.008 A 
ATOM     34  C   UNL     1      -2.392   2.418  -2.906  0.00  0.00    -0.026 A 
ATOM     35  C   UNL     1      -2.152   3.650  -2.307  0.00  0.00    +0.052 A 
ATOM     36  N   UNL     1      -3.186   4.522  -2.040  0.00  0.00    -0.322 N 
ATOM     37  H   UNL     1      -4.094   4.271  -2.271  0.00  0.00    +0.169 HD
ATOM     38  C   UNL     1      -2.954   5.715  -1.466  0.00  0.00    +0.251 A 
ATOM     39  O   UNL     1      -3.892   6.461  -1.245  0.00  0.00    -0.268 OA
ATOM     40  C   UNL     1      -3.796   2.017  -3.276  0.00  0.00    +0.046 C 
ATOM     41  C   UNL     1       1.094   0.973  -3.112  0.00  0.00    +0.044 C 
ENDBRANCH  27  28
ENDBRANCH   1  27
TORSDOF 11
