REMARK  Name = ZINC44253775
REMARK  7 active torsions:
REMARK  status: ('A' for Active; 'I' for Inactive)
REMARK    1  A    between atoms: C_6  and  C_7
REMARK    2  A    between atoms: C_7  and  O_9
REMARK    3  A    between atoms: O_9  and  C_10
REMARK    4  A    between atoms: C_11  and  C_18
REMARK    5  A    between atoms: C_18  and  C_20
REMARK    6  A    between atoms: C_18  and  N_24
REMARK    7  A    between atoms: C_20  and  C_21
REMARK                            x       y       z     vdW  Elec       q    Type
REMARK                         _______ _______ _______ _____ _____    ______ ____
ROOT
ATOM      1  C   UNL     1      -2.433  -2.767   0.011  0.00  0.00    +0.152 A 
ATOM      2  C   UNL     1      -3.032  -3.104   1.216  0.00  0.00    -0.016 A 
ATOM      3  C   UNL     1      -4.241  -3.772   1.223  0.00  0.00    +0.025 A 
ATOM      4  C   UNL     1      -4.856  -4.105   0.029  0.00  0.00    +0.043 A 
ATOM      5  C   UNL     1      -4.261  -3.770  -1.175  0.00  0.00    +0.043 A 
ATOM      6  C   UNL     1      -3.054  -3.096  -1.186  0.00  0.00    +0.085 A 
ATOM      7 CL   UNL     1      -2.311  -2.669  -2.696  0.00  0.00    -0.080 Cl
ATOM      8 CL   UNL     1      -6.376  -4.944   0.040  0.00  0.00    -0.083 Cl
ENDROOT
BRANCH   1   9
ATOM      9  O   UNL     1      -1.243  -2.110   0.003  0.00  0.00    -0.421 OA
BRANCH   9  10
ATOM     10  C   UNL     1      -1.265  -0.763   0.011  0.00  0.00    +0.345 C 
ATOM     11  O   UNL     1      -2.326  -0.172   0.024  0.00  0.00    -0.245 OA
BRANCH  10  17
ATOM     12  C   UNL     1      -0.017   1.392   0.010  0.00  0.00    +0.016 A 
ATOM     13  C   UNL     1       1.169   2.096   0.002  0.00  0.00    +0.022 A 
ATOM     14  C   UNL     1       2.378   1.421  -0.013  0.00  0.00    +0.059 A 
ATOM     15  C   UNL     1       2.404   0.034  -0.021  0.00  0.00    +0.060 A 
ATOM     16  C   UNL     1       1.224  -0.680  -0.014  0.00  0.00    +0.036 A 
ATOM     17  C   UNL     1       0.002  -0.004   0.002  0.00  0.00    +0.061 A 
ATOM     18 CL   UNL     1       3.925  -0.804  -0.041  0.00  0.00    -0.082 Cl
ATOM     19 CL   UNL     1       3.867   2.313  -0.022  0.00  0.00    -0.082 Cl
ENDBRANCH  10  17
ENDBRANCH   9  10
ENDBRANCH   1   9
BRANCH   2  20
ATOM     20  C   UNL     1      -2.364  -2.742   2.518  0.00  0.00    -0.032 C 
BRANCH  20  21
ATOM     21  N   UNL     1      -2.811  -3.664   3.571  0.00  0.00    +0.383 N 
ATOM     22  H   UNL     1      -2.565  -4.609   3.317  0.00  0.00    -0.089 HD
ATOM     23  H   UNL     1      -2.364  -3.422   4.442  0.00  0.00    -0.089 HD
ATOM     24  H   UNL     1      -3.812  -3.594   3.676  0.00  0.00    -0.089 HD
ENDBRANCH  20  21
BRANCH  20  25
ATOM     25  C   UNL     1      -2.737  -1.309   2.902  0.00  0.00    +0.084 C 
BRANCH  25  26
ATOM     26  C   UNL     1      -1.973  -0.905   4.136  0.00  0.00    +0.209 C 
ATOM     27  O   UNL     1      -1.206  -1.686   4.658  0.00  0.00    -0.276 OA
ATOM     28  N   UNL     1      -2.143   0.325   4.661  0.00  0.00    -0.329 N 
ATOM     29  H   UNL     1      -2.756   0.950   4.244  0.00  0.00    +0.145 HD
ATOM     30  H   UNL     1      -1.651   0.585   5.455  0.00  0.00    +0.145 HD
ENDBRANCH  25  26
ENDBRANCH  20  25
ENDBRANCH   2  20
TORSDOF 7
