REMARK  Name = ZINC41033307
REMARK  5 active torsions:
REMARK  status: ('A' for Active; 'I' for Inactive)
REMARK    1  A    between atoms: C_1  and  C_2
REMARK    2  A    between atoms: C_4  and  N_19
REMARK    3  A    between atoms: C_7  and  N_8
REMARK    4  A    between atoms: N_8  and  C_9
REMARK    5  A    between atoms: C_9  and  C_16
REMARK                            x       y       z     vdW  Elec       q    Type
REMARK                         _______ _______ _______ _____ _____    ______ ____
ROOT
ATOM      1  N   UNL     1       0.025  -0.016   2.415  0.00  0.00    -0.329 N 
ATOM      2  H   UNL     1       0.061   0.953   2.422  0.00  0.00    +0.147 HD
ENDROOT
BRANCH   1   9
ATOM      3  C   UNL     1      -0.069   1.495   0.007  0.00  0.00    +0.046 C 
ATOM      4  C   UNL     1       0.014  -0.009   0.002  0.00  0.00    -0.027 A 
ATOM      5  C   UNL     1       0.053  -0.696  -1.196  0.00  0.00    +0.038 A 
ATOM      6  C   UNL     1       0.129  -2.076  -1.202  0.00  0.00    +0.127 A 
ATOM      7  C   UNL     1       0.167  -2.775  -0.009  0.00  0.00    +0.034 A 
ATOM      8  C   UNL     1       0.129  -2.095   1.193  0.00  0.00    +0.025 A 
ATOM      9  C   UNL     1       0.058  -0.707   1.202  0.00  0.00    +0.031 A 
BRANCH   6  10
ATOM     10  N   UNL     1       0.170  -2.808  -2.487  0.00  0.00    +0.056 N 
ATOM     11  O   UNL     1       0.136  -2.199  -3.531  0.00  0.00    -0.126 OA
ATOM     12  O   UNL     1       0.236  -4.016  -2.494  0.00  0.00    -0.126 OA
ENDBRANCH   6  10
ENDBRANCH   1   9
BRANCH   1  13
ATOM     13  C   UNL     1      -0.064  -0.755   3.677  0.00  0.00    +0.134 C 
ATOM     14  C   UNL     1      -1.295  -1.620   3.671  0.00  0.00    +0.037 C 
ATOM     15  C   UNL     1      -2.394  -1.075   2.739  0.00  0.00    +0.003 C 
ATOM     16  C   UNL     1      -2.551   0.455   2.832  0.00  0.00    +0.000 C 
ATOM     17  C   UNL     1      -2.476   0.956   4.249  0.00  0.00    +0.000 C 
ATOM     18  C   UNL     1      -1.022   1.375   4.544  0.00  0.00    +0.003 C 
ATOM     19  C   UNL     1      -0.168   0.238   4.853  0.00  0.00    +0.037 C 
BRANCH  13  20
ATOM     20  C   UNL     1       1.163  -1.615   3.848  0.00  0.00    +0.379 C 
ATOM     21  O   UNL     1       2.033  -1.611   2.994  0.00  0.00    -0.244 OA
ATOM     22  O   UNL     1       1.285  -2.313   4.840  0.00  0.00    -0.244 OA
ENDBRANCH  13  20
ENDBRANCH   1  13
TORSDOF 4
