REMARK  Name = ZINC39462208
REMARK  8 active torsions:
REMARK  status: ('A' for Active; 'I' for Inactive)
REMARK    1  A    between atoms: C_1  and  C_2
REMARK    2  A    between atoms: C_5  and  C_35
REMARK    3  A    between atoms: C_12  and  N_15
REMARK    4  A    between atoms: C_16  and  C_18
REMARK    5  A    between atoms: C_18  and  N_19
REMARK    6  A    between atoms: N_19  and  C_20
REMARK    7  A    between atoms: N_19  and  C_30
REMARK    8  A    between atoms: C_20  and  C_21
REMARK                            x       y       z     vdW  Elec       q    Type
REMARK                         _______ _______ _______ _____ _____    ______ ____
ROOT
ATOM      1  C   UNL     1       0.603  -5.404   1.721  0.00  0.00    +0.019 C 
ENDROOT
BRANCH   1   3
ATOM      2  N   UNL     1       1.928  -3.989   0.185  0.00  0.00    -0.288 N 
ATOM      3  C   UNL     1       1.819  -4.576   1.393  0.00  0.00    +0.199 C 
ATOM      4  O   UNL     1       2.699  -4.438   2.216  0.00  0.00    -0.278 OA
ATOM      5  H   UNL     1       1.224  -4.099  -0.474  0.00  0.00    +0.151 HD
BRANCH   2  16
ATOM      6  C   UNL     1       2.790   0.119  -1.472  0.00  0.00    +0.043 C 
ATOM      7  C   UNL     1       2.365  -1.333  -1.240  0.00  0.00    +0.150 C 
ATOM      8  C   UNL     1       3.024  -2.235  -2.252  0.00  0.00    +0.016 A 
ATOM      9  C   UNL     1       3.243  -2.149  -3.632  0.00  0.00    +0.065 A 
ATOM     10  N   UNL     1       3.861  -3.115  -4.258  0.00  0.00    -0.176 NA
ATOM     11  N   UNL     1       4.288  -4.167  -3.658  0.00  0.00    -0.243 N 
ATOM     12  C   UNL     1       4.126  -4.342  -2.330  0.00  0.00    +0.272 A 
ATOM     13  O   UNL     1       4.542  -5.350  -1.781  0.00  0.00    -0.266 OA
ATOM     14  C   UNL     1       3.470  -3.344  -1.589  0.00  0.00    +0.072 A 
ATOM     15  H   UNL     1       4.740  -4.853  -4.173  0.00  0.00    +0.192 HD
ATOM     16  C   UNL     1       3.110  -3.184  -0.135  0.00  0.00    +0.243 C 
ATOM     17  O   UNL     1       2.822  -1.783   0.050  0.00  0.00    -0.347 OA
ATOM     18  C   UNL     1       2.765  -0.941  -4.396  0.00  0.00    +0.068 C 
ENDBRANCH   2  16
ENDBRANCH   1   3
BRANCH   1  19
ATOM     19  N   UNL     1       0.739  -5.958   3.075  0.00  0.00    +0.390 N 
ATOM     20  H   UNL     1       1.615  -6.454   3.149  0.00  0.00    -0.080 HD
BRANCH  19  21
ATOM     21  C   UNL     1       0.710  -4.865   4.056  0.00  0.00    -0.067 C 
ATOM     22  C   UNL     1       0.998  -5.415   5.468  0.00  0.00    -0.015 C 
ATOM     23  C   UNL     1       0.076  -4.583   6.395  0.00  0.00    -0.002 C 
ATOM     24  C   UNL     1      -1.211  -4.428   5.546  0.00  0.00    -0.002 C 
ATOM     25  C   UNL     1      -0.694  -4.238   4.106  0.00  0.00    -0.015 C 
ENDBRANCH  19  21
BRANCH  19  26
ATOM     26  C   UNL     1      -0.371  -6.882   3.340  0.00  0.00    -0.042 C 
BRANCH  26  27
ATOM     27  C   UNL     1      -0.006  -7.791   4.485  0.00  0.00    -0.060 A 
ATOM     28  C   UNL     1       1.126  -8.581   4.405  0.00  0.00    +0.005 A 
ATOM     29  C   UNL     1       1.465  -9.415   5.454  0.00  0.00    +0.050 A 
ATOM     30  C   UNL     1       0.670  -9.463   6.587  0.00  0.00    +0.166 A 
ATOM     31  C   UNL     1      -0.470  -8.668   6.668  0.00  0.00    +0.166 A 
ATOM     32  C   UNL     1      -0.801  -7.829   5.615  0.00  0.00    +0.051 A 
ATOM     33  O   UNL     1      -1.075  -8.893   7.870  0.00  0.00    -0.453 OA
ATOM     34  C   UNL     1      -0.522 -10.132   8.353  0.00  0.00    +0.466 C 
ATOM     35  O   UNL     1       0.779 -10.187   7.739  0.00  0.00    -0.453 OA
ENDBRANCH  26  27
ENDBRANCH  19  26
ENDBRANCH   1  19
TORSDOF 6
