REMARK  Name = ZINC08300138
REMARK  10 active torsions:
REMARK  status: ('A' for Active; 'I' for Inactive)
REMARK    1  A    between atoms: C_1  and  C_2
REMARK    2  A    between atoms: C_3  and  C_7
REMARK    3  A    between atoms: N_9  and  N_10
REMARK    4  A    between atoms: N_10  and  C_11
REMARK    5  A    between atoms: C_11  and  N_13
REMARK    6  A    between atoms: N_13  and  C_14
REMARK    7  A    between atoms: C_15  and  C_25
REMARK    8  A    between atoms: C_20  and  C_24
REMARK    9  A    between atoms: C_25  and  O_27
REMARK   10  A    between atoms: O_27  and  C_28
REMARK                            x       y       z     vdW  Elec       q    Type
REMARK                         _______ _______ _______ _____ _____    ______ ____
ROOT
ATOM      1  N   UNL     1      -5.534   4.206   0.075  0.00  0.00    -0.290 N 
ATOM      2  H   UNL     1      -4.990   3.403   0.066  0.00  0.00    +0.154 HD
ENDROOT
BRANCH   1   3
ATOM      3  C   UNL     1      -6.915   4.107   0.088  0.00  0.00    +0.086 A 
ATOM      4  C   UNL     1      -7.698   2.960   0.089  0.00  0.00    +0.091 A 
ATOM      5  C   UNL     1      -9.142   3.133   0.104  0.00  0.00    -0.021 A 
ATOM      6  C   UNL     1      -9.567   4.414   0.114  0.00  0.00    -0.004 A 
ATOM      7  S   UNL     1      -8.086   5.384   0.113  0.00  0.00    -0.077 S 
ATOM      8  C   UNL     1     -10.986   4.895   0.129  0.00  0.00    +0.046 C 
ATOM      9  C   UNL     1     -11.899   3.719  -0.248  0.00  0.00    -0.009 C 
ATOM     10  C   UNL     1     -11.493   2.495   0.579  0.00  0.00    +0.008 C 
ATOM     11  C   UNL     1     -10.134   1.976   0.108  0.00  0.00    +0.037 C 
ATOM     12  C   UNL     1     -13.354   4.084   0.051  0.00  0.00    +0.008 C 
BRANCH   4  13
ATOM     13  C   UNL     1      -7.093   1.627   0.077  0.00  0.00    +0.342 C 
ATOM     14  O   UNL     1      -6.832   1.068   1.125  0.00  0.00    -0.245 OA
BRANCH  13  15
ATOM     15  O   UNL     1      -6.825   1.019  -1.097  0.00  0.00    -0.464 OA
ATOM     16  C   UNL     1      -6.225  -0.302  -1.033  0.00  0.00    +0.280 C 
ENDBRANCH  13  15
ENDBRANCH   4  13
ENDBRANCH   1   3
BRANCH   1  17
ATOM     17  C   UNL     1      -4.945   5.419   0.076  0.00  0.00    +0.151 C 
ATOM     18  S   UNL     1      -5.905   6.836   0.092  0.00  0.00    -0.017 S 
BRANCH  17  19
ATOM     19  N   UNL     1      -3.601   5.515   0.064  0.00  0.00    -0.245 N 
ATOM     20  H   UNL     1      -3.177   6.388   0.064  0.00  0.00    +0.172 HD
BRANCH  19  23
ATOM     21  C   UNL     1      -1.471   4.452   0.039  0.00  0.00    +0.263 C 
ATOM     22  O   UNL     1      -0.940   5.546   0.039  0.00  0.00    -0.269 OA
ATOM     23  N   UNL     1      -2.815   4.355   0.051  0.00  0.00    -0.231 N 
ATOM     24  H   UNL     1      -3.239   3.483   0.050  0.00  0.00    +0.173 HD
BRANCH  21  27
ATOM     25  C   UNL     1       1.664   4.331   0.008  0.00  0.00    +0.087 C 
ATOM     26  C   UNL     1       0.717   3.158   0.012  0.00  0.00    +0.114 A 
ATOM     27  C   UNL     1      -0.645   3.231   0.025  0.00  0.00    +0.079 A 
ATOM     28  C   UNL     1      -1.116   1.839   0.017  0.00  0.00    +0.054 A 
ATOM     29  C   UNL     1      -0.013   1.076   0.008  0.00  0.00    +0.196 A 
ATOM     30  O   UNL     1       1.070   1.869   0.002  0.00  0.00    -0.467 OA
ENDBRANCH  21  27
ENDBRANCH  19  23
ENDBRANCH  17  19
ENDBRANCH   1  17
TORSDOF 7
