REMARK  Name = ZINC36597386
REMARK  8 active torsions:
REMARK  status: ('A' for Active; 'I' for Inactive)
REMARK    1  A    between atoms: C_1  and  C_2
REMARK    2  A    between atoms: C_2  and  C_3
REMARK    3  A    between atoms: C_2  and  C_4
REMARK    4  A    between atoms: C_4  and  C_6
REMARK    5  A    between atoms: C_4  and  N_10
REMARK    6  A    between atoms: C_6  and  O_8
REMARK    7  A    between atoms: O_8  and  C_9
REMARK    8  A    between atoms: C_22  and  C_24
REMARK                            x       y       z     vdW  Elec       q    Type
REMARK                         _______ _______ _______ _____ _____    ______ ____
ROOT
ATOM      1  N   UNL     1      -2.591   1.721  -0.212  0.00  0.00    -0.286 N 
ATOM      2  C   UNL     1      -2.779   1.024  -1.350  0.00  0.00    +0.304 C 
ATOM      3  O   UNL     1      -2.249  -0.061  -1.493  0.00  0.00    -0.253 OA
ATOM      4  N   UNL     1      -3.553   1.530  -2.330  0.00  0.00    -0.273 N 
ATOM      5  C   UNL     1      -3.867   0.737  -3.528  0.00  0.00    +0.116 C 
ATOM      6  C   UNL     1      -5.377   0.468  -3.570  0.00  0.00    +0.074 C 
ATOM      7  C   UNL     1      -6.107   1.746  -3.252  0.00  0.00    +0.040 A 
ATOM      8  C   UNL     1      -5.554   2.823  -2.654  0.00  0.00    +0.062 A 
ATOM      9  N   UNL     1      -6.496   3.760  -2.532  0.00  0.00    -0.348 N 
ATOM     10  C   UNL     1      -7.616   3.310  -3.035  0.00  0.00    +0.171 A 
ATOM     11  N   UNL     1      -7.412   2.054  -3.496  0.00  0.00    -0.349 N 
ATOM     12  H   UNL     1      -8.070   1.481  -3.920  0.00  0.00    +0.166 HD
ATOM     13  C   UNL     1      -4.112   2.890  -2.224  0.00  0.00    +0.159 C 
ATOM     14  H   UNL     1      -2.949   2.618  -0.128  0.00  0.00    +0.151 HD
ATOM     15  H   UNL     1      -6.370   4.636  -2.134  0.00  0.00    +0.167 HD
ENDROOT
BRANCH  13  16
ATOM     16  C   UNL     1      -3.354   3.828  -3.129  0.00  0.00    +0.017 A 
ATOM     17  C   UNL     1      -3.915   4.236  -4.325  0.00  0.00    +0.011 A 
ATOM     18  C   UNL     1      -3.223   5.096  -5.157  0.00  0.00    +0.042 A 
ATOM     19  C   UNL     1      -1.966   5.549  -4.793  0.00  0.00    +0.161 A 
ATOM     20  C   UNL     1      -1.402   5.141  -3.595  0.00  0.00    +0.194 A 
ATOM     21  C   UNL     1      -2.101   4.283  -2.760  0.00  0.00    +0.167 A 
ATOM     22  F   UNL     1      -1.556   3.889  -1.588  0.00  0.00    -0.202 F 
ATOM     23  F   UNL     1      -0.176   5.582  -3.239  0.00  0.00    -0.199 F 
ATOM     24  F   UNL     1      -1.289   6.389  -5.607  0.00  0.00    -0.202 F 
ENDBRANCH  13  16
BRANCH   1  25
ATOM     25  C   UNL     1      -1.845   1.123   0.898  0.00  0.00    +0.186 C 
BRANCH  25  27
ATOM     26  C   UNL     1      -3.395  -0.837   0.884  0.00  0.00    +0.009 C 
ATOM     27  C   UNL     1      -2.791   0.272   1.748  0.00  0.00    +0.014 C 
ATOM     28  C   UNL     1      -2.012  -0.353   2.908  0.00  0.00    +0.009 C 
ENDBRANCH  25  27
BRANCH  25  29
ATOM     29  C   UNL     1      -1.250   2.214   1.750  0.00  0.00    +0.328 C 
ATOM     30  O   UNL     1      -1.430   3.373   1.459  0.00  0.00    -0.249 OA
BRANCH  29  31
ATOM     31  O   UNL     1      -0.519   1.899   2.831  0.00  0.00    -0.467 OA
ATOM     32  C   UNL     1       0.015   2.985   3.592  0.00  0.00    +0.280 C 
ENDBRANCH  29  31
ENDBRANCH  25  29
ENDBRANCH   1  25
TORSDOF 5
