REMARK  Name = ZINC12883113
REMARK  10 active torsions:
REMARK  status: ('A' for Active; 'I' for Inactive)
REMARK    1  A    between atoms: C_1  and  C_2
REMARK    2  A    between atoms: C_19  and  C_21
REMARK    3  A    between atoms: C_21  and  N_73
REMARK    4  A    between atoms: C_26  and  O_37
REMARK    5  A    between atoms: C_27  and  O_35
REMARK    6  A    between atoms: C_30  and  C_32
REMARK    7  A    between atoms: C_32  and  C_33
REMARK    8  A    between atoms: C_33  and  O_34
REMARK    9  A    between atoms: O_35  and  C_36
REMARK   10  A    between atoms: O_37  and  C_38
REMARK                            x       y       z     vdW  Elec       q    Type
REMARK                         _______ _______ _______ _____ _____    ______ ____
ROOT
ATOM      1  C   UNL     1       3.426   2.189   0.761  0.00  0.00    -0.073 C 
ATOM      2  C   UNL     1       2.291   1.217   0.439  0.00  0.00    +0.017 C 
ATOM      3  C   UNL     1       1.072   1.979  -0.012  0.00  0.00    -0.044 A 
ATOM      4  C   UNL     1      -0.152   1.326  -0.012  0.00  0.00    +0.053 A 
ATOM      5  C   UNL     1      -1.295   1.982  -0.432  0.00  0.00    +0.162 A 
ATOM      6  C   UNL     1      -1.216   3.309  -0.846  0.00  0.00    +0.162 A 
ATOM      7  C   UNL     1       0.006   3.956  -0.842  0.00  0.00    +0.051 A 
ATOM      8  C   UNL     1       1.151   3.293  -0.424  0.00  0.00    -0.054 A 
ATOM      9  C   UNL     1       2.457   4.044  -0.433  0.00  0.00    -0.035 C 
ATOM     10  N   UNL     1       3.584   3.098  -0.394  0.00  0.00    +0.385 N 
ATOM     11  H   UNL     1       3.588   2.544  -1.258  0.00  0.00    -0.081 HD
ENDROOT
BRANCH   6  12
ATOM     12  O   UNL     1      -2.334   3.964  -1.257  0.00  0.00    -0.491 OA
ATOM     13  C   UNL     1      -2.175   5.322  -1.673  0.00  0.00    +0.277 C 
ENDBRANCH   6  12
BRANCH   5  14
ATOM     14  O   UNL     1      -2.492   1.336  -0.436  0.00  0.00    -0.491 OA
ATOM     15  C   UNL     1      -2.497  -0.023   0.008  0.00  0.00    +0.277 C 
ENDBRANCH   5  14
BRANCH  10  16
ATOM     16  C   UNL     1       4.862   3.835  -0.288  0.00  0.00    -0.063 C 
BRANCH  16  32
ATOM     17  C   UNL     1       8.093   5.678   2.877  0.00  0.00    +0.012 C 
ATOM     18  C   UNL     1       8.230   5.088   1.470  0.00  0.00    -0.022 C 
ATOM     19  C   UNL     1       9.667   5.235   0.987  0.00  0.00    +0.007 C 
ATOM     20  C   UNL     1      10.097   6.698   0.941  0.00  0.00    +0.005 C 
ATOM     21  C   UNL     1       9.175   7.503   0.023  0.00  0.00    +0.030 C 
ATOM     22  C   UNL     1       7.738   7.254   0.416  0.00  0.00    -0.073 C 
ATOM     23  C   UNL     1       6.917   8.247   0.654  0.00  0.00    +0.008 C 
ATOM     24  C   UNL     1       7.272   5.810   0.518  0.00  0.00    +0.021 C 
ATOM     25  C   UNL     1       7.353   5.194  -0.871  0.00  0.00    +0.016 C 
ATOM     26  C   UNL     1       7.325   3.702  -0.949  0.00  0.00    +0.042 C 
ATOM     27  C   UNL     1       8.023   2.938   0.180  0.00  0.00    +0.181 C 
ATOM     28  C   UNL     1       7.833   3.616   1.536  0.00  0.00    +0.052 C 
ATOM     29  O   UNL     1       7.318   1.654   0.249  0.00  0.00    -0.461 OA
ATOM     30  C   UNL     1       6.147   1.688  -0.400  0.00  0.00    +0.309 C 
ATOM     31  O   UNL     1       5.360   0.767  -0.478  0.00  0.00    -0.251 OA
ATOM     32  C   UNL     1       5.941   3.054  -1.033  0.00  0.00    +0.088 C 
ENDBRANCH  16  32
ENDBRANCH  10  16
BRANCH   9  33
ATOM     33  C   UNL     1       2.553   4.872  -1.717  0.00  0.00    +0.017 C 
BRANCH  33  34
ATOM     34  C   UNL     1       2.511   3.940  -2.929  0.00  0.00    +0.154 C 
BRANCH  34  35
ATOM     35  O   UNL     1       2.487   4.718  -4.128  0.00  0.00    -0.395 OA
ATOM     36  H   UNL     1       2.460   4.192  -4.938  0.00  0.00    +0.209 HD
ENDBRANCH  34  35
ENDBRANCH  33  34
ENDBRANCH   9  33
TORSDOF 7
