REMARK  Name = ZINC20987433
REMARK  2 active torsions:
REMARK  status: ('A' for Active; 'I' for Inactive)
REMARK    1  A    between atoms: C_4  and  C_8
REMARK    2  A    between atoms: N_14  and  C_15
REMARK                            x       y       z     vdW  Elec       q    Type
REMARK                         _______ _______ _______ _____ _____    ______ ____
ROOT
ATOM      1  C   UNL     1       2.433   3.224  -0.004  0.00  0.00    +0.031 C 
ATOM      2  C   UNL     1       1.744   2.056  -0.004  0.00  0.00    +0.078 C 
ATOM      3  C   UNL     1       2.251   0.669  -0.016  0.00  0.00    +0.256 C 
ATOM      4  O   UNL     1       3.444   0.428  -0.029  0.00  0.00    -0.269 OA
ATOM      5  N   UNL     1       1.351  -0.299  -0.012  0.00  0.00    -0.260 N 
ATOM      6  C   UNL     1       0.002  -0.004   0.002  0.00  0.00    +0.161 C 
ATOM      7  N   UNL     1      -1.008  -0.829   0.007  0.00  0.00    -0.260 NA
ATOM      8  S   UNL     1      -0.022   1.781   0.012  0.00  0.00    -0.049 S 
ATOM      9  H   UNL     1       1.673  -1.351  -0.021  0.00  0.00    +0.157 HD
ENDROOT
BRANCH   1  13
ATOM     10  C   UNL     1       0.347   6.917   0.035  0.00  0.00    +0.003 A 
ATOM     11  C   UNL     1       1.366   6.693   0.944  0.00  0.00    +0.020 A 
ATOM     12  C   UNL     1       2.050   5.494   0.939  0.00  0.00    +0.050 A 
ATOM     13  C   UNL     1       1.710   4.503   0.010  0.00  0.00    +0.013 A 
ATOM     14  C   UNL     1       0.681   4.740  -0.910  0.00  0.00    +0.050 A 
ATOM     15  C   UNL     1       0.004   5.943  -0.887  0.00  0.00    +0.020 A 
ATOM     16 CL   UNL     1       0.253   3.523  -2.072  0.00  0.00    -0.083 Cl
ATOM     17 CL   UNL     1       3.328   5.216   2.080  0.00  0.00    -0.083 Cl
ENDBRANCH   1  13
BRANCH   7  18
ATOM     18  C   UNL     1      -2.378  -0.309   0.022  0.00  0.00    +0.108 C 
ATOM     19  C   UNL     1      -3.140  -0.863   1.244  0.00  0.00    +0.027 C 
ATOM     20  C   UNL     1      -4.578  -1.099   0.720  0.00  0.00    +0.002 C 
ATOM     21  C   UNL     1      -4.336  -1.621  -0.719  0.00  0.00    +0.002 C 
ATOM     22  C   UNL     1      -3.139  -0.791  -1.226  0.00  0.00    +0.027 C 
ENDBRANCH   7  18
TORSDOF 2
