REMARK  Name = ZINC63363064
REMARK  4 active torsions:
REMARK  status: ('A' for Active; 'I' for Inactive)
REMARK    1  A    between atoms: C_1  and  O_2
REMARK    2  A    between atoms: O_2  and  C_3
REMARK    3  A    between atoms: C_10  and  C_18
REMARK    4  A    between atoms: N_24  and  C_27
REMARK                            x       y       z     vdW  Elec       q    Type
REMARK                         _______ _______ _______ _____ _____    ______ ____
ROOT
ATOM      1  C   UNL     1      -4.607  -4.217   2.394  0.00  0.00    +0.101 A 
ATOM      2  C   UNL     1      -5.667  -3.895   3.261  0.00  0.00    +0.263 A 
ATOM      3  N   UNL     1      -5.406  -3.277   4.430  0.00  0.00    -0.274 N 
ATOM      4  H   UNL     1      -6.135  -3.054   5.029  0.00  0.00    +0.173 HD
ATOM      5  C   UNL     1      -4.142  -2.967   4.772  0.00  0.00    +0.337 A 
ATOM      6  O   UNL     1      -3.928  -2.410   5.831  0.00  0.00    -0.246 OA
ATOM      7  N   UNL     1      -3.112  -3.266   3.959  0.00  0.00    -0.228 N 
ATOM      8  C   UNL     1      -3.333  -3.900   2.760  0.00  0.00    +0.270 A 
ATOM      9  O   UNL     1      -2.296  -4.203   1.950  0.00  0.00    -0.267 OA
ATOM     10  O   UNL     1      -6.814  -4.172   2.956  0.00  0.00    -0.267 OA
ENDROOT
BRANCH   1  17
ATOM     11  C   UNL     1      -0.846  -0.946   0.100  0.00  0.00    +0.121 A 
ATOM     12  C   UNL     1      -1.958  -0.087   0.051  0.00  0.00    +0.047 A 
ATOM     13  C   UNL     1      -3.227  -0.544   0.013  0.00  0.00    +0.029 A 
ATOM     14  C   UNL     1      -3.484  -1.986   0.021  0.00  0.00    +0.043 A 
ATOM     15  N   UNL     1      -4.601  -2.678   0.013  0.00  0.00    -0.376 N 
ATOM     16  C   UNL     1      -4.265  -4.096  -0.063  0.00  0.00    +0.128 C 
ATOM     17  C   UNL     1      -4.875  -4.908   1.083  0.00  0.00    +0.121 C 
ATOM     18  N   UNL     1      -4.253  -6.242   1.087  0.00  0.00    -0.307 NA
ATOM     19  C   UNL     1      -2.829  -6.214   1.436  0.00  0.00    +0.086 C 
ATOM     20  C   UNL     1      -2.034  -5.466   0.351  0.00  0.00    +0.048 C 
ATOM     21  C   UNL     1      -2.754  -4.160   0.097  0.00  0.00    -0.035 C 
ATOM     22  C   UNL     1      -2.312  -2.897   0.082  0.00  0.00    +0.003 A 
ATOM     23  C   UNL     1      -0.975  -2.294   0.111  0.00  0.00    +0.055 A 
ATOM     24  H   UNL     1      -4.760  -6.875   1.687  0.00  0.00    +0.123 HD
ATOM     25  H   UNL     1      -5.497  -2.308   0.051  0.00  0.00    +0.160 HD
BRANCH  11  27
ATOM     26  C   UNL     1       0.490   1.020   0.119  0.00  0.00    +0.277 C 
ATOM     27  O   UNL     1       0.400  -0.406   0.132  0.00  0.00    -0.495 OA
ENDBRANCH  11  27
ENDBRANCH   1  17
BRANCH   7  28
ATOM     28  C   UNL     1      -1.808  -2.933   4.339  0.00  0.00    +0.062 A 
ATOM     29  C   UNL     1      -1.044  -3.827   5.057  0.00  0.00    +0.027 A 
ATOM     30  C   UNL     1       0.255  -3.506   5.440  0.00  0.00    +0.003 A 
ATOM     31  C   UNL     1       0.806  -2.303   5.118  0.00  0.00    +0.008 A 
ATOM     32  C   UNL     1       0.060  -1.363   4.387  0.00  0.00    -0.016 A 
ATOM     33  C   UNL     1      -1.262  -1.681   3.986  0.00  0.00    +0.006 A 
ATOM     34  C   UNL     1      -2.004  -0.743   3.252  0.00  0.00    +0.010 A 
ATOM     35  C   UNL     1      -1.445   0.456   2.930  0.00  0.00    +0.001 A 
ATOM     36  C   UNL     1      -0.143   0.767   3.318  0.00  0.00    +0.001 A 
ATOM     37  C   UNL     1       0.602  -0.113   4.041  0.00  0.00    +0.008 A 
ENDBRANCH   7  28
TORSDOF 3
