REMARK  Name = ZINC19757907
REMARK  5 active torsions:
REMARK  status: ('A' for Active; 'I' for Inactive)
REMARK    1  A    between atoms: C_1  and  C_2
REMARK    2  A    between atoms: C_2  and  C_23
REMARK    3  A    between atoms: N_4  and  C_13
REMARK    4  A    between atoms: C_7  and  N_12
REMARK    5  A    between atoms: C_13  and  C_14
REMARK                            x       y       z     vdW  Elec       q    Type
REMARK                         _______ _______ _______ _____ _____    ______ ____
ROOT
ATOM      1  C   UNL     1      -6.391  -0.087  -5.520  0.00  0.00    +0.057 C 
ATOM      2  C   UNL     1      -5.458  -0.440  -4.360  0.00  0.00    +0.121 C 
ATOM      3  C   UNL     1      -4.369   0.632  -4.225  0.00  0.00    +0.153 C 
ATOM      4  N   UNL     1      -3.450   0.233  -3.153  0.00  0.00    -0.314 N 
ATOM      5  C   UNL     1      -4.128  -0.109  -1.978  0.00  0.00    +0.074 A 
ATOM      6  C   UNL     1      -3.423  -0.099  -0.778  0.00  0.00    +0.049 A 
ATOM      7  C   UNL     1      -4.059  -0.437   0.406  0.00  0.00    +0.027 A 
ATOM      8  C   UNL     1      -5.404  -0.785   0.397  0.00  0.00    +0.026 A 
ATOM      9  C   UNL     1      -6.105  -0.793  -0.793  0.00  0.00    +0.049 A 
ATOM     10  C   UNL     1      -5.473  -0.455  -1.981  0.00  0.00    +0.142 A 
ATOM     11  O   UNL     1      -6.199  -0.470  -3.135  0.00  0.00    -0.483 OA
ATOM     12  C   UNL     1      -4.814  -1.805  -4.609  0.00  0.00    +0.057 C 
ENDROOT
BRANCH   7  13
ATOM     13  N   UNL     1      -3.348  -0.426   1.611  0.00  0.00    -0.358 N 
ATOM     14  H   UNL     1      -3.853  -0.694   2.550  0.00  0.00    +0.142 HD
ATOM     15  H   UNL     1      -2.283  -0.151   1.618  0.00  0.00    +0.142 HD
ENDBRANCH   7  13
BRANCH   4  16
ATOM     16  C   UNL     1      -2.451   1.280  -2.899  0.00  0.00    +0.201 C 
BRANCH  16  17
ATOM     17  C   UNL     1      -3.121   2.469  -2.262  0.00  0.00    +0.233 C 
ATOM     18  O   UNL     1      -4.327   2.488  -2.129  0.00  0.00    -0.274 OA
ATOM     19  N   UNL     1      -2.381   3.513  -1.839  0.00  0.00    -0.300 N 
ATOM     20  C   UNL     1      -3.054   4.639  -1.232  0.00  0.00    +0.108 C 
ATOM     21  C   UNL     1      -3.446   5.662  -2.327  0.00  0.00    +0.019 C 
ATOM     22  C   UNL     1      -2.248   6.341  -2.845  0.00  0.00    +0.002 C 
ATOM     23  C   UNL     1      -1.249   5.415  -3.533  0.00  0.00    +0.002 C 
ATOM     24  C   UNL     1      -0.340   4.803  -2.496  0.00  0.00    +0.019 C 
ATOM     25  C   UNL     1      -0.916   3.459  -2.014  0.00  0.00    +0.108 C 
ENDBRANCH  16  17
ENDBRANCH   4  16
TORSDOF 3
