REMARK  Name = ZINC09664056
REMARK  4 active torsions:
REMARK  status: ('A' for Active; 'I' for Inactive)
REMARK    1  A    between atoms: C_4  and  C_7
REMARK    2  A    between atoms: C_16  and  C_17
REMARK    3  A    between atoms: C_16  and  N_55
REMARK    4  A    between atoms: N_22  and  C_23
REMARK                            x       y       z     vdW  Elec       q    Type
REMARK                         _______ _______ _______ _____ _____    ______ ____
ROOT
ATOM      1  C   UNL     1       4.833  -4.007   0.210  0.00  0.00    +0.204 C 
ATOM      2  O   UNL     1       3.796  -4.630   0.125  0.00  0.00    -0.277 OA
ATOM      3  N   UNL     1       4.811  -2.659   0.210  0.00  0.00    -0.241 N 
ATOM      4  C   UNL     1       3.636  -2.004   0.116  0.00  0.00    +0.310 C 
ATOM      5  O   UNL     1       2.597  -2.629   0.031  0.00  0.00    -0.252 OA
ATOM      6  N   UNL     1       3.614  -0.657   0.116  0.00  0.00    -0.269 N 
ATOM      7  H   UNL     1       5.640  -2.160   0.278  0.00  0.00    +0.159 HD
ATOM      8  H   UNL     1       4.446  -0.158   0.110  0.00  0.00    +0.156 HD
ENDROOT
BRANCH   6   9
ATOM      9  C   UNL     1       2.389   0.024   0.127  0.00  0.00    +0.038 A 
ATOM     10  C   UNL     1       1.299  -0.518   0.794  0.00  0.00    +0.027 A 
ATOM     11  C   UNL     1       0.091   0.151   0.803  0.00  0.00    +0.051 A 
ATOM     12  C   UNL     1      -0.037   1.366   0.146  0.00  0.00    +0.162 A 
ATOM     13  C   UNL     1       1.053   1.913  -0.520  0.00  0.00    +0.164 A 
ATOM     14  C   UNL     1       2.265   1.239  -0.530  0.00  0.00    +0.072 A 
ATOM     15  O   UNL     1       0.949   3.108  -1.163  0.00  0.00    -0.485 OA
ATOM     16  C   UNL     1      -0.375   3.572  -1.449  0.00  0.00    +0.270 C 
ATOM     17  C   UNL     1      -1.229   3.398  -0.185  0.00  0.00    +0.270 C 
ATOM     18  O   UNL     1      -1.239   2.008   0.160  0.00  0.00    -0.485 OA
ENDBRANCH   6   9
BRANCH   1  19
ATOM     19  C   UNL     1       6.146  -4.739   0.315  0.00  0.00    +0.020 C 
BRANCH  19  28
ATOM     20  C   UNL     1       5.338  -6.600  -1.006  0.00  0.00    -0.005 C 
ATOM     21  C   UNL     1       5.086  -8.104  -0.969  0.00  0.00    -0.047 A 
ATOM     22  C   UNL     1       4.913  -8.891  -2.105  0.00  0.00    +0.010 A 
ATOM     23  C   UNL     1       4.696 -10.221  -1.981  0.00  0.00    +0.045 A 
ATOM     24  S   UNL     1       4.724 -10.435  -0.207  0.00  0.00    -0.101 S 
ATOM     25  C   UNL     1       5.021  -8.746   0.231  0.00  0.00    -0.010 A 
ATOM     26  C   UNL     1       5.171  -8.127   1.583  0.00  0.00    +0.024 C 
ATOM     27  C   UNL     1       5.059  -6.603   1.415  0.00  0.00    -0.072 C 
ATOM     28  N   UNL     1       5.936  -6.199   0.290  0.00  0.00    +0.393 N 
ATOM     29  H   UNL     1       6.844  -6.668   0.394  0.00  0.00    -0.080 HD
BRANCH  20  33
ATOM     30  C   UNL     1       8.099  -5.684  -4.135  0.00  0.00    +0.000 A 
ATOM     31  C   UNL     1       6.745  -5.482  -4.326  0.00  0.00    +0.000 A 
ATOM     32  C   UNL     1       5.851  -5.778  -3.314  0.00  0.00    +0.002 A 
ATOM     33  C   UNL     1       6.312  -6.277  -2.110  0.00  0.00    -0.057 A 
ATOM     34  C   UNL     1       7.667  -6.474  -1.916  0.00  0.00    +0.002 A 
ATOM     35  C   UNL     1       8.559  -6.182  -2.930  0.00  0.00    +0.000 A 
ENDBRANCH  20  33
ENDBRANCH  19  28
ENDBRANCH   1  19
TORSDOF 4
