REMARK  Name = ZINC33517233
REMARK  9 active torsions:
REMARK  status: ('A' for Active; 'I' for Inactive)
REMARK    1  A    between atoms: C_1  and  C_2
REMARK    2  A    between atoms: N_4  and  C_30
REMARK    3  A    between atoms: C_8  and  C_28
REMARK    4  A    between atoms: C_9  and  N_27
REMARK    5  A    between atoms: C_10  and  C_23
REMARK    6  A    between atoms: C_10  and  C_25
REMARK    7  A    between atoms: C_11  and  C_13
REMARK    8  A    between atoms: C_18  and  C_19
REMARK    9  A    between atoms: C_30  and  C_31
REMARK                            x       y       z     vdW  Elec       q    Type
REMARK                         _______ _______ _______ _____ _____    ______ ____
ROOT
ATOM      1  C   UNL     1      -3.909   1.945  -1.678  0.00  0.00    +0.018 C 
ATOM      2  C   UNL     1      -2.628   1.472  -2.368  0.00  0.00    +0.016 C 
ATOM      3  C   UNL     1      -1.659   1.075  -1.278  0.00  0.00    +0.097 C 
ATOM      4  N   UNL     1      -0.283   1.468  -1.595  0.00  0.00    -0.294 NA
ATOM      5  C   UNL     1      -0.201   2.928  -1.778  0.00  0.00    +0.112 C 
ATOM      6  C   UNL     1      -1.048   3.286  -2.975  0.00  0.00    -0.006 C 
ATOM      7  C   UNL     1      -2.139   2.592  -3.241  0.00  0.00    -0.023 C 
ATOM      8  C   UNL     1      -2.941   2.904  -4.450  0.00  0.00    +0.074 C 
ATOM      9  C   UNL     1      -3.864   2.007  -4.881  0.00  0.00    +0.054 C 
ATOM     10  C   UNL     1      -4.147   0.710  -4.186  0.00  0.00    +0.188 C 
ATOM     11  C   UNL     1      -2.995   0.293  -3.270  0.00  0.00    +0.071 C 
ENDROOT
BRANCH  11  12
ATOM     12  C   UNL     1      -3.423  -0.877  -2.422  0.00  0.00    -0.029 A 
ATOM     13  C   UNL     1      -4.564  -0.788  -1.646  0.00  0.00    +0.004 A 
ATOM     14  C   UNL     1      -4.956  -1.861  -0.868  0.00  0.00    +0.000 A 
ATOM     15  C   UNL     1      -4.209  -3.025  -0.868  0.00  0.00    +0.001 A 
ATOM     16  C   UNL     1      -3.069  -3.114  -1.645  0.00  0.00    +0.012 A 
ATOM     17  C   UNL     1      -2.679  -2.042  -2.426  0.00  0.00    +0.058 A 
BRANCH  17  18
ATOM     18  C   UNL     1      -1.439  -2.142  -3.277  0.00  0.00    +0.418 C 
ATOM     19  F   UNL     1      -0.862  -3.405  -3.114  0.00  0.00    -0.166 F 
ATOM     20  F   UNL     1      -1.780  -1.954  -4.621  0.00  0.00    -0.166 F 
ATOM     21  F   UNL     1      -0.525  -1.157  -2.887  0.00  0.00    -0.166 F 
ENDBRANCH  17  18
ENDBRANCH  11  12
BRANCH   9  22
ATOM     22  N   UNL     1      -4.573   2.303  -6.011  0.00  0.00    -0.358 N 
ATOM     23  H   UNL     1      -5.329   1.596  -6.387  0.00  0.00    +0.142 HD
ATOM     24  H   UNL     1      -4.389   3.246  -6.545  0.00  0.00    +0.142 HD
ENDBRANCH   9  22
BRANCH  10  25
ATOM     25  C   UNL     1      -5.371   0.854  -3.382  0.00  0.00    +0.091 C 
ATOM     26  N   UNL     1      -6.316   0.966  -2.761  0.00  0.00    -0.194 NA
ENDBRANCH  10  25
BRANCH  10  27
ATOM     27  C   UNL     1      -4.358  -0.340  -5.196  0.00  0.00    +0.091 C 
ATOM     28  N   UNL     1      -4.521  -1.150  -5.976  0.00  0.00    -0.194 NA
ENDBRANCH  10  27
BRANCH   8  29
ATOM     29  C   UNL     1      -2.743   4.136  -5.153  0.00  0.00    +0.101 C 
ATOM     30  N   UNL     1      -2.586   5.113  -5.711  0.00  0.00    -0.191 NA
ENDBRANCH   8  29
BRANCH   4  31
ATOM     31  C   UNL     1       0.647   1.015  -0.551  0.00  0.00    +0.120 C 
BRANCH  31  32
ATOM     32  C   UNL     1       0.214   1.569   0.782  0.00  0.00    -0.033 A 
ATOM     33  C   UNL     1       0.698   2.790   1.213  0.00  0.00    +0.005 A 
ATOM     34  C   UNL     1       0.298   3.300   2.434  0.00  0.00    +0.000 A 
ATOM     35  C   UNL     1      -0.579   2.584   3.228  0.00  0.00    +0.000 A 
ATOM     36  C   UNL     1      -1.058   1.361   2.799  0.00  0.00    +0.000 A 
ATOM     37  C   UNL     1      -0.661   0.853   1.576  0.00  0.00    +0.005 A 
ENDBRANCH  31  32
ENDBRANCH   4  31
TORSDOF 8
