REMARK  Name = ZINC62001660
REMARK  13 active torsions:
REMARK  status: ('A' for Active; 'I' for Inactive)
REMARK    1  A    between atoms: C_1  and  C_2
REMARK    2  A    between atoms: C_5  and  O_29
REMARK    3  A    between atoms: C_6  and  C_10
REMARK    4  A    between atoms: C_7  and  O_8
REMARK    5  A    between atoms: O_8  and  C_9
REMARK    6  A    between atoms: C_10  and  C_11
REMARK    7  A    between atoms: C_12  and  C_13
REMARK    8  A    between atoms: C_12  and  C_14
REMARK    9  A    between atoms: C_14  and  C_15
REMARK   10  A    between atoms: C_15  and  C_16
REMARK   11  A    between atoms: N_18  and  C_19
REMARK   12  A    between atoms: C_19  and  C_20
REMARK   13  A    between atoms: O_29  and  C_30
REMARK                            x       y       z     vdW  Elec       q    Type
REMARK                         _______ _______ _______ _____ _____    ______ ____
ROOT
ATOM      1  C   UNL     1       1.578  -3.351   3.376  0.00  0.00    -0.023 C 
ATOM      2  C   UNL     1       1.856  -2.957   4.594  0.00  0.00    -0.076 C 
ATOM      3  C   UNL     1       0.741  -2.612   5.547  0.00  0.00    +0.039 C 
ENDROOT
BRANCH   1   4
ATOM      4  C   UNL     1       0.146  -3.579   2.966  0.00  0.00    +0.069 C 
BRANCH   4  10
ATOM      5  C   UNL     1      -1.252   0.746   0.842  0.00  0.00    +0.048 C 
ATOM      6  C   UNL     1      -0.828  -0.695   0.708  0.00  0.00    -0.001 A 
ATOM      7  C   UNL     1      -0.720  -1.264  -0.535  0.00  0.00    +0.014 A 
ATOM      8  C   UNL     1      -0.326  -2.602  -0.669  0.00  0.00    +0.108 A 
ATOM      9  C   UNL     1      -0.044  -3.357   0.479  0.00  0.00    +0.141 A 
ATOM     10  C   UNL     1      -0.156  -2.772   1.729  0.00  0.00    +0.041 A 
ATOM     11  C   UNL     1      -0.541  -1.444   1.846  0.00  0.00    +0.130 A 
ATOM     12  C   UNL     1      -0.303  -2.918  -2.103  0.00  0.00    +0.343 C 
ATOM     13  O   UNL     1      -0.004  -3.998  -2.572  0.00  0.00    -0.245 OA
ATOM     14  O   UNL     1      -0.662  -1.839  -2.820  0.00  0.00    -0.456 OA
ATOM     15  C   UNL     1      -0.943  -0.751  -1.935  0.00  0.00    +0.269 C 
BRANCH  11  16
ATOM     16  O   UNL     1      -0.644  -0.876   3.074  0.00  0.00    -0.494 OA
ATOM     17  C   UNL     1      -1.911  -0.969   3.728  0.00  0.00    +0.277 C 
ENDBRANCH  11  16
BRANCH   9  18
ATOM     18  O   UNL     1       0.338  -4.654   0.365  0.00  0.00    -0.494 OA
ATOM     19  C   UNL     1       1.722  -4.903   0.114  0.00  0.00    +0.277 C 
ENDBRANCH   9  18
ENDBRANCH   4  10
ENDBRANCH   1   4
BRANCH   2  20
ATOM     20  C   UNL     1       3.291  -2.849   5.042  0.00  0.00    +0.039 C 
BRANCH  20  21
ATOM     21  C   UNL     1       3.776  -1.410   4.857  0.00  0.00    +0.100 C 
BRANCH  21  22
ATOM     22  C   UNL     1       5.211  -1.303   5.306  0.00  0.00    +0.214 C 
ATOM     23  O   UNL     1       5.788  -2.281   5.731  0.00  0.00    -0.276 OA
ATOM     24  N   UNL     1       5.852  -0.119   5.234  0.00  0.00    -0.311 N 
ATOM     25  H   UNL     1       5.390   0.663   4.893  0.00  0.00    +0.149 HD
BRANCH  24  26
ATOM     26  C   UNL     1       7.247  -0.015   5.670  0.00  0.00    +0.139 C 
BRANCH  26  27
ATOM     27  C   UNL     1       7.725   1.403   5.487  0.00  0.00    -0.027 A 
ATOM     28  C   UNL     1       8.305   1.787   4.293  0.00  0.00    +0.009 A 
ATOM     29  C   UNL     1       8.745   3.086   4.121  0.00  0.00    +0.050 A 
ATOM     30  C   UNL     1       8.605   4.007   5.146  0.00  0.00    +0.166 A 
ATOM     31  C   UNL     1       8.021   3.620   6.350  0.00  0.00    +0.167 A 
ATOM     32  C   UNL     1       7.577   2.318   6.513  0.00  0.00    +0.054 A 
ATOM     33  O   UNL     1       7.999   4.696   7.190  0.00  0.00    -0.453 OA
ATOM     34  C   UNL     1       8.943   5.633   6.639  0.00  0.00    +0.466 C 
ATOM     35  O   UNL     1       8.949   5.325   5.232  0.00  0.00    -0.453 OA
ENDBRANCH  26  27
ENDBRANCH  24  26
ENDBRANCH  21  22
ENDBRANCH  20  21
ENDBRANCH   2  20
TORSDOF 9
