REMARK  Name = ZINC38604314
REMARK  9 active torsions:
REMARK  status: ('A' for Active; 'I' for Inactive)
REMARK    1  A    between atoms: C_1  and  C_2
REMARK    2  A    between atoms: C_5  and  N_9
REMARK    3  A    between atoms: C_7  and  C_8
REMARK    4  A    between atoms: C_11  and  C_16
REMARK    5  A    between atoms: N_18  and  C_19
REMARK    6  A    between atoms: C_19  and  C_20
REMARK    7  A    between atoms: C_20  and  C_22
REMARK    8  A    between atoms: C_20  and  N_27
REMARK    9  A    between atoms: N_30  and  C_33
REMARK                            x       y       z     vdW  Elec       q    Type
REMARK                         _______ _______ _______ _____ _____    ______ ____
ROOT
ATOM      1  C   UNL     1       4.904  -8.991  -0.184  0.00  0.00    +0.017 C 
ENDROOT
BRANCH   1   2
ATOM      2  N   UNL     1       4.249 -10.086  -0.911  0.00  0.00    +0.389 N 
ATOM      3  C   UNL     1       2.816 -10.098  -0.588  0.00  0.00    -0.059 C 
ATOM      4  C   UNL     1       2.112 -11.165  -1.431  0.00  0.00    +0.086 C 
ATOM      5  N   UNL     1       2.793 -12.452  -1.218  0.00  0.00    -0.333 N 
ATOM      6  C   UNL     1       4.256 -12.494  -1.362  0.00  0.00    +0.086 C 
ATOM      7  C   UNL     1       4.859 -11.364  -0.521  0.00  0.00    -0.059 C 
ATOM      8  H   UNL     1       4.366  -9.947  -1.903  0.00  0.00    -0.081 HD
BRANCH   5   9
ATOM      9  C   UNL     1       2.069 -13.602  -0.889  0.00  0.00    +0.030 A 
ATOM     10  C   UNL     1       0.681 -13.572  -0.882  0.00  0.00    +0.026 A 
ATOM     11  C   UNL     1      -0.032 -14.710  -0.558  0.00  0.00    +0.040 A 
ATOM     12  C   UNL     1       0.637 -15.880  -0.239  0.00  0.00    +0.124 A 
ATOM     13  C   UNL     1       2.021 -15.912  -0.245  0.00  0.00    +0.040 A 
ATOM     14  C   UNL     1       2.738 -14.778  -0.575  0.00  0.00    +0.026 A 
ATOM     15  F   UNL     1      -0.062 -16.991   0.079  0.00  0.00    -0.205 F 
ENDBRANCH   5   9
ENDBRANCH   1   2
BRANCH   1  16
ATOM     16  C   UNL     1       6.388  -9.033  -0.443  0.00  0.00    +0.093 A 
ATOM     17  C   UNL     1       7.352  -8.810   0.468  0.00  0.00    +0.043 A 
ATOM     18  C   UNL     1       8.589  -8.951  -0.202  0.00  0.00    +0.041 A 
ATOM     19  C   UNL     1       8.307  -9.251  -1.482  0.00  0.00    +0.195 A 
ATOM     20  O   UNL     1       6.972  -9.305  -1.621  0.00  0.00    -0.469 OA
ENDBRANCH   1  16
BRANCH   1  21
ATOM     21  C   UNL     1       4.341  -7.652  -0.664  0.00  0.00    +0.096 C 
BRANCH  21  24
ATOM     22  C   UNL     1       4.153  -6.412  -2.753  0.00  0.00    +0.218 C 
ATOM     23  O   UNL     1       3.720  -5.471  -2.121  0.00  0.00    -0.275 OA
ATOM     24  N   UNL     1       4.493  -7.550  -2.117  0.00  0.00    -0.316 N 
ATOM     25  H   UNL     1       4.839  -8.303  -2.622  0.00  0.00    +0.149 HD
BRANCH  22  28
ATOM     26  N   UNL     1       2.446  -5.075  -5.120  0.00  0.00    -0.271 N 
ATOM     27  C   UNL     1       3.860  -4.919  -4.755  0.00  0.00    +0.127 C 
ATOM     28  C   UNL     1       4.310  -6.307  -4.248  0.00  0.00    +0.101 C 
ATOM     29  C   UNL     1       3.319  -7.245  -4.976  0.00  0.00    +0.110 C 
ATOM     30  C   UNL     1       2.115  -6.371  -5.250  0.00  0.00    +0.221 C 
ATOM     31  O   UNL     1       1.013  -6.780  -5.546  0.00  0.00    -0.275 OA
BRANCH  26  36
ATOM     32  C   UNL     1      -1.163  -0.760  -5.857  0.00  0.00    +0.044 C 
ATOM     33  C   UNL     1      -0.204  -1.906  -5.661  0.00  0.00    -0.047 A 
ATOM     34  C   UNL     1      -0.609  -3.200  -5.936  0.00  0.00    +0.005 A 
ATOM     35  C   UNL     1       0.267  -4.252  -5.757  0.00  0.00    +0.024 A 
ATOM     36  C   UNL     1       1.556  -4.011  -5.302  0.00  0.00    +0.037 A 
ATOM     37  C   UNL     1       1.961  -2.711  -5.027  0.00  0.00    +0.027 A 
ATOM     38  C   UNL     1       1.081  -1.662  -5.213  0.00  0.00    -0.046 A 
ATOM     39  C   UNL     1       1.520  -0.251  -4.920  0.00  0.00    +0.044 C 
ENDBRANCH  26  36
ENDBRANCH  22  28
ENDBRANCH  21  24
ENDBRANCH   1  21
TORSDOF 7
