REMARK  Name = ZINC06819799
REMARK  5 active torsions:
REMARK  status: ('A' for Active; 'I' for Inactive)
REMARK    1  A    between atoms: C_1  and  C_2
REMARK    2  A    between atoms: N_12  and  C_13
REMARK    3  A    between atoms: C_13  and  C_14
REMARK    4  A    between atoms: N_16  and  C_17
REMARK    5  A    between atoms: C_23  and  C_25
REMARK                            x       y       z     vdW  Elec       q    Type
REMARK                         _______ _______ _______ _____ _____    ______ ____
ROOT
ATOM      1  C   UNL     1      10.194   2.008  -1.838  0.00  0.00    +0.044 C 
ATOM      2  C   UNL     1       9.208   2.947  -1.192  0.00  0.00    -0.050 A 
ATOM      3  C   UNL     1       9.607   4.217  -0.815  0.00  0.00    +0.007 A 
ATOM      4  C   UNL     1       8.719   5.088  -0.212  0.00  0.00    +0.046 A 
ATOM      5  C   UNL     1       7.412   4.695   0.023  0.00  0.00    +0.130 A 
ATOM      6  C   UNL     1       7.008   3.408  -0.377  0.00  0.00    +0.042 A 
ATOM      7  C   UNL     1       7.905   2.539  -0.976  0.00  0.00    +0.017 A 
ATOM      8  C   UNL     1       5.595   3.059  -0.134  0.00  0.00    +0.079 A 
ATOM      9  C   UNL     1       4.703   4.059   0.211  0.00  0.00    +0.035 A 
ATOM     10  C   UNL     1       3.465   3.474   0.386  0.00  0.00    +0.142 A 
ATOM     11  N   UNL     1       3.578   2.184   0.161  0.00  0.00    -0.178 NA
ATOM     12  N   UNL     1       4.915   1.901  -0.171  0.00  0.00    -0.254 N 
ATOM     13  C   UNL     1       5.151   5.492   0.330  0.00  0.00    +0.268 C 
ATOM     14  O   UNL     1       6.543   5.523   0.651  0.00  0.00    -0.487 OA
ENDROOT
BRANCH  12  15
ATOM     15  C   UNL     1       5.466   0.584  -0.497  0.00  0.00    +0.239 C 
BRANCH  15  16
ATOM     16  C   UNL     1       5.386   0.361  -1.985  0.00  0.00    +0.235 C 
ATOM     17  O   UNL     1       4.914   1.218  -2.703  0.00  0.00    -0.274 OA
ATOM     18  N   UNL     1       5.837  -0.791  -2.519  0.00  0.00    -0.311 N 
ATOM     19  H   UNL     1       6.215  -1.477  -1.946  0.00  0.00    +0.149 HD
BRANCH  18  20
ATOM     20  C   UNL     1       5.759  -1.009  -3.966  0.00  0.00    +0.076 C 
ATOM     21  C   UNL     1       6.982  -0.386  -4.642  0.00  0.00    +0.022 C 
ATOM     22  C   UNL     1       8.254  -1.039  -4.096  0.00  0.00    +0.002 C 
ATOM     23  C   UNL     1       8.220  -2.542  -4.386  0.00  0.00    +0.000 C 
ATOM     24  C   UNL     1       6.997  -3.164  -3.709  0.00  0.00    +0.005 C 
ATOM     25  C   UNL     1       5.725  -2.511  -4.255  0.00  0.00    +0.006 C 
ATOM     26  C   UNL     1       4.502  -3.133  -3.579  0.00  0.00    +0.009 C 
ENDBRANCH  18  20
ENDBRANCH  15  16
ENDBRANCH  12  15
TORSDOF 3
