REMARK  Name = ZINC01380023
REMARK  11 active torsions:
REMARK  status: ('A' for Active; 'I' for Inactive)
REMARK    1  A    between atoms: C_1  and  C_2
REMARK    2  A    between atoms: C_2  and  O_3
REMARK    3  A    between atoms: O_3  and  C_4
REMARK    4  A    between atoms: C_7  and  C_10
REMARK    5  A    between atoms: C_10  and  C_12
REMARK    6  A    between atoms: C_10  and  N_20
REMARK    7  A    between atoms: N_14  and  C_15
REMARK    8  A    between atoms: N_20  and  C_21
REMARK    9  A    between atoms: C_26  and  C_27
REMARK   10  A    between atoms: C_27  and  C_29
REMARK   11  A    between atoms: C_33  and  C_35
REMARK                            x       y       z     vdW  Elec       q    Type
REMARK                         _______ _______ _______ _____ _____    ______ ____
ROOT
ATOM      1  N   UNL     1       3.504  -3.169   1.814  0.00  0.00    -0.248 N 
ATOM      2  C   UNL     1       3.749  -2.174   0.939  0.00  0.00    +0.287 C 
ATOM      3  O   UNL     1       4.640  -2.292   0.118  0.00  0.00    -0.266 OA
ENDROOT
BRANCH   1   4
ATOM      4  C   UNL     1       2.558  -2.994   2.819  0.00  0.00    +0.052 A 
ATOM      5  C   UNL     1       2.928  -2.442   4.035  0.00  0.00    +0.073 A 
ATOM      6  C   UNL     1       1.986  -2.266   5.037  0.00  0.00    +0.168 A 
ATOM      7  C   UNL     1       0.656  -2.645   4.827  0.00  0.00    +0.167 A 
ATOM      8  C   UNL     1       0.275  -3.196   3.623  0.00  0.00    +0.062 A 
ATOM      9  C   UNL     1       1.221  -3.377   2.604  0.00  0.00    +0.042 A 
ATOM     10  O   UNL     1      -0.058  -2.366   5.958  0.00  0.00    -0.453 OA
ATOM     11  C   UNL     1       0.754  -1.442   6.706  0.00  0.00    +0.466 C 
ATOM     12  O   UNL     1       2.098  -1.755   6.295  0.00  0.00    -0.453 OA
BRANCH   9  13
ATOM     13  C   UNL     1       0.820  -3.962   1.323  0.00  0.00    +0.162 C 
ATOM     14  O   UNL     1       1.613  -4.016   0.406  0.00  0.00    -0.292 OA
ATOM     15  C   UNL     1      -0.577  -4.497   1.143  0.00  0.00    +0.091 C 
ENDBRANCH   9  13
ENDBRANCH   1   4
BRANCH   2  16
ATOM     16  C   UNL     1       2.942  -0.951   0.975  0.00  0.00    +0.190 A 
ATOM     17  C   UNL     1       3.083   0.128   0.149  0.00  0.00    +0.054 A 
ATOM     18  C   UNL     1       2.110   1.062   0.536  0.00  0.00    +0.042 A 
ATOM     19  C   UNL     1       1.425   0.519   1.567  0.00  0.00    +0.196 A 
ATOM     20  O   UNL     1       1.926  -0.696   1.825  0.00  0.00    -0.458 OA
ENDBRANCH   2  16
BRANCH   1  21
ATOM     21  C   UNL     1       4.235  -4.434   1.709  0.00  0.00    +0.198 C 
BRANCH  21  25
ATOM     22  C   UNL     1       1.457  -7.679   1.593  0.00  0.00    +0.121 A 
ATOM     23  C   UNL     1       2.368  -7.507   0.561  0.00  0.00    +0.046 A 
ATOM     24  C   UNL     1       3.264  -6.457   0.601  0.00  0.00    +0.009 A 
ATOM     25  C   UNL     1       3.255  -5.579   1.668  0.00  0.00    -0.018 A 
ATOM     26  C   UNL     1       2.352  -5.751   2.700  0.00  0.00    +0.009 A 
ATOM     27  C   UNL     1       1.449  -6.795   2.663  0.00  0.00    +0.046 A 
BRANCH  22  28
ATOM     28  O   UNL     1       0.574  -8.711   1.557  0.00  0.00    -0.492 OA
BRANCH  28  30
ATOM     29  C   UNL     1      -1.244 -10.038   2.438  0.00  0.00    +0.048 C 
ATOM     30  C   UNL     1      -0.335  -8.827   2.654  0.00  0.00    +0.225 C 
ENDBRANCH  28  30
ENDBRANCH  22  28
ENDBRANCH  21  25
BRANCH  21  31
ATOM     31  C   UNL     1       5.142  -4.592   2.902  0.00  0.00    +0.239 C 
ATOM     32  O   UNL     1       5.086  -3.796   3.815  0.00  0.00    -0.273 OA
ATOM     33  N   UNL     1       6.015  -5.617   2.954  0.00  0.00    -0.311 N 
ATOM     34  H   UNL     1       6.060  -6.254   2.223  0.00  0.00    +0.149 HD
BRANCH  33  35
ATOM     35  C   UNL     1       6.897  -5.770   4.114  0.00  0.00    +0.073 C 
ATOM     36  C   UNL     1       8.193  -4.962   3.903  0.00  0.00    +0.022 C 
ATOM     37  C   UNL     1       9.299  -5.846   4.531  0.00  0.00    +0.002 C 
ATOM     38  C   UNL     1       8.854  -7.278   4.142  0.00  0.00    +0.002 C 
ATOM     39  C   UNL     1       7.317  -7.243   4.266  0.00  0.00    +0.022 C 
ENDBRANCH  33  35
ENDBRANCH  21  31
ENDBRANCH   1  21
TORSDOF 9
