REMARK  Name = ZINC39675451
REMARK  10 active torsions:
REMARK  status: ('A' for Active; 'I' for Inactive)
REMARK    1  A    between atoms: C_1  and  C_2
REMARK    2  A    between atoms: C_2  and  C_4
REMARK    3  A    between atoms: C_2  and  N_14
REMARK    4  A    between atoms: C_4  and  C_5
REMARK    5  A    between atoms: C_5  and  C_6
REMARK    6  A    between atoms: C_9  and  O_12
REMARK    7  A    between atoms: O_12  and  C_13
REMARK    8  A    between atoms: C_15  and  C_17
REMARK    9  A    between atoms: C_28  and  C_30
REMARK   10  A    between atoms: C_33  and  C_35
REMARK                            x       y       z     vdW  Elec       q    Type
REMARK                         _______ _______ _______ _____ _____    ______ ____
ROOT
ATOM      1  C   UNL     1      -3.442  -1.177   1.191  0.00  0.00    +0.100 C 
ATOM      2  C   UNL     1      -4.400  -0.149   0.548  0.00  0.00    +0.121 C 
ATOM      3  N   UNL     1      -5.639  -0.235   1.355  0.00  0.00    -0.294 N 
ATOM      4  C   UNL     1      -5.160  -0.392   2.750  0.00  0.00    +0.115 C 
ATOM      5  C   UNL     1      -3.945  -1.333   2.637  0.00  0.00    -0.004 C 
ATOM      6  C   UNL     1      -4.368  -2.776   2.896  0.00  0.00    -0.010 C 
ATOM      7  C   UNL     1      -4.810  -2.919   4.355  0.00  0.00    -0.082 C 
ATOM      8  N   UNL     1      -3.701  -2.546   5.242  0.00  0.00    +0.379 N 
ATOM      9  C   UNL     1      -3.362  -1.131   5.052  0.00  0.00    -0.082 C 
ATOM     10  C   UNL     1      -2.859  -0.912   3.622  0.00  0.00    -0.010 C 
ATOM     11  C   UNL     1      -6.914  -0.182   0.921  0.00  0.00    +0.282 C 
ATOM     12  O   UNL     1      -7.832  -0.267   1.716  0.00  0.00    -0.267 OA
ATOM     13  H   UNL     1      -3.974  -2.699   6.202  0.00  0.00    -0.086 HD
ATOM     14  H   UNL     1      -2.896  -3.115   5.030  0.00  0.00    -0.086 HD
ENDROOT
BRANCH  11  15
ATOM     15  C   UNL     1      -7.194  -0.022  -0.508  0.00  0.00    +0.190 A 
ATOM     16  C   UNL     1      -8.444   0.052  -1.084  0.00  0.00    +0.055 A 
ATOM     17  C   UNL     1      -8.246   0.203  -2.460  0.00  0.00    +0.051 A 
ATOM     18  C   UNL     1      -6.897   0.215  -2.672  0.00  0.00    +0.139 A 
ATOM     19  O   UNL     1      -6.274   0.084  -1.490  0.00  0.00    -0.450 OA
BRANCH  18  20
ATOM     20  C   UNL     1      -6.234   0.354  -3.984  0.00  0.00    +0.052 A 
ATOM     21  C   UNL     1      -6.624  -0.451  -5.057  0.00  0.00    +0.014 A 
ATOM     22  C   UNL     1      -6.000  -0.316  -6.279  0.00  0.00    +0.001 A 
ATOM     23  C   UNL     1      -4.989   0.615  -6.446  0.00  0.00    +0.003 A 
ATOM     24  C   UNL     1      -4.596   1.417  -5.390  0.00  0.00    +0.039 A 
ATOM     25  C   UNL     1      -5.216   1.297  -4.160  0.00  0.00    +0.134 A 
ATOM     26  F   UNL     1      -4.836   2.084  -3.130  0.00  0.00    -0.205 F 
ENDBRANCH  18  20
ENDBRANCH  11  15
BRANCH   1  28
ATOM     27  N   UNL     1      -0.993  -1.516   1.122  0.00  0.00    -0.312 N 
ATOM     28  C   UNL     1      -2.029  -0.655   1.181  0.00  0.00    +0.218 C 
ATOM     29  O   UNL     1      -1.823   0.539   1.225  0.00  0.00    -0.275 OA
ATOM     30  H   UNL     1      -1.158  -2.471   1.087  0.00  0.00    +0.149 HD
BRANCH  27  32
ATOM     31  C   UNL     1       0.784  -0.656  -0.321  0.00  0.00    +0.028 C 
ATOM     32  C   UNL     1       0.381  -1.009   1.112  0.00  0.00    +0.070 C 
BRANCH  32  33
ATOM     33  C   UNL     1       1.325  -2.083   1.657  0.00  0.00    +0.026 C 
BRANCH  33  34
ATOM     34  C   UNL     1       1.002  -2.346   3.129  0.00  0.00    +0.037 C 
BRANCH  34  35
ATOM     35  C   UNL     1       1.932  -3.403   3.666  0.00  0.00    -0.047 A 
ATOM     36  C   UNL     1       1.580  -4.738   3.584  0.00  0.00    +0.007 A 
ATOM     37  C   UNL     1       2.430  -5.709   4.076  0.00  0.00    +0.046 A 
ATOM     38  C   UNL     1       3.638  -5.345   4.652  0.00  0.00    +0.120 A 
ATOM     39  C   UNL     1       3.989  -4.005   4.734  0.00  0.00    +0.046 A 
ATOM     40  C   UNL     1       3.138  -3.038   4.235  0.00  0.00    +0.007 A 
BRANCH  38  41
ATOM     41  O   UNL     1       4.476  -6.298   5.137  0.00  0.00    -0.495 OA
ATOM     42  C   UNL     1       5.703  -5.850   5.718  0.00  0.00    +0.277 C 
ENDBRANCH  38  41
ENDBRANCH  34  35
ENDBRANCH  33  34
ENDBRANCH  32  33
ENDBRANCH  27  32
ENDBRANCH   1  28
TORSDOF 8
