REMARK  Name = ZINC15005725
REMARK  6 active torsions:
REMARK  status: ('A' for Active; 'I' for Inactive)
REMARK    1  A    between atoms: C_8  and  C_10
REMARK    2  A    between atoms: C_16  and  C_18
REMARK    3  A    between atoms: C_18  and  C_19
REMARK    4  A    between atoms: C_19  and  C_20
REMARK    5  A    between atoms: C_20  and  C_26
REMARK    6  A    between atoms: C_26  and  C_27
REMARK                            x       y       z     vdW  Elec       q    Type
REMARK                         _______ _______ _______ _____ _____    ______ ____
ROOT
ATOM      1  C   UNL     1      -2.182   1.500  -1.237  0.00  0.00    +0.098 C 
ENDROOT
BRANCH   1   8
ATOM      2  C   UNL     1      -6.993   1.992  -2.554  0.00  0.00    +0.078 C 
ATOM      3  C   UNL     1      -6.158   2.932  -3.427  0.00  0.00    +0.032 C 
ATOM      4  C   UNL     1      -4.882   2.211  -3.870  0.00  0.00    +0.108 C 
ATOM      5  N   UNL     1      -4.181   1.712  -2.679  0.00  0.00    -0.301 N 
ATOM      6  C   UNL     1      -4.918   0.869  -1.728  0.00  0.00    +0.108 C 
ATOM      7  C   UNL     1      -6.196   1.609  -1.305  0.00  0.00    +0.032 C 
ATOM      8  C   UNL     1      -2.886   2.019  -2.465  0.00  0.00    +0.216 C 
ATOM      9  O   UNL     1      -2.288   2.712  -3.260  0.00  0.00    -0.276 OA
BRANCH   2  17
ATOM     10  C   UNL     1     -11.649   5.234  -0.615  0.00  0.00    +0.002 A 
ATOM     11  C   UNL     1     -12.397   4.248  -1.242  0.00  0.00    +0.004 A 
ATOM     12  C   UNL     1     -11.774   3.200  -1.885  0.00  0.00    +0.048 A 
ATOM     13  C   UNL     1     -10.389   3.128  -1.906  0.00  0.00    +0.155 A 
ATOM     14  C   UNL     1      -9.629   4.123  -1.273  0.00  0.00    +0.110 A 
ATOM     15  C   UNL     1     -10.273   5.178  -0.626  0.00  0.00    +0.031 A 
ATOM     16  N   UNL     1      -8.323   3.785  -1.454  0.00  0.00    -0.213 NA
ATOM     17  C   UNL     1      -8.266   2.686  -2.144  0.00  0.00    +0.200 A 
ATOM     18  O   UNL     1      -9.504   2.255  -2.434  0.00  0.00    -0.439 OA
ENDBRANCH   2  17
ENDBRANCH   1   8
BRANCH   1  19
ATOM     19  C   UNL     1      -0.733   1.990  -1.236  0.00  0.00    +0.035 C 
BRANCH  19  20
ATOM     20  C   UNL     1      -0.018   1.463   0.010  0.00  0.00    +0.039 C 
ATOM     21  C   UNL     1       1.465   1.896  -0.002  0.00  0.00    +0.035 C 
ATOM     22  C   UNL     1       2.144   0.675  -0.664  0.00  0.00    +0.098 C 
ATOM     23  C   UNL     1       1.203  -0.474  -0.379  0.00  0.00    +0.214 C 
ATOM     24  O   UNL     1       1.489  -1.648  -0.478  0.00  0.00    -0.276 OA
ATOM     25  N   UNL     1       0.002  -0.004   0.002  0.00  0.00    -0.309 N 
ATOM     26  H   UNL     1      -0.754  -0.563   0.240  0.00  0.00    +0.149 HD
BRANCH  20  27
ATOM     27  C   UNL     1      -0.709   1.977   1.275  0.00  0.00    +0.061 C 
BRANCH  27  28
ATOM     28  C   UNL     1       0.028   1.473   2.489  0.00  0.00    -0.042 A 
ATOM     29  C   UNL     1       1.060   2.219   3.029  0.00  0.00    +0.007 A 
ATOM     30  C   UNL     1       1.738   1.762   4.143  0.00  0.00    +0.050 A 
ATOM     31  C   UNL     1       1.386   0.553   4.721  0.00  0.00    +0.166 A 
ATOM     32  C   UNL     1       0.347  -0.199   4.178  0.00  0.00    +0.166 A 
ATOM     33  C   UNL     1      -0.333   0.269   3.065  0.00  0.00    +0.053 A 
ATOM     34  O   UNL     1       0.195  -1.334   4.920  0.00  0.00    -0.453 OA
ATOM     35  C   UNL     1       0.877  -1.076   6.162  0.00  0.00    +0.466 C 
ATOM     36  O   UNL     1       1.885  -0.112   5.804  0.00  0.00    -0.453 OA
ENDBRANCH  27  28
ENDBRANCH  20  27
ENDBRANCH  19  20
ENDBRANCH   1  19
TORSDOF 6
