REMARK  Name = ZINC15673727
REMARK  11 active torsions:
REMARK  status: ('A' for Active; 'I' for Inactive)
REMARK    1  A    between atoms: C_1  and  C_2
REMARK    2  A    between atoms: C_2  and  C_3
REMARK    3  A    between atoms: C_2  and  C_4
REMARK    4  A    between atoms: C_2  and  C_5
REMARK    5  A    between atoms: C_8  and  C_11
REMARK    6  A    between atoms: C_13  and  C_16
REMARK    7  A    between atoms: C_16  and  C_17
REMARK    8  A    between atoms: C_22  and  C_24
REMARK    9  A    between atoms: C_24  and  C_25
REMARK   10  A    between atoms: N_27  and  C_28
REMARK   11  A    between atoms: C_28  and  C_29
REMARK                            x       y       z     vdW  Elec       q    Type
REMARK                         _______ _______ _______ _____ _____    ______ ____
ROOT
ATOM      1  C   UNL     1      -6.651   5.233   1.272  0.00  0.00    -0.019 C 
ATOM      2  C   UNL     1      -6.274   6.704   1.084  0.00  0.00    -0.079 C 
ATOM      3  C   UNL     1      -8.247   7.424   2.292  0.00  0.00    -0.082 C 
ATOM      4  C   UNL     1      -8.683   5.975   2.516  0.00  0.00    -0.015 C 
ATOM      5  C   UNL     1      -8.175   5.109   1.360  0.00  0.00    -0.002 C 
ATOM      6  N   UNL     1      -6.775   7.495   2.224  0.00  0.00    +0.379 N 
ATOM      7  H   UNL     1      -6.489   8.475   2.107  0.00  0.00    -0.086 HD
ATOM      8  H   UNL     1      -6.377   7.124   3.094  0.00  0.00    -0.086 HD
ENDROOT
BRANCH   1   9
ATOM      9  C   UNL     1      -6.141   4.418   0.081  0.00  0.00    +0.061 C 
BRANCH   9  12
ATOM     10  C   UNL     1      -2.522   3.870   0.045  0.00  0.00    +0.167 A 
ATOM     11  C   UNL     1      -3.776   3.321   0.048  0.00  0.00    +0.076 A 
ATOM     12  C   UNL     1      -4.634   4.440   0.067  0.00  0.00    +0.084 A 
ATOM     13  N   UNL     1      -3.870   5.495   0.065  0.00  0.00    -0.083 NA
ATOM     14  O   UNL     1      -2.697   5.203   0.052  0.00  0.00    -0.354 OA
BRANCH  10  18
ATOM     15  C   UNL     1       1.177   1.782   0.000  0.00  0.00    -0.042 A 
ATOM     16  C   UNL     1      -0.013   1.076   0.008  0.00  0.00    +0.005 A 
ATOM     17  C   UNL     1      -1.217   1.748   0.017  0.00  0.00    +0.012 A 
ATOM     18  C   UNL     1      -1.234   3.143   0.030  0.00  0.00    +0.020 A 
ATOM     19  C   UNL     1      -0.031   3.850   0.022  0.00  0.00    +0.012 A 
ATOM     20  C   UNL     1       1.167   3.166   0.007  0.00  0.00    +0.005 A 
BRANCH  15  22
ATOM     21  C   UNL     1       2.567   0.170  -1.271  0.00  0.00    +0.015 C 
ATOM     22  C   UNL     1       2.489   1.042  -0.016  0.00  0.00    -0.013 C 
ATOM     23  C   UNL     1       3.642   2.047  -0.022  0.00  0.00    +0.015 C 
ATOM     24  C   UNL     1       2.591   0.156   1.228  0.00  0.00    +0.015 C 
ENDBRANCH  15  22
ENDBRANCH  10  18
ENDBRANCH   9  12
ENDBRANCH   1   9
BRANCH   5  25
ATOM     25  C   UNL     1      -8.803   5.587   0.049  0.00  0.00    +0.099 C 
BRANCH  25  26
ATOM     26  C   UNL     1     -10.291   5.351   0.090  0.00  0.00    +0.214 C 
ATOM     27  O   UNL     1     -10.799   4.850   1.071  0.00  0.00    -0.276 OA
ATOM     28  N   UNL     1     -11.057   5.696  -0.964  0.00  0.00    -0.308 N 
ATOM     29  H   UNL     1     -10.651   6.097  -1.748  0.00  0.00    +0.149 HD
BRANCH  28  30
ATOM     30  C   UNL     1     -12.504   5.467  -0.924  0.00  0.00    +0.178 C 
BRANCH  30  31
ATOM     31  C   UNL     1     -13.123   5.937  -2.215  0.00  0.00    +0.122 A 
ATOM     32  C   UNL     1     -13.300   5.191  -3.320  0.00  0.00    +0.046 A 
ATOM     33  C   UNL     1     -13.911   6.026  -4.284  0.00  0.00    +0.041 A 
ATOM     34  C   UNL     1     -14.070   7.232  -3.711  0.00  0.00    +0.195 A 
ATOM     35  O   UNL     1     -13.596   7.171  -2.455  0.00  0.00    -0.466 OA
ENDBRANCH  30  31
ENDBRANCH  28  30
ENDBRANCH  25  26
ENDBRANCH   5  25
TORSDOF 8
