REMARK  Name = ZINC05051101
REMARK  9 active torsions:
REMARK  status: ('A' for Active; 'I' for Inactive)
REMARK    1  A    between atoms: C_1  and  C_2
REMARK    2  A    between atoms: N_13  and  C_18
REMARK    3  A    between atoms: C_15  and  C_16
REMARK    4  A    between atoms: C_18  and  C_19
REMARK    5  A    between atoms: C_19  and  C_21
REMARK    6  A    between atoms: C_19  and  O_30
REMARK    7  A    between atoms: C_21  and  N_22
REMARK    8  A    between atoms: N_22  and  C_23
REMARK    9  A    between atoms: C_23  and  C_24
REMARK                            x       y       z     vdW  Elec       q    Type
REMARK                         _______ _______ _______ _____ _____    ______ ____
ROOT
ATOM      1  C   UNL     1      -0.018   1.503   0.010  0.00  0.00    +0.045 C 
ATOM      2  C   UNL     1       0.002  -0.004   0.002  0.00  0.00    -0.024 A 
ATOM      3  C   UNL     1       0.006  -0.689  -1.178  0.00  0.00    +0.075 A 
ATOM      4  C   UNL     1       0.025  -2.089  -1.173  0.00  0.00    +0.258 A 
ATOM      5  O   UNL     1       0.029  -2.694  -2.232  0.00  0.00    -0.267 OA
ATOM      6  N   UNL     1       0.040  -2.777  -0.015  0.00  0.00    -0.260 N 
ATOM      7  C   UNL     1       0.060  -4.148   0.239  0.00  0.00    +0.075 A 
ATOM      8  C   UNL     1       0.072  -5.261  -0.591  0.00  0.00    +0.028 A 
ATOM      9  C   UNL     1       0.092  -6.527  -0.041  0.00  0.00    +0.002 A 
ATOM     10  C   UNL     1       0.101  -6.692   1.334  0.00  0.00    +0.002 A 
ATOM     11  C   UNL     1       0.089  -5.592   2.167  0.00  0.00    +0.028 A 
ATOM     12  C   UNL     1       0.069  -4.313   1.624  0.00  0.00    +0.068 A 
ATOM     13  N   UNL     1       0.054  -3.045   2.189  0.00  0.00    -0.322 N 
ATOM     14  C   UNL     1       0.036  -2.126   1.179  0.00  0.00    +0.140 A 
ATOM     15  C   UNL     1       0.023  -0.724   1.212  0.00  0.00    +0.096 A 
ENDROOT
BRANCH  15  16
ATOM     16  C   UNL     1       0.026  -0.030   2.465  0.00  0.00    +0.103 C 
ATOM     17  N   UNL     1       0.028   0.520   3.459  0.00  0.00    -0.191 NA
ENDBRANCH  15  16
BRANCH  13  18
ATOM     18  C   UNL     1       0.056  -2.744   3.623  0.00  0.00    +0.153 C 
BRANCH  18  19
ATOM     19  C   UNL     1       1.500  -2.618   4.115  0.00  0.00    +0.117 C 
BRANCH  19  20
ATOM     20  O   UNL     1       2.190  -3.848   3.885  0.00  0.00    -0.392 OA
ATOM     21  H   UNL     1       1.799  -4.609   4.337  0.00  0.00    +0.210 HD
ENDBRANCH  19  20
BRANCH  19  22
ATOM     22  C   UNL     1       1.502  -2.304   5.612  0.00  0.00    -0.049 C 
BRANCH  22  23
ATOM     23  N   UNL     1       2.881  -2.066   6.060  0.00  0.00    +0.383 N 
ATOM     24  H   UNL     1       3.438  -2.889   5.889  0.00  0.00    -0.085 HD
ATOM     25  H   UNL     1       3.269  -1.285   5.552  0.00  0.00    -0.085 HD
BRANCH  23  26
ATOM     26  C   UNL     1       2.883  -1.764   7.498  0.00  0.00    -0.047 C 
BRANCH  26  27
ATOM     27  C   UNL     1       4.298  -1.519   7.958  0.00  0.00    -0.064 A 
ATOM     28  C   UNL     1       5.070  -2.573   8.407  0.00  0.00    +0.002 A 
ATOM     29  C   UNL     1       6.367  -2.349   8.829  0.00  0.00    +0.000 A 
ATOM     30  C   UNL     1       6.892  -1.070   8.800  0.00  0.00    +0.000 A 
ATOM     31  C   UNL     1       6.120  -0.016   8.349  0.00  0.00    +0.000 A 
ATOM     32  C   UNL     1       4.824  -0.241   7.924  0.00  0.00    +0.002 A 
ENDBRANCH  26  27
ENDBRANCH  23  26
ENDBRANCH  22  23
ENDBRANCH  19  22
ENDBRANCH  18  19
ENDBRANCH  13  18
TORSDOF 8
