REMARK  Name = ZINC22089823
REMARK  14 active torsions:
REMARK  status: ('A' for Active; 'I' for Inactive)
REMARK    1  A    between atoms: C_1  and  C_2
REMARK    2  A    between atoms: C_5  and  S_26
REMARK    3  A    between atoms: C_7  and  C_8
REMARK    4  A    between atoms: C_8  and  O_10
REMARK    5  A    between atoms: O_10  and  C_11
REMARK    6  A    between atoms: C_11  and  C_13
REMARK    7  A    between atoms: C_11  and  C_14
REMARK    8  A    between atoms: N_16  and  C_17
REMARK    9  A    between atoms: C_23  and  C_25
REMARK   10  A    between atoms: S_26  and  N_29
REMARK   11  A    between atoms: N_29  and  C_30
REMARK   12  A    between atoms: C_30  and  C_31
REMARK   13  A    between atoms: C_30  and  C_32
REMARK   14  A    between atoms: C_30  and  C_33
REMARK                            x       y       z     vdW  Elec       q    Type
REMARK                         _______ _______ _______ _____ _____    ______ ____
ROOT
ATOM      1  C   UNL     1      -2.254   0.237   0.941  0.00  0.00    +0.044 C 
ATOM      2  C   UNL     1      -1.188   1.278   0.716  0.00  0.00    -0.036 A 
ATOM      3  C   UNL     1       0.119   1.018   1.074  0.00  0.00    +0.006 A 
ATOM      4  C   UNL     1       1.100   1.970   0.863  0.00  0.00    +0.029 A 
ATOM      5  C   UNL     1       0.778   3.190   0.296  0.00  0.00    +0.106 A 
ATOM      6  C   UNL     1      -0.525   3.466  -0.062  0.00  0.00    +0.043 A 
ATOM      7  C   UNL     1      -1.521   2.509   0.148  0.00  0.00    +0.064 A 
ENDROOT
BRANCH   5   8
ATOM      8  S   UNL     1       2.036   4.395   0.031  0.00  0.00    +0.059 S 
ATOM      9  O   UNL     1       1.452   5.660   0.310  0.00  0.00    -0.153 OA
ATOM     10  O   UNL     1       3.196   3.927   0.704  0.00  0.00    -0.153 OA
BRANCH   8  11
ATOM     11  N   UNL     1       2.391   4.385  -1.587  0.00  0.00    -0.185 NA
ATOM     12  H   UNL     1       2.298   5.317  -2.163  0.00  0.00    +0.149 HD
BRANCH  11  13
ATOM     13  C   UNL     1       3.026   3.211  -2.189  0.00  0.00    +0.032 C 
ATOM     14  C   UNL     1       2.155   1.977  -1.945  0.00  0.00    +0.029 C 
ATOM     15  C   UNL     1       3.184   3.433  -3.695  0.00  0.00    +0.029 C 
ATOM     16  C   UNL     1       4.403   2.995  -1.558  0.00  0.00    +0.029 C 
ENDBRANCH  11  13
ENDBRANCH   8  11
ENDBRANCH   5   8
BRANCH   7  17
ATOM     17  C   UNL     1      -2.918   2.797  -0.233  0.00  0.00    +0.340 C 
ATOM     18  O   UNL     1      -3.799   2.009   0.049  0.00  0.00    -0.245 OA
BRANCH  17  19
ATOM     19  O   UNL     1      -3.216   3.933  -0.894  0.00  0.00    -0.449 OA
BRANCH  19  20
ATOM     20  C   UNL     1      -4.611   4.149  -1.236  0.00  0.00    +0.259 C 
ATOM     21  C   UNL     1      -4.896   3.548  -2.614  0.00  0.00    +0.062 C 
BRANCH  20  22
ATOM     22  C   UNL     1      -4.897   5.629  -1.265  0.00  0.00    +0.254 C 
ATOM     23  O   UNL     1      -3.994   6.424  -1.110  0.00  0.00    -0.272 OA
ATOM     24  N   UNL     1      -6.155   6.068  -1.463  0.00  0.00    -0.309 N 
ATOM     25  H   UNL     1      -6.974   5.347  -1.603  0.00  0.00    +0.149 HD
BRANCH  24  26
ATOM     26  C   UNL     1      -6.433   7.506  -1.490  0.00  0.00    +0.076 C 
ATOM     27  C   UNL     1      -6.180   8.047  -2.899  0.00  0.00    +0.022 C 
ATOM     28  C   UNL     1      -6.470   9.549  -2.928  0.00  0.00    +0.002 C 
ATOM     29  C   UNL     1      -7.931   9.794  -2.543  0.00  0.00    +0.000 C 
ATOM     30  C   UNL     1      -8.184   9.253  -1.134  0.00  0.00    +0.005 C 
ATOM     31  C   UNL     1      -7.894   7.751  -1.105  0.00  0.00    +0.006 C 
ATOM     32  C   UNL     1      -8.147   7.209   0.303  0.00  0.00    +0.009 C 
ENDBRANCH  24  26
ENDBRANCH  20  22
ENDBRANCH  19  20
ENDBRANCH  17  19
ENDBRANCH   7  17
TORSDOF 8
