REMARK  Name = ZINC65298145
REMARK  5 active torsions:
REMARK  status: ('A' for Active; 'I' for Inactive)
REMARK    1  A    between atoms: C_1  and  C_2
REMARK    2  A    between atoms: C_2  and  N_3
REMARK    3  A    between atoms: C_10  and  C_24
REMARK    4  A    between atoms: C_13  and  C_15
REMARK    5  A    between atoms: C_29  and  O_30
REMARK                            x       y       z     vdW  Elec       q    Type
REMARK                         _______ _______ _______ _____ _____    ______ ____
ROOT
ATOM      1  N   UNL     1      -1.376  -0.512   0.012  0.00  0.00    +0.380 N 
ATOM      2  C   UNL     1      -2.051  -0.117  -1.230  0.00  0.00    -0.075 C 
ATOM      3  C   UNL     1      -3.510  -0.577  -1.190  0.00  0.00    +0.027 C 
ATOM      4  C   UNL     1      -3.555  -2.102  -1.048  0.00  0.00    +0.109 C 
ATOM      5  C   UNL     1      -2.788  -2.505   0.216  0.00  0.00    +0.027 C 
ATOM      6  C   UNL     1      -1.355  -1.976   0.125  0.00  0.00    -0.075 C 
ATOM      7  N   UNL     1      -4.953  -2.534  -0.924  0.00  0.00    -0.286 NA
ATOM      8  C   UNL     1      -5.663  -2.328  -2.198  0.00  0.00    +0.095 C 
ATOM      9  C   UNL     1      -5.083  -3.300  -3.231  0.00  0.00    +0.079 C 
ATOM     10  C   UNL     1      -3.582  -3.244  -3.183  0.00  0.00    +0.047 C 
ATOM     11  N   UNL     1      -2.932  -2.718  -2.214  0.00  0.00    -0.266 NA
ATOM     12  H   UNL     1      -5.009  -3.498  -0.631  0.00  0.00    +0.125 HD
ATOM     13  H   UNL     1      -1.871  -0.123   0.800  0.00  0.00    -0.082 HD
ENDROOT
BRANCH  10  14
ATOM     14  C   UNL     1      -2.822  -3.823  -4.306  0.00  0.00    -0.000 A 
ATOM     15  C   UNL     1      -3.497  -4.401  -5.385  0.00  0.00    +0.013 A 
ATOM     16  C   UNL     1      -2.784  -4.942  -6.433  0.00  0.00    +0.050 A 
ATOM     17  C   UNL     1      -1.397  -4.915  -6.423  0.00  0.00    +0.166 A 
ATOM     18  C   UNL     1      -0.717  -4.339  -5.349  0.00  0.00    +0.167 A 
ATOM     19  C   UNL     1      -1.425  -3.790  -4.298  0.00  0.00    +0.059 A 
ATOM     20  O   UNL     1       0.625  -4.439  -5.580  0.00  0.00    -0.453 OA
ATOM     21  C   UNL     1       0.765  -5.442  -6.603  0.00  0.00    +0.466 C 
ATOM     22  O   UNL     1      -0.480  -5.373  -7.323  0.00  0.00    -0.453 OA
ENDBRANCH  10  14
BRANCH   8  23
ATOM     23  C   UNL     1      -7.134  -2.602  -2.011  0.00  0.00    +0.012 A 
ATOM     24  C   UNL     1      -7.565  -3.356  -0.937  0.00  0.00    +0.024 A 
ATOM     25  C   UNL     1      -8.914  -3.607  -0.764  0.00  0.00    +0.018 A 
ATOM     26  C   UNL     1      -9.835  -3.104  -1.667  0.00  0.00    +0.019 A 
ATOM     27  C   UNL     1      -9.407  -2.350  -2.743  0.00  0.00    +0.047 A 
ATOM     28  C   UNL     1      -8.055  -2.092  -2.914  0.00  0.00    +0.122 A 
ATOM     29 BR   UNL     1      -9.502  -4.639   0.707  0.00  0.00    -0.050 Br
BRANCH  28  30
ATOM     30  O   UNL     1      -7.633  -1.346  -3.969  0.00  0.00    -0.506 OA
ATOM     31  H   UNL     1      -7.437  -1.863  -4.763  0.00  0.00    +0.292 HD
ENDBRANCH  28  30
ENDBRANCH   8  23
BRANCH   1  33
ATOM     32  C   UNL     1      -0.019   1.526   0.010  0.00  0.00    -0.017 C 
ATOM     33  C   UNL     1       0.002  -0.004   0.002  0.00  0.00    -0.082 C 
ENDBRANCH   1  33
TORSDOF 4
