REMARK  Name = ZINC39609433
REMARK  9 active torsions:
REMARK  status: ('A' for Active; 'I' for Inactive)
REMARK    1  A    between atoms: C_1  and  C_2
REMARK    2  A    between atoms: C_2  and  O_3
REMARK    3  A    between atoms: O_3  and  C_4
REMARK    4  A    between atoms: C_8  and  C_10
REMARK    5  A    between atoms: C_10  and  C_11
REMARK    6  A    between atoms: C_11  and  N_12
REMARK    7  A    between atoms: C_13  and  C_15
REMARK    8  A    between atoms: C_26  and  C_28
REMARK    9  A    between atoms: C_33  and  C_34
REMARK                            x       y       z     vdW  Elec       q    Type
REMARK                         _______ _______ _______ _____ _____    ______ ____
ROOT
ATOM      1  C   UNL     1       6.520  -5.743   5.044  0.00  0.00    +0.100 C 
ATOM      2  C   UNL     1       5.853  -6.982   5.681  0.00  0.00    +0.121 C 
ATOM      3  N   UNL     1       6.694  -8.124   5.250  0.00  0.00    -0.296 N 
ATOM      4  C   UNL     1       8.082  -7.608   5.324  0.00  0.00    +0.115 C 
ATOM      5  C   UNL     1       7.983  -6.156   4.814  0.00  0.00    -0.004 C 
ATOM      6  C   UNL     1       8.919  -5.252   5.610  0.00  0.00    -0.010 C 
ATOM      7  C   UNL     1      10.370  -5.644   5.320  0.00  0.00    -0.082 C 
ATOM      8  N   UNL     1      10.637  -5.513   3.883  0.00  0.00    +0.379 N 
ATOM      9  C   UNL     1       9.798  -6.454   3.130  0.00  0.00    -0.082 C 
ATOM     10  C   UNL     1       8.322  -6.095   3.328  0.00  0.00    -0.010 C 
ATOM     11  C   UNL     1       6.289  -9.353   4.875  0.00  0.00    +0.247 C 
ATOM     12  O   UNL     1       7.110 -10.219   4.643  0.00  0.00    -0.270 OA
ATOM     13  H   UNL     1      10.430  -4.570   3.588  0.00  0.00    -0.086 HD
ATOM     14  H   UNL     1      11.609  -5.713   3.702  0.00  0.00    -0.086 HD
ENDROOT
BRANCH  11  15
ATOM     15  C   UNL     1       4.846  -9.649   4.747  0.00  0.00    +0.049 A 
ATOM     16  C   UNL     1       3.933  -9.087   5.641  0.00  0.00    +0.013 A 
ATOM     17  C   UNL     1       2.588  -9.367   5.515  0.00  0.00    +0.001 A 
ATOM     18  C   UNL     1       2.143 -10.202   4.505  0.00  0.00    +0.001 A 
ATOM     19  C   UNL     1       3.043 -10.762   3.616  0.00  0.00    +0.013 A 
ATOM     20  C   UNL     1       4.390 -10.486   3.727  0.00  0.00    +0.067 A 
BRANCH  20  21
ATOM     21  C   UNL     1       5.368 -11.092   2.754  0.00  0.00    +0.418 C 
ATOM     22  F   UNL     1       4.678 -11.887   1.833  0.00  0.00    -0.166 F 
ATOM     23  F   UNL     1       6.044 -10.073   2.076  0.00  0.00    -0.166 F 
ATOM     24  F   UNL     1       6.291 -11.880   3.450  0.00  0.00    -0.166 F 
ENDBRANCH  20  21
ENDBRANCH  11  15
BRANCH   1  26
ATOM     25  N   UNL     1       5.865  -4.138   3.279  0.00  0.00    -0.315 N 
ATOM     26  C   UNL     1       5.857  -5.407   3.732  0.00  0.00    +0.218 C 
ATOM     27  O   UNL     1       5.317  -6.279   3.085  0.00  0.00    -0.275 OA
ATOM     28  H   UNL     1       6.298  -3.441   3.796  0.00  0.00    +0.149 HD
BRANCH  25  29
ATOM     29  C   UNL     1       5.221  -3.812   2.004  0.00  0.00    +0.109 C 
BRANCH  29  30
ATOM     30  C   UNL     1       5.373  -2.316   1.724  0.00  0.00    +0.054 C 
BRANCH  30  35
ATOM     31  C   UNL     1       4.825  -1.729  -1.968  0.00  0.00    +0.121 A 
ATOM     32  C   UNL     1       3.488  -1.362  -1.992  0.00  0.00    +0.045 A 
ATOM     33  C   UNL     1       2.767  -1.305  -0.815  0.00  0.00    +0.004 A 
ATOM     34  C   UNL     1       3.378  -1.614   0.386  0.00  0.00    +0.004 A 
ATOM     35  C   UNL     1       4.711  -1.980   0.413  0.00  0.00    -0.042 A 
ATOM     36  C   UNL     1       5.434  -2.043  -0.762  0.00  0.00    +0.049 A 
BRANCH  31  37
ATOM     37  O   UNL     1       5.537  -1.786  -3.125  0.00  0.00    -0.492 OA
BRANCH  37  39
ATOM     38  C   UNL     1       5.801  -1.569  -5.517  0.00  0.00    +0.048 C 
ATOM     39  C   UNL     1       4.845  -1.448  -4.329  0.00  0.00    +0.225 C 
ENDBRANCH  37  39
ENDBRANCH  31  37
ENDBRANCH  30  35
ENDBRANCH  29  30
ENDBRANCH  25  29
ENDBRANCH   1  26
TORSDOF 8
