REMARK  Name = ZINC66320918
REMARK  3 active torsions:
REMARK  status: ('A' for Active; 'I' for Inactive)
REMARK    1  A    between atoms: C_2  and  C_6
REMARK    2  A    between atoms: N_8  and  C_9
REMARK    3  A    between atoms: N_8  and  C_15
REMARK                            x       y       z     vdW  Elec       q    Type
REMARK                         _______ _______ _______ _____ _____    ______ ____
ROOT
ATOM      1  C   UNL     1       1.923   3.107   0.106  0.00  0.00    +0.268 C 
ATOM      2  O   UNL     1       1.776   1.981   0.539  0.00  0.00    -0.268 OA
ATOM      3  N   UNL     1       3.162   3.590  -0.111  0.00  0.00    -0.290 N 
ENDROOT
BRANCH   3   4
ATOM      4  C   UNL     1       3.347   4.995  -0.482  0.00  0.00    +0.077 C 
ATOM      5  C   UNL     1       2.381   5.355  -1.612  0.00  0.00    +0.022 C 
ATOM      6  C   UNL     1       2.574   6.823  -2.000  0.00  0.00    +0.002 C 
ATOM      7  C   UNL     1       2.293   7.712  -0.787  0.00  0.00    +0.000 C 
ATOM      8  C   UNL     1       3.259   7.352   0.343  0.00  0.00    +0.002 C 
ATOM      9  C   UNL     1       3.066   5.884   0.731  0.00  0.00    +0.022 C 
ENDBRANCH   3   4
BRANCH   1  11
ATOM     10  C   UNL     1      -0.392   3.456  -0.804  0.00  0.00    +0.101 A 
ATOM     11  C   UNL     1       0.745   3.945  -0.184  0.00  0.00    +0.156 A 
ATOM     12  N   UNL     1       0.682   5.234   0.128  0.00  0.00    -0.136 NA
ATOM     13  N   UNL     1      -0.384   5.893  -0.160  0.00  0.00    -0.110 NA
ATOM     14  S   UNL     1      -1.368   4.822  -0.867  0.00  0.00    +0.029 S 
ENDBRANCH   1  11
BRANCH   3  15
ATOM     15  C   UNL     1       4.325   2.710   0.026  0.00  0.00    +0.077 C 
ATOM     16  C   UNL     1       4.073   1.201   0.020  0.00  0.00    +0.024 C 
ATOM     17  C   UNL     1       4.456   1.907   1.322  0.00  0.00    +0.024 C 
ENDBRANCH   3  15
TORSDOF 3
