REMARK  Name = ZINC13651306
REMARK  6 active torsions:
REMARK  status: ('A' for Active; 'I' for Inactive)
REMARK    1  A    between atoms: C_1  and  C_2
REMARK    2  A    between atoms: C_3  and  C_24
REMARK    3  A    between atoms: C_6  and  C_9
REMARK    4  A    between atoms: C_7  and  O_8
REMARK    5  A    between atoms: C_12  and  C_14
REMARK    6  A    between atoms: C_12  and  C_15
REMARK                            x       y       z     vdW  Elec       q    Type
REMARK                         _______ _______ _______ _____ _____    ______ ____
ROOT
ATOM      1  C   UNL     1      -0.013   1.091   0.003  0.00  0.00    +0.048 C 
ATOM      2  C   UNL     1      -0.719   1.576   1.243  0.00  0.00    -0.002 A 
ATOM      3  C   UNL     1      -0.002   1.808   2.400  0.00  0.00    -0.002 A 
ATOM      4  C   UNL     1      -0.649   2.255   3.547  0.00  0.00    +0.129 A 
ATOM      5  C   UNL     1      -2.015   2.472   3.526  0.00  0.00    +0.001 A 
ATOM      6  C   UNL     1      -2.733   2.238   2.366  0.00  0.00    -0.002 A 
ATOM      7  C   UNL     1      -2.088   1.795   1.222  0.00  0.00    +0.123 A 
ATOM      8  C   UNL     1      -4.222   2.470   2.345  0.00  0.00    +0.048 C 
ATOM      9  C   UNL     1      -2.751   2.967   4.746  0.00  0.00    +0.043 C 
ATOM     10  C   UNL     1      -1.895   2.736   5.993  0.00  0.00    +0.062 C 
ATOM     11  C   UNL     1      -0.479   3.255   5.709  0.00  0.00    +0.183 C 
ATOM     12  O   UNL     1       0.092   2.461   4.669  0.00  0.00    -0.476 OA
ATOM     13  C   UNL     1       0.375   3.142   6.973  0.00  0.00    +0.066 C 
ATOM     14  C   UNL     1       1.487   1.576   2.419  0.00  0.00    +0.048 C 
ENDROOT
BRANCH  11  15
ATOM     15  C   UNL     1      -0.546   4.695   5.269  0.00  0.00    +0.262 C 
ATOM     16  O   UNL     1      -1.484   5.388   5.603  0.00  0.00    -0.271 OA
ATOM     17  N   UNL     1       0.436   5.213   4.505  0.00  0.00    -0.267 N 
ATOM     18  C   UNL     1       0.323   6.511   4.011  0.00  0.00    +0.125 A 
ATOM     19  C   UNL     1       1.288   7.002   3.138  0.00  0.00    +0.044 A 
ATOM     20  C   UNL     1       1.164   8.292   2.654  0.00  0.00    +0.005 A 
ATOM     21  C   UNL     1       0.075   9.051   3.062  0.00  0.00    +0.020 A 
ATOM     22  C   UNL     1      -0.845   8.499   3.931  0.00  0.00    +0.113 A 
ATOM     23  N   UNL     1      -0.704   7.264   4.372  0.00  0.00    -0.240 NA
ATOM     24  H   UNL     1       1.221   4.682   4.300  0.00  0.00    +0.156 HD
ENDBRANCH  11  15
BRANCH   7  25
ATOM     25  O   UNL     1      -2.796   1.571   0.083  0.00  0.00    -0.506 OA
ATOM     26  H   UNL     1      -3.139   0.671   0.004  0.00  0.00    +0.292 HD
ENDBRANCH   7  25
TORSDOF 2
