REMARK  Name = ZINC43424153
REMARK  4 active torsions:
REMARK  status: ('A' for Active; 'I' for Inactive)
REMARK    1  A    between atoms: C_1  and  C_2
REMARK    2  A    between atoms: C_3  and  N_23
REMARK    3  A    between atoms: C_5  and  S_9
REMARK    4  A    between atoms: S_9  and  N_12
REMARK                            x       y       z     vdW  Elec       q    Type
REMARK                         _______ _______ _______ _____ _____    ______ ____
ROOT
ATOM      1  S   UNL     1       0.063  -4.536  -0.016  0.00  0.00    +0.061 S 
ATOM      2  O   UNL     1      -0.208  -3.996  -1.303  0.00  0.00    -0.153 OA
ATOM      3  O   UNL     1      -0.135  -3.793   1.179  0.00  0.00    -0.153 OA
ENDROOT
BRANCH   1   4
ATOM      4  N   UNL     1       1.652  -5.004  -0.025  0.00  0.00    -0.169 NA
ATOM      5  C   UNL     1       2.384  -5.325  -1.272  0.00  0.00    +0.138 C 
ATOM      6  C   UNL     1       3.131  -6.651  -1.134  0.00  0.00    +0.177 C 
ATOM      7  O   UNL     1       3.831  -6.744   0.120  0.00  0.00    -0.374 OA
ATOM      8  C   UNL     1       2.945  -6.603   1.210  0.00  0.00    +0.137 C 
ATOM      9  C   UNL     1       2.441  -5.126   1.193  0.00  0.00    +0.109 C 
ATOM     10  C   UNL     1       1.713  -4.996   2.524  0.00  0.00    +0.023 C 
ATOM     11  C   UNL     1       2.444  -5.969   3.485  0.00  0.00    +0.004 C 
ATOM     12  C   UNL     1       3.509  -6.720   2.625  0.00  0.00    +0.033 C 
ENDBRANCH   1   4
BRANCH   1  17
ATOM     13  C   UNL     1      -3.272  -9.546   0.479  0.00  0.00    +0.047 C 
ATOM     14  C   UNL     1      -2.440  -8.296   0.357  0.00  0.00    -0.011 A 
ATOM     15  C   UNL     1      -2.022  -7.624   1.499  0.00  0.00    +0.031 A 
ATOM     16  C   UNL     1      -1.255  -6.472   1.382  0.00  0.00    +0.051 A 
ATOM     17  C   UNL     1      -0.910  -5.997   0.132  0.00  0.00    +0.109 A 
ATOM     18  C   UNL     1      -1.326  -6.667  -1.003  0.00  0.00    +0.049 A 
ATOM     19  C   UNL     1      -2.086  -7.819  -0.891  0.00  0.00    +0.047 A 
ATOM     20 CL   UNL     1      -2.600  -8.662  -2.319  0.00  0.00    -0.083 Cl
BRANCH  15  21
ATOM     21  N   UNL     1      -2.374  -8.106   2.762  0.00  0.00    -0.358 N 
ATOM     22  H   UNL     1      -2.910  -8.910   2.843  0.00  0.00    +0.142 HD
ATOM     23  H   UNL     1      -2.082  -7.636   3.559  0.00  0.00    +0.142 HD
ENDBRANCH  15  21
ENDBRANCH   1  17
TORSDOF 3
