REMARK  Name = ZINC55458157
REMARK  6 active torsions:
REMARK  status: ('A' for Active; 'I' for Inactive)
REMARK    1  A    between atoms: C_1  and  O_2
REMARK    2  A    between atoms: O_2  and  C_3
REMARK    3  A    between atoms: C_3  and  C_5
REMARK    4  A    between atoms: C_17  and  C_19
REMARK    5  A    between atoms: C_19  and  C_20
REMARK    6  A    between atoms: C_20  and  C_21
REMARK                            x       y       z     vdW  Elec       q    Type
REMARK                         _______ _______ _______ _____ _____    ______ ____
ROOT
ATOM      1  C   UNL     1       0.657  -2.104  -1.120  0.00  0.00    +0.185 C 
ATOM      2  C   UNL     1      -0.773  -2.684  -1.178  0.00  0.00    +0.039 C 
ATOM      3  C   UNL     1      -0.618  -3.875  -2.172  0.00  0.00    +0.012 C 
ATOM      4  C   UNL     1      -0.001  -5.029  -1.379  0.00  0.00    +0.005 C 
ATOM      5  C   UNL     1       0.573  -6.085  -2.320  0.00  0.00    +0.000 C 
ATOM      6  C   UNL     1       1.688  -5.446  -3.154  0.00  0.00    +0.002 C 
ATOM      7  C   UNL     1       1.076  -4.340  -4.013  0.00  0.00    +0.023 C 
ATOM      8  C   UNL     1       0.395  -3.280  -3.168  0.00  0.00    +0.080 C 
ATOM      9  N   UNL     1       1.349  -2.516  -2.354  0.00  0.00    -0.285 N 
ATOM     10  C   UNL     1       2.628  -2.239  -2.677  0.00  0.00    +0.216 C 
ATOM     11  O   UNL     1       3.088  -2.634  -3.727  0.00  0.00    -0.276 OA
ENDROOT
BRANCH   1  12
ATOM     12  C   UNL     1       0.598  -0.600  -1.043  0.00  0.00    +0.328 C 
ATOM     13  O   UNL     1       1.088   0.070  -1.921  0.00  0.00    -0.249 OA
BRANCH  12  15
ATOM     14  C   UNL     1      -0.017   1.425   0.010  0.00  0.00    +0.280 C 
ATOM     15  O   UNL     1       0.002  -0.004   0.002  0.00  0.00    -0.467 OA
ENDBRANCH  12  15
ENDBRANCH   1  12
BRANCH  10  16
ATOM     16  C   UNL     1       3.487  -1.438  -1.732  0.00  0.00    +0.096 C 
BRANCH  16  17
ATOM     17  C   UNL     1       4.883  -1.267  -2.333  0.00  0.00    +0.013 C 
BRANCH  17  18
ATOM     18  C   UNL     1       5.755  -0.454  -1.374  0.00  0.00    -0.011 C 
ATOM     19  C   UNL     1       5.240   0.998  -1.294  0.00  0.00    +0.003 C 
ATOM     20  C   UNL     1       6.528   1.853  -1.186  0.00  0.00    +0.000 C 
ATOM     21  C   UNL     1       7.508   1.114  -2.131  0.00  0.00    +0.000 C 
ATOM     22  C   UNL     1       7.197  -0.380  -1.906  0.00  0.00    +0.003 C 
ENDBRANCH  17  18
ENDBRANCH  16  17
ENDBRANCH  10  16
TORSDOF 5
