REMARK  Name = ZINC25510584
REMARK  10 active torsions:
REMARK  status: ('A' for Active; 'I' for Inactive)
REMARK    1  A    between atoms: C_1  and  C_2
REMARK    2  A    between atoms: C_2  and  C_3
REMARK    3  A    between atoms: C_3  and  C_4
REMARK    4  A    between atoms: C_4  and  N_5
REMARK    5  A    between atoms: N_5  and  C_6
REMARK    6  A    between atoms: C_7  and  N_22
REMARK    7  A    between atoms: N_8  and  C_15
REMARK    8  A    between atoms: C_15  and  C_16
REMARK    9  A    between atoms: C_23  and  C_25
REMARK   10  A    between atoms: C_28  and  C_34
REMARK                            x       y       z     vdW  Elec       q    Type
REMARK                         _______ _______ _______ _____ _____    ______ ____
ROOT
ATOM      1  C   UNL     1       4.473   7.047   1.864  0.00  0.00    +0.140 A 
ATOM      2  C   UNL     1       4.302   8.260   1.230  0.00  0.00    +0.128 A 
ATOM      3  N   UNL     1       4.750   9.407   1.843  0.00  0.00    -0.276 N 
ATOM      4  C   UNL     1       5.357   9.345   3.042  0.00  0.00    +0.331 A 
ATOM      5  O   UNL     1       5.751  10.370   3.566  0.00  0.00    -0.246 OA
ATOM      6  N   UNL     1       5.537   8.171   3.673  0.00  0.00    -0.273 N 
ATOM      7  H   UNL     1       6.037   8.144   4.652  0.00  0.00    +0.173 HD
ATOM      8  C   UNL     1       5.112   7.019   3.118  0.00  0.00    +0.277 A 
ATOM      9  O   UNL     1       5.280   5.960   3.698  0.00  0.00    -0.266 OA
ENDROOT
BRANCH   1  10
ATOM     10  N   UNL     1       4.020   5.854   1.264  0.00  0.00    -0.260 N 
ATOM     11  C   UNL     1       2.704   5.561   1.255  0.00  0.00    +0.259 C 
ATOM     12  O   UNL     1       1.905   6.336   1.748  0.00  0.00    -0.269 OA
BRANCH  11  13
ATOM     13  C   UNL     1       2.235   4.307   0.652  0.00  0.00    +0.094 A 
ATOM     14  C   UNL     1       0.980   3.780   0.659  0.00  0.00    +0.068 A 
ATOM     15  C   UNL     1       0.732   2.553   0.016  0.00  0.00    +0.011 A 
ATOM     16  C   UNL     1      -0.495   1.848  -0.086  0.00  0.00    -0.041 A 
ATOM     17  C   UNL     1      -0.563   0.664  -0.748  0.00  0.00    +0.004 A 
ATOM     18  C   UNL     1       0.557   0.098  -1.346  0.00  0.00    +0.001 A 
ATOM     19  C   UNL     1       1.771   0.750  -1.270  0.00  0.00    +0.016 A 
ATOM     20  C   UNL     1       1.855   1.954  -0.602  0.00  0.00    +0.022 A 
ATOM     21  S   UNL     1       3.170   3.098  -0.269  0.00  0.00    -0.082 S 
ATOM     22  C   UNL     1      -1.739   2.423   0.540  0.00  0.00    +0.044 C 
ATOM     23 CL   UNL     1      -0.312   4.621   1.457  0.00  0.00    -0.082 Cl
ENDBRANCH  11  13
BRANCH  10  24
ATOM     24  C   UNL     1       4.979   4.933   0.649  0.00  0.00    +0.114 C 
BRANCH  24  25
ATOM     25  C   UNL     1       5.013   5.165  -0.862  0.00  0.00    +0.019 C 
BRANCH  25  27
ATOM     26  C   UNL     1       6.049   4.436  -3.016  0.00  0.00    +0.004 C 
ATOM     27  C   UNL     1       6.015   4.203  -1.504  0.00  0.00    -0.002 C 
ENDBRANCH  25  27
ENDBRANCH  24  25
ENDBRANCH  10  24
ENDBRANCH   1  10
BRANCH   2  28
ATOM     28  N   UNL     1       3.686   8.323   0.003  0.00  0.00    -0.343 N 
ATOM     29  H   UNL     1       3.553   9.294  -0.496  0.00  0.00    +0.144 HD
ATOM     30  H   UNL     1       3.326   7.402  -0.479  0.00  0.00    +0.144 HD
ENDBRANCH   2  28
BRANCH   3  31
ATOM     31  C   UNL     1       4.571  10.703   1.184  0.00  0.00    +0.163 C 
BRANCH  31  32
ATOM     32  C   UNL     1       5.766  10.994   0.314  0.00  0.00    -0.028 A 
ATOM     33  C   UNL     1       6.851  11.675   0.834  0.00  0.00    +0.005 A 
ATOM     34  C   UNL     1       7.949  11.938   0.037  0.00  0.00    +0.000 A 
ATOM     35  C   UNL     1       7.959  11.528  -1.283  0.00  0.00    +0.000 A 
ATOM     36  C   UNL     1       6.873  10.851  -1.805  0.00  0.00    +0.000 A 
ATOM     37  C   UNL     1       5.776  10.584  -1.007  0.00  0.00    +0.005 A 
ENDBRANCH  31  32
ENDBRANCH   3  31
TORSDOF 8
