REMARK  Name = ZINC15069869
REMARK  8 active torsions:
REMARK  status: ('A' for Active; 'I' for Inactive)
REMARK    1  A    between atoms: C_1  and  C_2
REMARK    2  A    between atoms: C_3  and  C_15
REMARK    3  A    between atoms: N_6  and  C_7
REMARK    4  A    between atoms: C_15  and  C_17
REMARK    5  A    between atoms: C_15  and  N_49
REMARK    6  A    between atoms: C_18  and  C_19
REMARK    7  A    between atoms: C_18  and  N_49
REMARK    8  A    between atoms: C_24  and  C_25
REMARK                            x       y       z     vdW  Elec       q    Type
REMARK                         _______ _______ _______ _____ _____    ______ ____
ROOT
ATOM      1  N   UNL     1       4.021   0.920   1.382  0.00  0.00    +0.386 N 
ATOM      2  H   UNL     1       3.751   1.876   1.643  0.00  0.00    -0.085 HD
ATOM      3  H   UNL     1       3.658   0.260   2.079  0.00  0.00    -0.085 HD
ENDROOT
BRANCH   1   4
ATOM      4  C   UNL     1       5.492   0.824   1.341  0.00  0.00    -0.040 C 
ATOM      5  C   UNL     1       6.076   2.144   0.833  0.00  0.00    -0.009 C 
BRANCH   4   8
ATOM      6  C   UNL     1       8.289  -0.383   2.058  0.00  0.00    +0.066 C 
ATOM      7  C   UNL     1       7.219   0.024   3.038  0.00  0.00    +0.044 A 
ATOM      8  C   UNL     1       6.009   0.546   2.729  0.00  0.00    -0.021 A 
ATOM      9  C   UNL     1       5.321   0.777   3.924  0.00  0.00    +0.137 A 
ATOM     10  N   UNL     1       6.091   0.411   4.918  0.00  0.00    -0.174 NA
ATOM     11  N   UNL     1       7.296  -0.064   4.385  0.00  0.00    -0.234 N 
BRANCH  11  12
ATOM     12  C   UNL     1       8.388  -0.552   5.119  0.00  0.00    +0.101 A 
ATOM     13  C   UNL     1       9.672  -0.114   4.829  0.00  0.00    +0.033 A 
ATOM     14  C   UNL     1      10.745  -0.590   5.556  0.00  0.00    +0.040 A 
ATOM     15  C   UNL     1      10.543  -1.514   6.567  0.00  0.00    +0.126 A 
ATOM     16  C   UNL     1       9.264  -1.958   6.856  0.00  0.00    +0.078 A 
ATOM     17  C   UNL     1       8.186  -1.480   6.135  0.00  0.00    +0.151 A 
ATOM     18  F   UNL     1       6.937  -1.913   6.416  0.00  0.00    -0.203 F 
ATOM     19  F   UNL     1      11.595  -1.983   7.274  0.00  0.00    -0.205 F 
ENDBRANCH  11  12
ENDBRANCH   4   8
ENDBRANCH   1   4
BRANCH   1  20
ATOM     20  C   UNL     1       3.449   0.596   0.061  0.00  0.00    -0.042 C 
BRANCH  20  21
ATOM     21  C   UNL     1       1.948   0.702   0.134  0.00  0.00    -0.019 A 
ATOM     22  C   UNL     1       1.083  -0.327   0.269  0.00  0.00    +0.107 A 
ATOM     23  N   UNL     1      -0.168   0.180   0.293  0.00  0.00    -0.284 N 
ATOM     24  H   UNL     1      -1.013  -0.346   0.384  0.00  0.00    +0.188 HD
ATOM     25  N   UNL     1      -0.077   1.573   0.169  0.00  0.00    -0.174 NA
ATOM     26  C   UNL     1       1.196   1.892   0.073  0.00  0.00    +0.094 A 
BRANCH  26  27
ATOM     27  C   UNL     1       1.744   3.264  -0.075  0.00  0.00    +0.005 A 
ATOM     28  C   UNL     1       2.953   3.603   0.529  0.00  0.00    +0.010 A 
ATOM     29  C   UNL     1       3.461   4.878   0.385  0.00  0.00    +0.003 A 
ATOM     30  C   UNL     1       2.768   5.823  -0.349  0.00  0.00    +0.038 A 
ATOM     31  C   UNL     1       1.563   5.494  -0.948  0.00  0.00    +0.124 A 
ATOM     32  C   UNL     1       1.048   4.218  -0.814  0.00  0.00    +0.048 A 
ATOM     33  F   UNL     1       0.890   6.421  -1.665  0.00  0.00    -0.205 F 
ENDBRANCH  26  27
ENDBRANCH  20  21
ENDBRANCH   1  20
TORSDOF 6
