REMARK  Name = ZINC43259143
REMARK  8 active torsions:
REMARK  status: ('A' for Active; 'I' for Inactive)
REMARK    1  A    between atoms: C_1  and  C_2
REMARK    2  A    between atoms: C_2  and  C_4
REMARK    3  A    between atoms: C_2  and  N_21
REMARK    4  A    between atoms: C_4  and  C_6
REMARK    5  A    between atoms: C_4  and  N_12
REMARK    6  A    between atoms: N_12  and  C_13
REMARK    7  A    between atoms: N_12  and  C_14
REMARK    8  A    between atoms: C_14  and  C_15
REMARK                            x       y       z     vdW  Elec       q    Type
REMARK                         _______ _______ _______ _____ _____    ______ ____
ROOT
ATOM      1  C   UNL     1       0.721  -0.395   1.155  0.00  0.00    -0.046 C 
ENDROOT
BRANCH   1   2
ATOM      2  C   UNL     1       0.847  -1.896   1.185  0.00  0.00    -0.024 A 
ATOM      3  C   UNL     1       0.027  -2.810   1.760  0.00  0.00    +0.010 A 
ATOM      4  C   UNL     1       0.344  -4.152   1.661  0.00  0.00    +0.023 A 
ATOM      5  C   UNL     1       1.466  -4.514   0.991  0.00  0.00    +0.055 A 
ATOM      6  S   UNL     1       2.110  -2.933   0.467  0.00  0.00    -0.088 S 
ATOM      7 BR   UNL     1       2.163  -6.245   0.683  0.00  0.00    -0.043 Br
ENDBRANCH   1   2
BRANCH   1   8
ATOM      8  N   UNL     1       2.048   0.211   1.331  0.00  0.00    +0.384 N 
ATOM      9  C   UNL     1       2.649  -0.280   2.578  0.00  0.00    -0.095 C 
ATOM     10  H   UNL     1       2.638  -0.039   0.552  0.00  0.00    -0.081 HD
BRANCH   8  11
ATOM     11  C   UNL     1       1.914   1.673   1.394  0.00  0.00    -0.043 C 
BRANCH  11  12
ATOM     12  C   UNL     1       3.283   2.301   1.429  0.00  0.00    -0.064 A 
ATOM     13  C   UNL     1       3.907   2.532   2.640  0.00  0.00    +0.002 A 
ATOM     14  C   UNL     1       5.163   3.109   2.672  0.00  0.00    +0.000 A 
ATOM     15  C   UNL     1       5.795   3.454   1.492  0.00  0.00    +0.000 A 
ATOM     16  C   UNL     1       5.172   3.223   0.281  0.00  0.00    +0.000 A 
ATOM     17  C   UNL     1       3.917   2.642   0.248  0.00  0.00    +0.002 A 
ENDBRANCH  11  12
ENDBRANCH   8  11
ENDBRANCH   1   8
BRANCH   1  19
ATOM     18  C   UNL     1      -1.250  -0.583  -0.369  0.00  0.00    -0.016 C 
ATOM     19  C   UNL     1       0.136   0.041  -0.190  0.00  0.00    -0.088 C 
BRANCH  19  20
ATOM     20  N   UNL     1       1.018  -0.407  -1.276  0.00  0.00    +0.379 N 
ATOM     21  H   UNL     1       0.632  -0.119  -2.163  0.00  0.00    -0.090 HD
ATOM     22  H   UNL     1       1.932   0.004  -1.158  0.00  0.00    -0.090 HD
ATOM     23  H   UNL     1       1.096  -1.412  -1.253  0.00  0.00    -0.090 HD
ENDBRANCH  19  20
ENDBRANCH   1  19
TORSDOF 6
