REMARK  Name = ZINC09265889
REMARK  5 active torsions:
REMARK  status: ('A' for Active; 'I' for Inactive)
REMARK    1  A    between atoms: C_1  and  C_2
REMARK    2  A    between atoms: C_9  and  S_14
REMARK    3  A    between atoms: S_14  and  N_17
REMARK    4  A    between atoms: C_20  and  C_23
REMARK    5  A    between atoms: N_25  and  C_26
REMARK                            x       y       z     vdW  Elec       q    Type
REMARK                         _______ _______ _______ _____ _____    ______ ____
ROOT
ATOM      1  N   UNL     1       1.992   7.599  -4.550  0.00  0.00    -0.177 NA
ATOM      2  C   UNL     1       0.795   8.238  -3.985  0.00  0.00    +0.110 C 
ATOM      3  C   UNL     1       0.321   7.418  -2.781  0.00  0.00    +0.030 C 
ATOM      4  C   UNL     1       0.114   5.963  -3.209  0.00  0.00    +0.077 C 
ATOM      5  C   UNL     1       1.442   5.380  -3.698  0.00  0.00    +0.030 C 
ATOM      6  C   UNL     1       1.930   6.177  -4.912  0.00  0.00    +0.110 C 
ENDROOT
BRANCH   4   7
ATOM      7  C   UNL     1      -0.385   5.160  -2.036  0.00  0.00    +0.216 C 
ATOM      8  O   UNL     1      -0.559   5.698  -0.963  0.00  0.00    -0.276 OA
ATOM      9  N   UNL     1      -0.639   3.844  -2.179  0.00  0.00    -0.312 N 
ATOM     10  H   UNL     1      -0.500   3.414  -3.037  0.00  0.00    +0.149 HD
BRANCH   9  11
ATOM     11  C   UNL     1      -1.125   3.064  -1.038  0.00  0.00    +0.073 C 
ATOM     12  C   UNL     1      -0.753   1.593  -1.231  0.00  0.00    +0.022 C 
ATOM     13  C   UNL     1      -0.013   1.086   0.008  0.00  0.00    +0.002 C 
ATOM     14  C   UNL     1      -0.729   1.579   1.267  0.00  0.00    +0.000 C 
ATOM     15  C   UNL     1      -1.998   0.753   1.488  0.00  0.00    +0.000 C 
ATOM     16  C   UNL     1      -3.078   1.203   0.503  0.00  0.00    +0.000 C 
ATOM     17  C   UNL     1      -3.109   2.732   0.442  0.00  0.00    +0.002 C 
ATOM     18  C   UNL     1      -2.646   3.197  -0.940  0.00  0.00    +0.022 C 
ENDBRANCH   9  11
ENDBRANCH   4   7
BRANCH   1  19
ATOM     19  S   UNL     1       3.385   8.467  -4.773  0.00  0.00    +0.061 S 
ATOM     20  O   UNL     1       4.119   7.801  -5.792  0.00  0.00    -0.153 OA
ATOM     21  O   UNL     1       3.002   9.831  -4.878  0.00  0.00    -0.153 OA
BRANCH  19  29
ATOM     22  C   UNL     1       8.157   5.853   1.603  0.00  0.00    +0.029 C 
ATOM     23  C   UNL     1       7.022   6.145   0.619  0.00  0.00    +0.134 C 
ATOM     24  C   UNL     1       7.390   5.625  -0.743  0.00  0.00    +0.230 C 
ATOM     25  O   UNL     1       8.175   4.703  -0.812  0.00  0.00    -0.274 OA
ATOM     26  N   UNL     1       6.902   6.120  -1.877  0.00  0.00    -0.284 N 
ATOM     27  C   UNL     1       5.989   7.165  -1.995  0.00  0.00    +0.049 A 
ATOM     28  C   UNL     1       5.238   7.289  -3.159  0.00  0.00    +0.053 A 
ATOM     29  C   UNL     1       4.332   8.322  -3.294  0.00  0.00    +0.107 A 
ATOM     30  C   UNL     1       4.167   9.248  -2.280  0.00  0.00    +0.030 A 
ATOM     31  C   UNL     1       4.904   9.133  -1.115  0.00  0.00    +0.018 A 
ATOM     32  C   UNL     1       5.812   8.098  -0.973  0.00  0.00    +0.030 A 
ATOM     33  S   UNL     1       6.759   7.941   0.508  0.00  0.00    -0.111 S 
ATOM     34  H   UNL     1       7.211   5.713  -2.702  0.00  0.00    +0.155 HD
ENDBRANCH  19  29
ENDBRANCH   1  19
TORSDOF 4
