REMARK  Name = ZINC24716779
REMARK  11 active torsions:
REMARK  status: ('A' for Active; 'I' for Inactive)
REMARK    1  A    between atoms: C_1  and  C_2
REMARK    2  A    between atoms: C_2  and  C_3
REMARK    3  A    between atoms: C_3  and  N_4
REMARK    4  A    between atoms: N_4  and  C_5
REMARK    5  A    between atoms: N_4  and  C_25
REMARK    6  A    between atoms: C_5  and  C_6
REMARK    7  A    between atoms: C_15  and  C_17
REMARK    8  A    between atoms: C_20  and  O_23
REMARK    9  A    between atoms: O_23  and  C_24
REMARK   10  A    between atoms: C_25  and  C_26
REMARK   11  A    between atoms: C_29  and  C_31
REMARK                            x       y       z     vdW  Elec       q    Type
REMARK                         _______ _______ _______ _____ _____    ______ ____
ROOT
ATOM      1  C   UNL     1       5.306   8.333   3.162  0.00  0.00    +0.094 A 
ATOM      2  N   UNL     1       6.515   8.807   3.562  0.00  0.00    -0.311 N 
ATOM      3  H   UNL     1       7.235   9.176   2.816  0.00  0.00    +0.170 HD
ATOM      4  C   UNL     1       6.820   8.820   4.881  0.00  0.00    +0.266 A 
ATOM      5  O   UNL     1       7.895   9.245   5.272  0.00  0.00    -0.267 OA
ATOM      6  C   UNL     1       5.873   8.332   5.781  0.00  0.00    +0.102 A 
ATOM      7  C   UNL     1       4.630   7.840   5.340  0.00  0.00    +0.086 A 
ATOM      8  N   UNL     1       4.416   7.876   3.983  0.00  0.00    -0.235 NA
ATOM      9  C   UNL     1       3.772   7.379   6.343  0.00  0.00    +0.044 A 
ATOM     10  C   UNL     1       4.165   7.425   7.649  0.00  0.00    +0.022 A 
ATOM     11  S   UNL     1       5.800   8.135   7.541  0.00  0.00    -0.081 S 
ENDROOT
BRANCH  10  12
ATOM     12  C   UNL     1       3.422   6.994   8.852  0.00  0.00    -0.011 A 
ATOM     13  C   UNL     1       2.137   6.462   8.728  0.00  0.00    +0.012 A 
ATOM     14  C   UNL     1       1.450   6.058   9.852  0.00  0.00    +0.046 A 
ATOM     15  C   UNL     1       2.030   6.188  11.107  0.00  0.00    +0.120 A 
ATOM     16  C   UNL     1       3.306   6.721  11.235  0.00  0.00    +0.046 A 
ATOM     17  C   UNL     1       4.002   7.123  10.116  0.00  0.00    +0.012 A 
BRANCH  15  18
ATOM     18  O   UNL     1       1.347   5.793  12.213  0.00  0.00    -0.495 OA
ATOM     19  C   UNL     1       0.039   5.254  12.010  0.00  0.00    +0.277 C 
ENDBRANCH  15  18
ENDBRANCH  10  12
BRANCH   1  20
ATOM     20  C   UNL     1       4.987   8.334   1.689  0.00  0.00    -0.003 C 
BRANCH  20  21
ATOM     21  N   UNL     1       3.704   7.654   1.464  0.00  0.00    +0.390 N 
ATOM     22  H   UNL     1       3.006   7.982   2.249  0.00  0.00    -0.081 HD
BRANCH  21  23
ATOM     23  C   UNL     1       3.131   8.027   0.165  0.00  0.00    -0.078 C 
BRANCH  23  25
ATOM     24  C   UNL     1       1.960   9.835  -1.102  0.00  0.00    +0.002 C 
ATOM     25  C   UNL     1       2.647   9.477   0.218  0.00  0.00    -0.022 C 
ENDBRANCH  23  25
ENDBRANCH  21  23
BRANCH  21  26
ATOM     26  C   UNL     1       3.855   6.197   1.575  0.00  0.00    +0.021 C 
BRANCH  26  27
ATOM     27  C   UNL     1       2.494   5.551   1.585  0.00  0.00    +0.202 A 
ATOM     28  N   UNL     1       1.828   5.144   0.541  0.00  0.00    -0.114 NA
ATOM     29  N   UNL     1       0.704   4.642   0.915  0.00  0.00    -0.107 NA
ATOM     30  C   UNL     1       0.613   4.712   2.226  0.00  0.00    +0.255 A 
ATOM     31  O   UNL     1       1.744   5.294   2.673  0.00  0.00    -0.422 OA
BRANCH  30  32
ATOM     32  C   UNL     1      -0.514   4.248   3.049  0.00  0.00    +0.076 A 
ATOM     33  C   UNL     1      -1.697   3.653   2.651  0.00  0.00    +0.021 A 
ATOM     34  C   UNL     1      -2.608   3.297   3.618  0.00  0.00    +0.008 A 
ATOM     35  C   UNL     1      -2.326   3.550   4.922  0.00  0.00    +0.046 A 
ATOM     36  S   UNL     1      -0.713   4.308   4.822  0.00  0.00    -0.092 S 
ENDBRANCH  30  32
ENDBRANCH  26  27
ENDBRANCH  21  26
ENDBRANCH  20  21
ENDBRANCH   1  20
TORSDOF 9
