REMARK  Name = ZINC46720927
REMARK  5 active torsions:
REMARK  status: ('A' for Active; 'I' for Inactive)
REMARK    1  A    between atoms: C_1  and  C_2
REMARK    2  A    between atoms: C_7  and  N_8
REMARK    3  A    between atoms: C_11  and  C_16
REMARK    4  A    between atoms: C_16  and  N_17
REMARK    5  A    between atoms: C_21  and  C_24
REMARK                            x       y       z     vdW  Elec       q    Type
REMARK                         _______ _______ _______ _____ _____    ______ ____
ROOT
ATOM      1  N   UNL     1       0.025  -0.015   2.416  0.00  0.00    -0.283 N 
ATOM      2  C   UNL     1      -0.058  -0.712   3.606  0.00  0.00    +0.224 A 
ATOM      3  N   UNL     1      -0.162  -0.053   4.758  0.00  0.00    -0.198 NA
ATOM      4  C   UNL     1      -0.242  -0.719   5.897  0.00  0.00    +0.150 A 
ATOM      5  N   UNL     1      -0.219  -2.041   5.897  0.00  0.00    -0.198 NA
ATOM      6  C   UNL     1      -0.115  -2.706   4.749  0.00  0.00    +0.217 A 
ATOM      7  N   UNL     1      -0.041  -2.040   3.602  0.00  0.00    -0.181 NA
ATOM      8  N   UNL     1      -0.091  -4.086   4.750  0.00  0.00    -0.327 N 
ATOM      9  H   UNL     1      -0.077   0.949   2.411  0.00  0.00    +0.155 HD
ATOM     10  H   UNL     1      -0.150  -4.571   5.588  0.00  0.00    +0.145 HD
ATOM     11  H   UNL     1      -0.015  -4.570   3.913  0.00  0.00    +0.145 HD
ENDROOT
BRANCH   1  18
ATOM     12  C   UNL     1      -1.030   1.083   0.013  0.00  0.00    +0.045 C 
ATOM     13  C   UNL     1      -0.239  -0.200   0.024  0.00  0.00    -0.029 A 
ATOM     14  C   UNL     1      -0.003  -0.876  -1.157  0.00  0.00    +0.005 A 
ATOM     15  C   UNL     1       0.723  -2.053  -1.149  0.00  0.00    +0.000 A 
ATOM     16  C   UNL     1       1.214  -2.557   0.042  0.00  0.00    +0.002 A 
ATOM     17  C   UNL     1       0.981  -1.886   1.226  0.00  0.00    +0.023 A 
ATOM     18  C   UNL     1       0.258  -0.701   1.220  0.00  0.00    +0.036 A 
ENDBRANCH   1  18
BRANCH   4  19
ATOM     19  C   UNL     1      -0.360   0.031   7.199  0.00  0.00    +0.160 C 
BRANCH  19  20
ATOM     20  N   UNL     1      -1.778   0.250   7.511  0.00  0.00    -0.294 NA
ATOM     21  C   UNL     1      -2.401   1.147   6.529  0.00  0.00    +0.085 C 
ATOM     22  C   UNL     1      -3.904   1.237   6.799  0.00  0.00    +0.016 C 
ATOM     23  C   UNL     1      -4.132   1.767   8.217  0.00  0.00    +0.015 C 
ATOM     24  C   UNL     1      -3.433   0.842   9.218  0.00  0.00    +0.089 C 
ATOM     25  C   UNL     1      -1.943   0.763   8.877  0.00  0.00    +0.097 C 
BRANCH  24  26
ATOM     26  C   UNL     1      -3.603   1.389  10.612  0.00  0.00    +0.201 A 
ATOM     27  N   UNL     1      -3.192   2.556  11.007  0.00  0.00    -0.213 NA
ATOM     28  C   UNL     1      -3.515   2.713  12.319  0.00  0.00    +0.110 A 
ATOM     29  C   UNL     1      -3.327   3.742  13.244  0.00  0.00    +0.031 A 
ATOM     30  C   UNL     1      -3.783   3.592  14.535  0.00  0.00    +0.002 A 
ATOM     31  C   UNL     1      -4.427   2.426  14.921  0.00  0.00    +0.004 A 
ATOM     32  C   UNL     1      -4.620   1.401  14.018  0.00  0.00    +0.048 A 
ATOM     33  C   UNL     1      -4.168   1.536  12.714  0.00  0.00    +0.155 A 
ATOM     34  O   UNL     1      -4.206   0.741  11.621  0.00  0.00    -0.439 OA
ENDBRANCH  24  26
ENDBRANCH  19  20
ENDBRANCH   4  19
TORSDOF 4
