REMARK  Name = ZINC14413024
REMARK  10 active torsions:
REMARK  status: ('A' for Active; 'I' for Inactive)
REMARK    1  A    between atoms: C_1  and  C_2
REMARK    2  A    between atoms: C_5  and  C_7
REMARK    3  A    between atoms: C_9  and  C_17
REMARK    4  A    between atoms: C_11  and  C_16
REMARK    5  A    between atoms: N_19  and  C_20
REMARK    6  A    between atoms: C_20  and  C_21
REMARK    7  A    between atoms: N_23  and  C_24
REMARK    8  A    between atoms: C_25  and  C_32
REMARK    9  A    between atoms: C_27  and  C_31
REMARK   10  A    between atoms: C_29  and  C_30
REMARK                            x       y       z     vdW  Elec       q    Type
REMARK                         _______ _______ _______ _____ _____    ______ ____
ROOT
ATOM      1  C   UNL     1       5.233  -6.454   2.072  0.00  0.00    +0.245 C 
ATOM      2  O   UNL     1       5.498  -7.488   1.493  0.00  0.00    -0.270 OA
ATOM      3  N   UNL     1       6.140  -5.457   2.122  0.00  0.00    -0.303 N 
ATOM      4  H   UNL     1       5.928  -4.631   2.584  0.00  0.00    +0.150 HD
ENDROOT
BRANCH   1   7
ATOM      5  C   UNL     1       2.528  -5.488   4.519  0.00  0.00    +0.082 A 
ATOM      6  C   UNL     1       3.795  -5.622   3.939  0.00  0.00    +0.042 A 
ATOM      7  C   UNL     1       3.915  -6.287   2.724  0.00  0.00    +0.053 A 
ATOM      8  C   UNL     1       2.740  -6.798   2.131  0.00  0.00    +0.076 A 
ATOM      9  C   UNL     1       2.467  -7.533   0.898  0.00  0.00    +0.091 A 
ATOM     10  N   UNL     1       1.187  -7.752   0.853  0.00  0.00    -0.080 NA
ATOM     11  O   UNL     1       0.569  -7.201   1.998  0.00  0.00    -0.334 OA
ATOM     12  C   UNL     1       1.505  -6.621   2.777  0.00  0.00    +0.260 A 
ATOM     13  N   UNL     1       1.445  -5.985   3.936  0.00  0.00    -0.209 NA
ATOM     14  C   UNL     1       3.481  -7.958  -0.132  0.00  0.00    +0.070 C 
BRANCH   5  19
ATOM     15  C   UNL     1       3.001  -2.680   9.380  0.00  0.00    +0.051 C 
ATOM     16  C   UNL     1       2.618  -3.440   8.137  0.00  0.00    -0.013 A 
ATOM     17  C   UNL     1       1.388  -3.858   7.736  0.00  0.00    +0.011 A 
ATOM     18  C   UNL     1       1.266  -4.543   6.550  0.00  0.00    +0.018 A 
ATOM     19  C   UNL     1       2.395  -4.784   5.809  0.00  0.00    +0.038 A 
ATOM     20  S   UNL     1       3.660  -4.016   6.807  0.00  0.00    -0.092 S 
ENDBRANCH   5  19
ENDBRANCH   1   7
BRANCH   3  21
ATOM     21  C   UNL     1       7.445  -5.622   1.477  0.00  0.00    +0.200 C 
BRANCH  21  22
ATOM     22  C   UNL     1       8.265  -4.374   1.677  0.00  0.00    +0.234 C 
ATOM     23  O   UNL     1       7.805  -3.439   2.297  0.00  0.00    -0.274 OA
ATOM     24  N   UNL     1       9.510  -4.297   1.166  0.00  0.00    -0.284 N 
ATOM     25  H   UNL     1       9.849  -5.011   0.603  0.00  0.00    +0.155 HD
BRANCH  24  26
ATOM     26  C   UNL     1      10.315  -3.187   1.448  0.00  0.00    +0.039 A 
ATOM     27  C   UNL     1      11.565  -3.363   2.025  0.00  0.00    -0.029 A 
ATOM     28  C   UNL     1      12.357  -2.265   2.303  0.00  0.00    +0.008 A 
ATOM     29  C   UNL     1      11.905  -0.993   2.006  0.00  0.00    -0.050 A 
ATOM     30  C   UNL     1      10.660  -0.814   1.432  0.00  0.00    +0.008 A 
ATOM     31  C   UNL     1       9.866  -1.908   1.147  0.00  0.00    -0.029 A 
ATOM     32  C   UNL     1       8.512  -1.713   0.514  0.00  0.00    +0.045 C 
ATOM     33  C   UNL     1      12.771   0.203   2.310  0.00  0.00    +0.044 C 
ATOM     34  C   UNL     1      12.058  -4.750   2.349  0.00  0.00    +0.045 C 
ENDBRANCH  24  26
ENDBRANCH  21  22
ENDBRANCH   3  21
TORSDOF 5
