REMARK  Name = ZINC40710843
REMARK  5 active torsions:
REMARK  status: ('A' for Active; 'I' for Inactive)
REMARK    1  A    between atoms: C_3  and  O_9
REMARK    2  A    between atoms: C_6  and  C_7
REMARK    3  A    between atoms: C_7  and  O_8
REMARK    4  A    between atoms: O_9  and  C_10
REMARK    5  A    between atoms: C_15  and  N_16
REMARK                            x       y       z     vdW  Elec       q    Type
REMARK                         _______ _______ _______ _____ _____    ______ ____
ROOT
ATOM      1  C   UNL     1       4.710   1.400   0.069  0.00  0.00    +0.153 A 
ATOM      2  C   UNL     1       4.684   0.015   0.055  0.00  0.00    +0.097 A 
ATOM      3  C   UNL     1       5.867  -0.704   0.146  0.00  0.00    +0.166 A 
ATOM      4  C   UNL     1       7.080  -0.035   0.250  0.00  0.00    +0.164 A 
ATOM      5  C   UNL     1       7.107   1.352   0.266  0.00  0.00    +0.075 A 
ATOM      6  C   UNL     1       5.925   2.071   0.170  0.00  0.00    +0.071 A 
ATOM      7  O   UNL     1       8.251  -0.725   0.332  0.00  0.00    -0.485 OA
ATOM      8  C   UNL     1       8.160  -2.108   0.689  0.00  0.00    +0.270 C 
ATOM      9  C   UNL     1       7.047  -2.748  -0.151  0.00  0.00    +0.270 C 
ATOM     10  O   UNL     1       5.821  -2.066   0.135  0.00  0.00    -0.485 OA
ENDROOT
BRANCH   6  11
ATOM     11  N   UNL     1       5.954   3.473   0.179  0.00  0.00    -0.355 N 
ATOM     12  H   UNL     1       5.127   3.975   0.116  0.00  0.00    +0.142 HD
ATOM     13  H   UNL     1       6.801   3.940   0.250  0.00  0.00    +0.142 HD
ENDBRANCH   6  11
BRANCH   1  14
ATOM     14  O   UNL     1       3.548   2.103  -0.021  0.00  0.00    -0.454 OA
BRANCH  14  17
ATOM     15  C   UNL     1       0.796   0.056   1.192  0.00  0.00    +0.009 A 
ATOM     16  C   UNL     1       1.985   0.759   1.166  0.00  0.00    +0.046 A 
ATOM     17  C   UNL     1       2.380   1.411   0.007  0.00  0.00    +0.129 A 
ATOM     18  C   UNL     1       1.578   1.355  -1.125  0.00  0.00    +0.046 A 
ATOM     19  C   UNL     1       0.390   0.651  -1.094  0.00  0.00    +0.009 A 
ATOM     20  C   UNL     1      -0.001   0.003   0.063  0.00  0.00    -0.022 A 
BRANCH  20  21
ATOM     21  C   UNL     1      -1.298  -0.765   0.094  0.00  0.00    +0.191 C 
BRANCH  21  22
ATOM     22  O   UNL     1      -2.355   0.103   0.508  0.00  0.00    -0.390 OA
ATOM     23  H   UNL     1      -3.221  -0.325   0.550  0.00  0.00    +0.210 HD
ENDBRANCH  21  22
ENDBRANCH  20  21
ENDBRANCH  14  17
ENDBRANCH   1  14
TORSDOF 5
