REMARK  Name = ZINC06501081
REMARK  10 active torsions:
REMARK  status: ('A' for Active; 'I' for Inactive)
REMARK    1  A    between atoms: C_1  and  C_2
REMARK    2  A    between atoms: C_2  and  C_3
REMARK    3  A    between atoms: C_3  and  C_4
REMARK    4  A    between atoms: C_4  and  C_6
REMARK    5  A    between atoms: C_4  and  N_14
REMARK    6  A    between atoms: N_8  and  C_9
REMARK    7  A    between atoms: N_14  and  C_15
REMARK    8  A    between atoms: C_25  and  C_27
REMARK    9  A    between atoms: C_28  and  N_35
REMARK   10  A    between atoms: C_29  and  C_32
REMARK                            x       y       z     vdW  Elec       q    Type
REMARK                         _______ _______ _______ _____ _____    ______ ____
ROOT
ATOM      1  N   UNL     1       3.667  -0.661   0.898  0.00  0.00    -0.255 N 
ATOM      2  C   UNL     1       4.809  -0.222   0.332  0.00  0.00    +0.261 C 
ATOM      3  O   UNL     1       4.831   0.854  -0.237  0.00  0.00    -0.269 OA
ENDROOT
BRANCH   1   4
ATOM      4  C   UNL     1       2.481   0.063   0.734  0.00  0.00    +0.041 A 
ATOM      5  C   UNL     1       1.340  -0.304   1.435  0.00  0.00    +0.027 A 
ATOM      6  C   UNL     1       0.168   0.409   1.272  0.00  0.00    +0.051 A 
ATOM      7  C   UNL     1       0.127   1.494   0.408  0.00  0.00    +0.162 A 
ATOM      8  C   UNL     1       1.268   1.866  -0.292  0.00  0.00    +0.164 A 
ATOM      9  C   UNL     1       2.444   1.149  -0.129  0.00  0.00    +0.073 A 
ATOM     10  O   UNL     1       1.250   2.933  -1.137  0.00  0.00    -0.485 OA
ATOM     11  C   UNL     1      -0.037   3.398  -1.559  0.00  0.00    +0.270 C 
ATOM     12  C   UNL     1      -0.946   3.486  -0.326  0.00  0.00    +0.270 C 
ATOM     13  O   UNL     1      -1.040   2.179   0.254  0.00  0.00    -0.485 OA
ENDBRANCH   1   4
BRANCH   2  14
ATOM     14  C   UNL     1       6.022  -1.039   0.401  0.00  0.00    +0.116 A 
ATOM     15  C   UNL     1       7.337  -0.650   0.664  0.00  0.00    +0.076 A 
ATOM     16  C   UNL     1       8.226  -1.725   0.645  0.00  0.00    +0.155 A 
ATOM     17  N   UNL     1       7.769  -2.932   0.396  0.00  0.00    -0.203 NA
ATOM     18  S   UNL     1       6.214  -2.795   0.180  0.00  0.00    +0.019 S 
BRANCH  16  19
ATOM     19  C   UNL     1       9.662  -1.509   0.901  0.00  0.00    +0.262 C 
ATOM     20  O   UNL     1      10.077  -0.389   1.130  0.00  0.00    -0.269 OA
ATOM     21  N   UNL     1      10.514  -2.553   0.881  0.00  0.00    -0.324 N 
ATOM     22  H   UNL     1      10.183  -3.446   0.698  0.00  0.00    +0.145 HD
ATOM     23  H   UNL     1      11.459  -2.411   1.049  0.00  0.00    +0.145 HD
ENDBRANCH  16  19
BRANCH  15  24
ATOM     24  N   UNL     1       7.718   0.661   0.916  0.00  0.00    -0.355 N 
ATOM     25  H   UNL     1       7.053   1.368   0.917  0.00  0.00    +0.142 HD
ATOM     26  H   UNL     1       8.648   0.871   1.093  0.00  0.00    +0.142 HD
ENDBRANCH  15  24
ENDBRANCH   2  14
BRANCH   1  27
ATOM     27  C   UNL     1       3.669  -1.897   1.685  0.00  0.00    +0.167 C 
BRANCH  27  28
ATOM     28  C   UNL     1       2.607  -2.828   1.159  0.00  0.00    +0.234 C 
ATOM     29  O   UNL     1       1.918  -2.493   0.219  0.00  0.00    -0.274 OA
ATOM     30  N   UNL     1       2.424  -4.034   1.732  0.00  0.00    -0.311 N 
ATOM     31  H   UNL     1       2.975  -4.302   2.484  0.00  0.00    +0.149 HD
BRANCH  30  32
ATOM     32  C   UNL     1       1.392  -4.940   1.221  0.00  0.00    +0.073 C 
ATOM     33  C   UNL     1       0.044  -4.648   1.912  0.00  0.00    +0.022 C 
ATOM     34  C   UNL     1      -0.601  -6.045   2.091  0.00  0.00    +0.002 C 
ATOM     35  C   UNL     1       0.613  -6.939   2.445  0.00  0.00    +0.002 C 
ATOM     36  C   UNL     1       1.754  -6.396   1.560  0.00  0.00    +0.022 C 
ENDBRANCH  30  32
ENDBRANCH  27  28
BRANCH  27  37
ATOM     37  C   UNL     1       3.378  -1.569   3.151  0.00  0.00    +0.032 C 
BRANCH  37  39
ATOM     38  C   UNL     1       4.219  -0.378   5.180  0.00  0.00    +0.004 C 
ATOM     39  C   UNL     1       4.510  -0.707   3.714  0.00  0.00    -0.001 C 
ENDBRANCH  37  39
ENDBRANCH  27  37
ENDBRANCH   1  27
TORSDOF 9
