REMARK  Name = ZINC02560258
REMARK  14 active torsions:
REMARK  status: ('A' for Active; 'I' for Inactive)
REMARK    1  A    between atoms: C_1  and  N_2
REMARK    2  A    between atoms: N_2  and  C_3
REMARK    3  A    between atoms: N_2  and  C_13
REMARK    4  A    between atoms: C_3  and  C_4
REMARK    5  A    between atoms: C_5  and  C_6
REMARK    6  A    between atoms: C_13  and  C_14
REMARK    7  A    between atoms: C_19  and  N_20
REMARK    8  A    between atoms: N_20  and  C_21
REMARK    9  A    between atoms: N_20  and  S_24
REMARK   10  A    between atoms: C_21  and  C_22
REMARK   11  A    between atoms: C_22  and  O_23
REMARK   12  A    between atoms: S_24  and  C_27
REMARK   13  A    between atoms: C_30  and  O_33
REMARK   14  A    between atoms: O_33  and  C_34
REMARK                            x       y       z     vdW  Elec       q    Type
REMARK                         _______ _______ _______ _____ _____    ______ ____
ROOT
ATOM      1  C   UNL     1       1.898  -0.222   1.396  0.00  0.00    -0.041 A 
ATOM      2  C   UNL     1       2.642  -1.258   0.866  0.00  0.00    +0.003 A 
ATOM      3  C   UNL     1       3.991  -1.085   0.616  0.00  0.00    +0.000 A 
ATOM      4  C   UNL     1       4.600   0.125   0.895  0.00  0.00    +0.002 A 
ATOM      5  C   UNL     1       3.862   1.165   1.425  0.00  0.00    +0.025 A 
ATOM      6  C   UNL     1       2.505   0.996   1.672  0.00  0.00    +0.053 A 
ENDROOT
BRANCH   1   7
ATOM      7  C   UNL     1       0.428  -0.412   1.668  0.00  0.00    -0.041 C 
BRANCH   7   9
ATOM      8  C   UNL     1       0.064  -1.639  -0.361  0.00  0.00    -0.095 C 
ATOM      9  N   UNL     1      -0.013  -1.695   1.105  0.00  0.00    +0.383 N 
ATOM     10  H   UNL     1       0.584  -2.434   1.445  0.00  0.00    -0.081 HD
BRANCH   9  11
ATOM     11  C   UNL     1      -1.399  -1.958   1.513  0.00  0.00    -0.051 C 
BRANCH  11  12
ATOM     12  C   UNL     1      -1.811  -3.328   1.039  0.00  0.00    -0.045 C 
ATOM     13  C   UNL     1      -2.280  -4.216   1.905  0.00  0.00    +0.002 C 
BRANCH  13  14
ATOM     14  C   UNL     1      -2.683  -5.560   1.441  0.00  0.00    -0.025 A 
ATOM     15  C   UNL     1      -2.567  -5.899   0.092  0.00  0.00    +0.009 A 
ATOM     16  C   UNL     1      -2.945  -7.155  -0.335  0.00  0.00    +0.020 A 
ATOM     17  C   UNL     1      -3.440  -8.078   0.570  0.00  0.00    +0.041 A 
ATOM     18  C   UNL     1      -3.558  -7.747   1.910  0.00  0.00    +0.020 A 
ATOM     19  C   UNL     1      -3.177  -6.496   2.350  0.00  0.00    +0.009 A 
ATOM     20 CL   UNL     1      -3.915  -9.656   0.025  0.00  0.00    -0.084 Cl
ENDBRANCH  13  14
ENDBRANCH  11  12
ENDBRANCH   9  11
ENDBRANCH   7   9
ENDBRANCH   1   7
BRANCH   6  21
ATOM     21  N   UNL     1       1.754   2.047   2.203  0.00  0.00    -0.201 N 
BRANCH  21  22
ATOM     22  S   UNL     1       1.442   2.104   3.829  0.00  0.00    +0.075 S 
ATOM     23  O   UNL     1       0.266   2.886   3.989  0.00  0.00    -0.150 OA
ATOM     24  O   UNL     1       1.540   0.769   4.307  0.00  0.00    -0.150 OA
BRANCH  22  25
ATOM     25  C   UNL     1       2.754   3.007   4.581  0.00  0.00    +0.109 A 
ATOM     26  C   UNL     1       3.884   2.344   5.023  0.00  0.00    +0.032 A 
ATOM     27  C   UNL     1       4.914   3.050   5.614  0.00  0.00    +0.047 A 
ATOM     28  C   UNL     1       4.814   4.426   5.762  0.00  0.00    +0.120 A 
ATOM     29  C   UNL     1       3.680   5.089   5.317  0.00  0.00    +0.047 A 
ATOM     30  C   UNL     1       2.655   4.379   4.722  0.00  0.00    +0.032 A 
BRANCH  28  31
ATOM     31  O   UNL     1       5.826   5.122   6.343  0.00  0.00    -0.495 OA
ATOM     32  C   UNL     1       5.656   6.536   6.463  0.00  0.00    +0.277 C 
ENDBRANCH  28  31
ENDBRANCH  22  25
ENDBRANCH  21  22
BRANCH  21  33
ATOM     33  C   UNL     1       1.243   3.101   1.322  0.00  0.00    +0.159 C 
BRANCH  33  34
ATOM     34  C   UNL     1      -0.069   2.640   0.684  0.00  0.00    +0.176 C 
BRANCH  34  35
ATOM     35  O   UNL     1      -1.051   2.444   1.704  0.00  0.00    -0.393 OA
ATOM     36  H   UNL     1      -1.887   2.081   1.380  0.00  0.00    +0.209 HD
ENDBRANCH  34  35
ENDBRANCH  33  34
ENDBRANCH  21  33
ENDBRANCH   6  21
TORSDOF 12
