REMARK  Name = ZINC12163072
REMARK  10 active torsions:
REMARK  status: ('A' for Active; 'I' for Inactive)
REMARK    1  A    between atoms: C_1  and  C_2
REMARK    2  A    between atoms: C_2  and  C_3
REMARK    3  A    between atoms: C_3  and  C_5
REMARK    4  A    between atoms: C_3  and  C_6
REMARK    5  A    between atoms: N_8  and  C_9
REMARK    6  A    between atoms: C_9  and  C_10
REMARK    7  A    between atoms: C_19  and  C_20
REMARK    8  A    between atoms: C_19  and  N_68
REMARK    9  A    between atoms: N_32  and  C_33
REMARK   10  A    between atoms: C_33  and  C_34
REMARK                            x       y       z     vdW  Elec       q    Type
REMARK                         _______ _______ _______ _____ _____    ______ ____
ROOT
ATOM      1  C   UNL     1       1.813   3.200   0.488  0.00  0.00    +0.151 A 
ATOM      2  N   UNL     1       3.094   3.251   0.231  0.00  0.00    -0.133 NA
ATOM      3  N   UNL     1       3.459   2.176  -0.376  0.00  0.00    -0.134 NA
ATOM      4  C   UNL     1       2.432   1.391  -0.525  0.00  0.00    +0.132 A 
ATOM      5  N   UNL     1       1.356   2.028   0.000  0.00  0.00    -0.315 N 
ATOM      6  C   UNL     1      -0.019   1.527   0.010  0.00  0.00    +0.106 C 
ATOM      7  C   UNL     1       0.002  -0.004   0.002  0.00  0.00    -0.056 C 
ATOM      8  C   UNL     1       1.207  -0.056  -2.112  0.00  0.00    -0.071 C 
ATOM      9  C   UNL     1       2.400   0.022  -1.154  0.00  0.00    +0.058 C 
ATOM     10  N   UNL     1       0.011  -0.530  -1.383  0.00  0.00    +0.384 N 
ATOM     11  H   UNL     1       0.031  -1.556  -1.347  0.00  0.00    -0.081 HD
ENDROOT
BRANCH   1  12
ATOM     12  C   UNL     1       0.999   4.253   1.195  0.00  0.00    +0.180 C 
BRANCH  12  15
ATOM     13  C   UNL     1      -0.295   6.236   0.619  0.00  0.00    +0.216 C 
ATOM     14  O   UNL     1      -0.542   6.381   1.798  0.00  0.00    -0.276 OA
ATOM     15  N   UNL     1       0.468   5.202   0.213  0.00  0.00    -0.308 N 
ATOM     16  H   UNL     1       0.666   5.086  -0.729  0.00  0.00    +0.149 HD
BRANCH  13  17
ATOM     17  C   UNL     1      -0.841   7.212  -0.391  0.00  0.00    +0.072 C 
ATOM     18  C   UNL     1      -1.728   6.468  -1.391  0.00  0.00    +0.017 C 
BRANCH  17  20
ATOM     19  C   UNL     1      -2.117   9.340  -0.681  0.00  0.00    +0.004 C 
ATOM     20  C   UNL     1      -1.667   8.281   0.327  0.00  0.00    +0.009 C 
ENDBRANCH  17  20
ENDBRANCH  13  17
ENDBRANCH  12  15
ENDBRANCH   1  12
BRANCH  10  21
ATOM     21  C   UNL     1      -1.210  -0.102  -2.090  0.00  0.00    -0.043 C 
BRANCH  21  22
ATOM     22  C   UNL     1      -1.275  -0.820  -3.413  0.00  0.00    -0.063 A 
ATOM     23  C   UNL     1      -0.719  -0.238  -4.543  0.00  0.00    +0.004 A 
ATOM     24  C   UNL     1      -0.766  -0.884  -5.759  0.00  0.00    +0.026 A 
ATOM     25  C   UNL     1      -1.385  -2.127  -5.865  0.00  0.00    +0.050 A 
ATOM     26  C   UNL     1      -1.952  -2.710  -4.722  0.00  0.00    +0.008 A 
ATOM     27  C   UNL     1      -1.893  -2.049  -3.498  0.00  0.00    +0.012 A 
ATOM     28  C   UNL     1      -2.522  -4.001  -5.151  0.00  0.00    +0.008 A 
ATOM     29  C   UNL     1      -3.203  -5.016  -4.483  0.00  0.00    +0.010 A 
ATOM     30  C   UNL     1      -3.620  -6.132  -5.177  0.00  0.00    +0.001 A 
ATOM     31  C   UNL     1      -3.364  -6.245  -6.535  0.00  0.00    +0.002 A 
ATOM     32  C   UNL     1      -2.691  -5.248  -7.207  0.00  0.00    +0.026 A 
ATOM     33  C   UNL     1      -2.262  -4.114  -6.524  0.00  0.00    +0.050 A 
ATOM     34  N   UNL     1      -1.581  -2.982  -6.934  0.00  0.00    -0.340 N 
BRANCH  34  35
ATOM     35  C   UNL     1      -1.130  -2.726  -8.305  0.00  0.00    +0.119 C 
ATOM     36  C   UNL     1       0.281  -3.288  -8.491  0.00  0.00    +0.027 C 
ENDBRANCH  34  35
ENDBRANCH  21  22
ENDBRANCH  10  21
TORSDOF 7
