REMARK  Name = ZINC20395725
REMARK  7 active torsions:
REMARK  status: ('A' for Active; 'I' for Inactive)
REMARK    1  A    between atoms: C_1  and  C_2
REMARK    2  A    between atoms: C_7  and  N_8
REMARK    3  A    between atoms: N_8  and  C_9
REMARK    4  A    between atoms: C_9  and  N_11
REMARK    5  A    between atoms: N_11  and  C_12
REMARK    6  A    between atoms: C_15  and  S_18
REMARK    7  A    between atoms: S_18  and  N_21
REMARK                            x       y       z     vdW  Elec       q    Type
REMARK                         _______ _______ _______ _____ _____    ______ ____
ROOT
ATOM      1  C   UNL     1       2.499   7.366   0.130  0.00  0.00    +0.033 A 
ATOM      2  C   UNL     1       1.423   8.242   0.196  0.00  0.00    +0.025 A 
ATOM      3  C   UNL     1       1.644   9.605   0.193  0.00  0.00    +0.030 A 
ATOM      4  C   UNL     1       2.933  10.098   0.112  0.00  0.00    +0.109 A 
ATOM      5  C   UNL     1       4.006   9.229   0.040  0.00  0.00    +0.030 A 
ATOM      6  C   UNL     1       3.792   7.864   0.049  0.00  0.00    +0.025 A 
ENDROOT
BRANCH   4   7
ATOM      7  S   UNL     1       3.210  11.838   0.101  0.00  0.00    +0.075 S 
ATOM      8  O   UNL     1       2.081  12.433   0.728  0.00  0.00    -0.150 OA
ATOM      9  O   UNL     1       4.536  12.042   0.569  0.00  0.00    -0.150 OA
BRANCH   7  10
ATOM     10  N   UNL     1       3.186  12.328  -1.480  0.00  0.00    -0.203 N 
ATOM     11  C   UNL     1       4.438  12.472  -2.236  0.00  0.00    +0.132 C 
ATOM     12  C   UNL     1       4.371  13.788  -3.015  0.00  0.00    +0.025 C 
ATOM     13  C   UNL     1       3.221  13.714  -4.019  0.00  0.00    +0.038 C 
ATOM     14  C   UNL     1       1.951  13.283  -3.333  0.00  0.00    -0.025 A 
ATOM     15  C   UNL     1       1.974  12.617  -2.117  0.00  0.00    +0.054 A 
ATOM     16  C   UNL     1       0.783  12.228  -1.514  0.00  0.00    +0.025 A 
ATOM     17  C   UNL     1      -0.424  12.506  -2.125  0.00  0.00    +0.002 A 
ATOM     18  C   UNL     1      -0.446  13.172  -3.336  0.00  0.00    +0.000 A 
ATOM     19  C   UNL     1       0.736  13.559  -3.938  0.00  0.00    +0.005 A 
ENDBRANCH   7  10
ENDBRANCH   4   7
BRANCH   1  20
ATOM     20  N   UNL     1       2.279   5.984   0.139  0.00  0.00    -0.297 N 
ATOM     21  H   UNL     1       1.441   5.557  -0.431  0.00  0.00    +0.154 HD
BRANCH  20  22
ATOM     22  C   UNL     1       3.094   5.177   0.847  0.00  0.00    +0.139 C 
ATOM     23  S   UNL     1       4.312   5.851   1.843  0.00  0.00    -0.018 S 
BRANCH  22  24
ATOM     24  N   UNL     1       2.950   3.839   0.770  0.00  0.00    -0.296 N 
ATOM     25  H   UNL     1       2.195   3.405   0.098  0.00  0.00    +0.154 HD
BRANCH  24  32
ATOM     26  C   UNL     1       3.945   1.455  -0.422  0.00  0.00    +0.045 C 
ATOM     27  C   UNL     1       4.268   1.829   1.002  0.00  0.00    -0.029 A 
ATOM     28  C   UNL     1       5.068   1.005   1.769  0.00  0.00    +0.006 A 
ATOM     29  C   UNL     1       5.360   1.344   3.077  0.00  0.00    +0.020 A 
ATOM     30  C   UNL     1       4.861   2.515   3.619  0.00  0.00    +0.043 A 
ATOM     31  C   UNL     1       4.060   3.344   2.856  0.00  0.00    +0.043 A 
ATOM     32  C   UNL     1       3.761   3.003   1.544  0.00  0.00    +0.037 A 
ATOM     33 CL   UNL     1       5.236   2.941   5.260  0.00  0.00    -0.083 Cl
ENDBRANCH  24  32
ENDBRANCH  22  24
ENDBRANCH  20  22
ENDBRANCH   1  20
TORSDOF 6
