REMARK  Name = ZINC21472363
REMARK  10 active torsions:
REMARK  status: ('A' for Active; 'I' for Inactive)
REMARK    1  A    between atoms: C_1  and  C_2
REMARK    2  A    between atoms: C_2  and  C_3
REMARK    3  A    between atoms: C_5  and  C_31
REMARK    4  A    between atoms: C_6  and  C_11
REMARK    5  A    between atoms: C_11  and  N_12
REMARK    6  A    between atoms: N_15  and  S_18
REMARK    7  A    between atoms: S_18  and  C_21
REMARK    8  A    between atoms: C_31  and  O_33
REMARK    9  A    between atoms: O_33  and  C_34
REMARK   10  A    between atoms: C_34  and  C_35
REMARK                            x       y       z     vdW  Elec       q    Type
REMARK                         _______ _______ _______ _____ _____    ______ ____
ROOT
ATOM      1  N   UNL     1       2.300  -4.641  -2.774  0.00  0.00    -0.294 NA
ATOM      2  C   UNL     1       1.528  -4.158  -3.927  0.00  0.00    +0.102 C 
ATOM      3  C   UNL     1       2.298  -4.462  -5.216  0.00  0.00    +0.125 C 
ATOM      4  N   UNL     1       2.620  -5.897  -5.241  0.00  0.00    -0.174 NA
ATOM      5  C   UNL     1       3.273  -6.484  -4.060  0.00  0.00    +0.125 C 
ATOM      6  C   UNL     1       2.464  -6.100  -2.816  0.00  0.00    +0.102 C 
ENDROOT
BRANCH   4   7
ATOM      7  S   UNL     1       2.258  -6.827  -6.562  0.00  0.00    +0.061 S 
ATOM      8  O   UNL     1       2.182  -5.944  -7.672  0.00  0.00    -0.153 OA
ATOM      9  O   UNL     1       3.143  -7.939  -6.531  0.00  0.00    -0.153 OA
BRANCH   7  10
ATOM     10  C   UNL     1       0.635  -7.470  -6.317  0.00  0.00    +0.106 A 
ATOM     11  C   UNL     1      -0.465  -6.765  -6.769  0.00  0.00    +0.029 A 
ATOM     12  C   UNL     1      -1.732  -7.273  -6.572  0.00  0.00    +0.006 A 
ATOM     13  C   UNL     1      -1.912  -8.487  -5.922  0.00  0.00    -0.044 A 
ATOM     14  C   UNL     1      -0.817  -9.191  -5.477  0.00  0.00    -0.042 A 
ATOM     15  C   UNL     1       0.459  -8.680  -5.680  0.00  0.00    +0.032 A 
ATOM     16  C   UNL     1      -0.937 -10.518  -4.774  0.00  0.00    +0.035 C 
ATOM     17  C   UNL     1      -2.358 -10.723  -4.253  0.00  0.00    +0.005 C 
ATOM     18  C   UNL     1      -3.336 -10.468  -5.406  0.00  0.00    +0.005 C 
ATOM     19  C   UNL     1      -3.324  -8.975  -5.728  0.00  0.00    +0.035 C 
ENDBRANCH   7  10
ENDBRANCH   4   7
BRANCH   1  20
ATOM     20  C   UNL     1       1.680  -4.217  -1.511  0.00  0.00    +0.136 C 
BRANCH  20  23
ATOM     21  C   UNL     1       0.724  -0.490  -1.263  0.00  0.00    +0.113 C 
ATOM     22  C   UNL     1       0.608  -1.997  -1.380  0.00  0.00    +0.075 C 
ATOM     23  C   UNL     1       1.750  -2.716  -1.396  0.00  0.00    +0.038 C 
ATOM     24  N   UNL     1       2.969  -2.105  -1.310  0.00  0.00    -0.271 N 
ATOM     25  C   UNL     1       3.129  -0.780  -1.205  0.00  0.00    +0.304 C 
ATOM     26  O   UNL     1       4.256  -0.328  -1.134  0.00  0.00    -0.253 OA
ATOM     27  N   UNL     1       2.083   0.069  -1.176  0.00  0.00    -0.292 N 
ATOM     28  H   UNL     1       3.889  -2.708  -1.326  0.00  0.00    +0.156 HD
ATOM     29  H   UNL     1       2.226   1.156  -1.089  0.00  0.00    +0.151 HD
BRANCH  21  31
ATOM     30  C   UNL     1      -0.058   1.474   0.069  0.00  0.00    +0.006 C 
ATOM     31  C   UNL     1      -0.047  -0.053  -0.015  0.00  0.00    +0.024 C 
ENDBRANCH  21  31
BRANCH  22  32
ATOM     32  C   UNL     1      -0.655  -2.628  -1.470  0.00  0.00    +0.338 C 
ATOM     33  O   UNL     1      -1.259  -2.633  -2.526  0.00  0.00    -0.245 OA
BRANCH  32  34
ATOM     34  O   UNL     1      -1.190  -3.224  -0.384  0.00  0.00    -0.462 OA
BRANCH  34  35
ATOM     35  C   UNL     1      -2.468  -3.842  -0.546  0.00  0.00    +0.229 C 
ATOM     36  C   UNL     1      -2.909  -4.460   0.782  0.00  0.00    +0.048 C 
ENDBRANCH  34  35
ENDBRANCH  32  34
ENDBRANCH  22  32
ENDBRANCH  20  23
ENDBRANCH   1  20
TORSDOF 8
