REMARK  Name = ZINC39637161
REMARK  6 active torsions:
REMARK  status: ('A' for Active; 'I' for Inactive)
REMARK    1  A    between atoms: C_1  and  C_2
REMARK    2  A    between atoms: C_7  and  N_12
REMARK    3  A    between atoms: C_9  and  C_11
REMARK    4  A    between atoms: C_13  and  C_15
REMARK    5  A    between atoms: C_26  and  C_28
REMARK    6  A    between atoms: C_33  and  C_34
REMARK                            x       y       z     vdW  Elec       q    Type
REMARK                         _______ _______ _______ _____ _____    ______ ____
ROOT
ATOM      1  C   UNL     1       2.563  -4.594   4.201  0.00  0.00    +0.100 C 
ATOM      2  C   UNL     1       3.768  -3.627   4.226  0.00  0.00    +0.121 C 
ATOM      3  N   UNL     1       4.935  -4.491   4.523  0.00  0.00    -0.296 N 
ATOM      4  C   UNL     1       4.685  -5.728   3.746  0.00  0.00    +0.115 C 
ATOM      5  C   UNL     1       3.169  -5.971   3.885  0.00  0.00    -0.004 C 
ATOM      6  C   UNL     1       2.600  -6.511   2.576  0.00  0.00    -0.010 C 
ATOM      7  C   UNL     1       3.172  -7.907   2.313  0.00  0.00    -0.082 C 
ATOM      8  N   UNL     1       2.825  -8.799   3.425  0.00  0.00    +0.379 N 
ATOM      9  C   UNL     1       3.454  -8.323   4.663  0.00  0.00    -0.082 C 
ATOM     10  C   UNL     1       2.893  -6.945   5.027  0.00  0.00    -0.010 C 
ATOM     11  C   UNL     1       5.987  -4.214   5.319  0.00  0.00    +0.247 C 
ATOM     12  O   UNL     1       6.921  -4.989   5.384  0.00  0.00    -0.270 OA
ATOM     13  H   UNL     1       1.823  -8.813   3.543  0.00  0.00    -0.086 HD
ATOM     14  H   UNL     1       3.150  -9.732   3.221  0.00  0.00    -0.086 HD
ENDROOT
BRANCH  11  15
ATOM     15  C   UNL     1       6.004  -2.967   6.114  0.00  0.00    +0.049 A 
ATOM     16  C   UNL     1       5.472  -1.791   5.585  0.00  0.00    +0.013 A 
ATOM     17  C   UNL     1       5.490  -0.631   6.332  0.00  0.00    +0.001 A 
ATOM     18  C   UNL     1       6.035  -0.633   7.604  0.00  0.00    +0.001 A 
ATOM     19  C   UNL     1       6.564  -1.796   8.135  0.00  0.00    +0.013 A 
ATOM     20  C   UNL     1       6.546  -2.964   7.400  0.00  0.00    +0.067 A 
BRANCH  20  21
ATOM     21  C   UNL     1       7.118  -4.231   7.982  0.00  0.00    +0.418 C 
ATOM     22  F   UNL     1       7.598  -3.977   9.272  0.00  0.00    -0.166 F 
ATOM     23  F   UNL     1       6.119  -5.209   8.041  0.00  0.00    -0.166 F 
ATOM     24  F   UNL     1       8.167  -4.684   7.175  0.00  0.00    -0.166 F 
ENDBRANCH  20  21
ENDBRANCH  11  15
BRANCH   1  26
ATOM     25  N   UNL     1       0.275  -4.455   3.272  0.00  0.00    -0.312 N 
ATOM     26  C   UNL     1       1.589  -4.189   3.125  0.00  0.00    +0.218 C 
ATOM     27  O   UNL     1       1.986  -3.625   2.128  0.00  0.00    -0.275 OA
ATOM     28  H   UNL     1      -0.042  -4.907   4.069  0.00  0.00    +0.149 HD
BRANCH  25  34
ATOM     29  C   UNL     1      -4.444  -3.301   2.358  0.00  0.00    +0.008 C 
ATOM     30  C   UNL     1      -3.053  -3.476   1.746  0.00  0.00    -0.009 C 
ATOM     31  C   UNL     1      -3.103  -4.562   0.669  0.00  0.00    +0.003 C 
ATOM     32  C   UNL     1      -1.712  -4.738   0.057  0.00  0.00    +0.002 C 
ATOM     33  C   UNL     1      -0.723  -5.148   1.149  0.00  0.00    +0.022 C 
ATOM     34  C   UNL     1      -0.672  -4.062   2.226  0.00  0.00    +0.076 C 
ATOM     35  C   UNL     1      -2.063  -3.887   2.838  0.00  0.00    +0.009 C 
ATOM     36  C   UNL     1      -2.515  -5.207   3.466  0.00  0.00    +0.009 C 
ENDBRANCH  25  34
ENDBRANCH   1  26
TORSDOF 4
