REMARK  Name = ZINC08778554
REMARK  8 active torsions:
REMARK  status: ('A' for Active; 'I' for Inactive)
REMARK    1  A    between atoms: C_1  and  C_2
REMARK    2  A    between atoms: C_2  and  N_3
REMARK    3  A    between atoms: C_7  and  S_28
REMARK    4  A    between atoms: C_11  and  C_12
REMARK    5  A    between atoms: C_12  and  N_13
REMARK    6  A    between atoms: C_15  and  C_24
REMARK    7  A    between atoms: N_26  and  C_27
REMARK    8  A    between atoms: S_28  and  N_31
REMARK                            x       y       z     vdW  Elec       q    Type
REMARK                         _______ _______ _______ _____ _____    ______ ____
ROOT
ATOM      1  N   UNL     1       0.792   3.321   0.111  0.00  0.00    -0.327 N 
ATOM      2  C   UNL     1       1.008   1.960   0.028  0.00  0.00    +0.069 A 
ATOM      3  C   UNL     1       2.142   1.158   0.054  0.00  0.00    +0.030 A 
ATOM      4  C   UNL     1       2.012  -0.210  -0.055  0.00  0.00    +0.030 A 
ATOM      5  C   UNL     1       0.759  -0.789  -0.189  0.00  0.00    +0.108 A 
ATOM      6  C   UNL     1      -0.367  -0.016  -0.216  0.00  0.00    +0.058 A 
ATOM      7  C   UNL     1      -0.261   1.373  -0.107  0.00  0.00    +0.091 A 
ATOM      8  N   UNL     1      -1.167   2.384  -0.106  0.00  0.00    -0.231 NA
ATOM      9  C   UNL     1      -0.551   3.523   0.027  0.00  0.00    +0.128 A 
ENDROOT
BRANCH   5  10
ATOM     10  S   UNL     1       0.618  -2.540  -0.326  0.00  0.00    +0.061 S 
ATOM     11  O   UNL     1       1.783  -3.090   0.273  0.00  0.00    -0.153 OA
ATOM     12  O   UNL     1      -0.693  -2.877   0.107  0.00  0.00    -0.153 OA
BRANCH  10  13
ATOM     13  N   UNL     1       0.694  -2.913  -1.938  0.00  0.00    -0.177 NA
ATOM     14  C   UNL     1      -0.529  -2.979  -2.750  0.00  0.00    +0.109 C 
ATOM     15  C   UNL     1      -0.355  -2.065  -3.972  0.00  0.00    +0.017 C 
ATOM     16  C   UNL     1       0.919  -2.463  -4.721  0.00  0.00    +0.003 C 
ATOM     17  C   UNL     1       2.131  -2.278  -3.805  0.00  0.00    +0.017 C 
ATOM     18  C   UNL     1       1.985  -3.189  -2.582  0.00  0.00    +0.109 C 
ENDBRANCH  10  13
ENDBRANCH   5  10
BRANCH   1  20
ATOM     19  C   UNL     1       2.385   4.716  -1.113  0.00  0.00    +0.027 C 
ATOM     20  C   UNL     1       1.817   4.356   0.262  0.00  0.00    +0.120 C 
ENDBRANCH   1  20
BRANCH   9  21
ATOM     21  C   UNL     1      -1.227   4.869   0.076  0.00  0.00    +0.179 C 
BRANCH  21  22
ATOM     22  N   UNL     1      -1.628   5.264  -1.281  0.00  0.00    -0.316 N 
ATOM     23  C   UNL     1      -0.466   5.333  -2.175  0.00  0.00    +0.160 C 
ATOM     24  C   UNL     1      -0.927   5.870  -3.536  0.00  0.00    +0.276 C 
ATOM     25  O   UNL     1      -1.412   7.202  -3.342  0.00  0.00    -0.476 OA
ATOM     26  C   UNL     1      -2.237   7.403  -2.279  0.00  0.00    +0.143 A 
ATOM     27  C   UNL     1      -2.349   6.463  -1.261  0.00  0.00    +0.072 A 
ATOM     28  C   UNL     1      -3.200   6.710  -0.189  0.00  0.00    +0.027 A 
ATOM     29  C   UNL     1      -3.932   7.880  -0.137  0.00  0.00    +0.002 A 
ATOM     30  C   UNL     1      -3.822   8.812  -1.152  0.00  0.00    +0.004 A 
ATOM     31  C   UNL     1      -2.977   8.576  -2.220  0.00  0.00    +0.047 A 
BRANCH  24  32
ATOM     32  C   UNL     1       0.233   5.884  -4.498  0.00  0.00    +0.255 C 
ATOM     33  O   UNL     1       0.653   6.938  -4.926  0.00  0.00    -0.272 OA
ATOM     34  N   UNL     1       0.805   4.725  -4.882  0.00  0.00    -0.315 N 
ATOM     35  C   UNL     1       1.933   4.739  -5.816  0.00  0.00    +0.128 C 
ATOM     36  H   UNL     1       0.469   3.882  -4.539  0.00  0.00    +0.148 HD
ENDBRANCH  24  32
ENDBRANCH  21  22
ENDBRANCH   9  21
TORSDOF 6
