REMARK  Name = ZINC13065129
REMARK  11 active torsions:
REMARK  status: ('A' for Active; 'I' for Inactive)
REMARK    1  A    between atoms: C_1  and  C_2
REMARK    2  A    between atoms: C_2  and  C_3
REMARK    3  A    between atoms: C_3  and  C_5
REMARK    4  A    between atoms: C_3  and  N_66
REMARK    5  A    between atoms: N_9  and  C_10
REMARK    6  A    between atoms: C_10  and  C_11
REMARK    7  A    between atoms: C_16  and  C_17
REMARK    8  A    between atoms: C_16  and  N_66
REMARK    9  A    between atoms: C_22  and  C_30
REMARK   10  A    between atoms: C_23  and  C_29
REMARK   11  A    between atoms: C_31  and  N_66
REMARK                            x       y       z     vdW  Elec       q    Type
REMARK                         _______ _______ _______ _____ _____    ______ ____
ROOT
ATOM      1  N   UNL     1      -0.999   1.459   1.595  0.00  0.00    +0.391 N 
ATOM      2  H   UNL     1      -1.135   2.427   1.909  0.00  0.00    -0.080 HD
ENDROOT
BRANCH   1   3
ATOM      3  C   UNL     1       0.230   1.387   0.777  0.00  0.00    -0.067 C 
ATOM      4  C   UNL     1       0.211   2.498  -0.302  0.00  0.00    -0.015 C 
ATOM      5  C   UNL     1       1.715   2.700  -0.612  0.00  0.00    -0.002 C 
ATOM      6  C   UNL     1       2.406   2.557   0.760  0.00  0.00    -0.002 C 
ATOM      7  C   UNL     1       1.462   1.722   1.643  0.00  0.00    -0.015 C 
ENDBRANCH   1   3
BRANCH   1   8
ATOM      8  C   UNL     1      -2.167   1.046   0.789  0.00  0.00    +0.003 C 
BRANCH   8   9
ATOM      9  C   UNL     1      -1.800  -0.095  -0.124  0.00  0.00    +0.139 A 
ATOM     10  N   UNL     1      -0.884  -0.083  -1.062  0.00  0.00    -0.115 NA
ATOM     11  N   UNL     1      -0.871  -1.245  -1.619  0.00  0.00    -0.023 NA
ATOM     12  N   UNL     1      -1.755  -1.996  -1.062  0.00  0.00    -0.044 NA
ATOM     13  N   UNL     1      -2.345  -1.325  -0.132  0.00  0.00    -0.223 N 
BRANCH  13  14
ATOM     14  C   UNL     1      -3.411  -1.810   0.749  0.00  0.00    +0.221 C 
BRANCH  14  15
ATOM     15  C   UNL     1      -4.750  -1.539   0.112  0.00  0.00    +0.126 A 
ATOM     16  C   UNL     1      -5.410  -2.369  -0.716  0.00  0.00    +0.046 A 
ATOM     17  C   UNL     1      -6.616  -1.720  -1.069  0.00  0.00    +0.041 A 
ATOM     18  C   UNL     1      -6.617  -0.530  -0.443  0.00  0.00    +0.195 A 
ATOM     19  O   UNL     1      -5.485  -0.426   0.271  0.00  0.00    -0.466 OA
ENDBRANCH  14  15
ENDBRANCH  13  14
ENDBRANCH   8   9
BRANCH   8  21
ATOM     20  C   UNL     1      -3.029   3.390   0.881  0.00  0.00    +0.002 C 
ATOM     21  C   UNL     1      -2.630   2.241  -0.048  0.00  0.00    -0.011 C 
ENDBRANCH   8  21
ENDBRANCH   1   8
BRANCH   1  22
ATOM     22  C   UNL     1      -0.868   0.585   2.780  0.00  0.00    -0.036 C 
BRANCH  22  23
ATOM     23  C   UNL     1      -1.917   0.978   3.788  0.00  0.00    +0.001 A 
ATOM     24  C   UNL     1      -3.072   0.273   3.871  0.00  0.00    +0.017 A 
ATOM     25  C   UNL     1      -4.071   0.680   4.862  0.00  0.00    -0.001 A 
ATOM     26  C   UNL     1      -5.281  -0.008   4.995  0.00  0.00    +0.010 A 
ATOM     27  C   UNL     1      -6.192   0.397   5.928  0.00  0.00    +0.004 A 
ATOM     28  C   UNL     1      -5.927   1.487   6.747  0.00  0.00    -0.046 A 
ATOM     29  C   UNL     1      -4.742   2.180   6.633  0.00  0.00    -0.024 A 
ATOM     30  C   UNL     1      -3.799   1.786   5.690  0.00  0.00    +0.052 A 
ATOM     31  N   UNL     1      -2.604   2.460   5.555  0.00  0.00    -0.322 N 
ATOM     32  H   UNL     1      -2.418   3.222   6.127  0.00  0.00    +0.169 HD
ATOM     33  C   UNL     1      -1.691   2.075   4.647  0.00  0.00    +0.251 A 
ATOM     34  O   UNL     1      -0.643   2.692   4.559  0.00  0.00    -0.268 OA
ATOM     35  C   UNL     1      -4.468   3.362   7.528  0.00  0.00    +0.046 C 
ATOM     36  C   UNL     1      -6.947   1.916   7.771  0.00  0.00    +0.044 C 
ENDBRANCH  22  23
ENDBRANCH   1  22
TORSDOF 8
