REMARK  Name = ZINC13498833
REMARK  15 active torsions:
REMARK  status: ('A' for Active; 'I' for Inactive)
REMARK    1  A    between atoms: C_1  and  C_2
REMARK    2  A    between atoms: C_2  and  C_3
REMARK    3  A    between atoms: C_2  and  C_4
REMARK    4  A    between atoms: C_4  and  C_6
REMARK    5  A    between atoms: C_4  and  N_17
REMARK    6  A    between atoms: N_10  and  C_11
REMARK    7  A    between atoms: C_11  and  C_12
REMARK    8  A    between atoms: N_17  and  C_18
REMARK    9  A    between atoms: N_17  and  C_24
REMARK   10  A    between atoms: C_18  and  C_19
REMARK   11  A    between atoms: C_24  and  C_25
REMARK   12  A    between atoms: C_29  and  O_39
REMARK   13  A    between atoms: C_30  and  O_37
REMARK   14  A    between atoms: O_37  and  C_38
REMARK   15  A    between atoms: O_39  and  C_40
REMARK                            x       y       z     vdW  Elec       q    Type
REMARK                         _______ _______ _______ _____ _____    ______ ____
ROOT
ATOM      1  N   UNL     1       1.448  -1.763  -1.507  0.00  0.00    -0.281 NA
ENDROOT
BRANCH   1   2
ATOM      2  C   UNL     1       0.802  -0.467  -1.261  0.00  0.00    +0.130 C 
BRANCH   2   3
ATOM      3  C   UNL     1       1.858   0.587  -1.047  0.00  0.00    +0.169 A 
ATOM      4  N   UNL     1       2.934   0.775  -1.771  0.00  0.00    -0.112 NA
ATOM      5  N   UNL     1       3.581   1.771  -1.271  0.00  0.00    -0.023 NA
ATOM      6  N   UNL     1       2.946   2.223  -0.246  0.00  0.00    -0.043 NA
ATOM      7  N   UNL     1       1.875   1.522  -0.079  0.00  0.00    -0.220 N 
BRANCH   7   8
ATOM      8  C   UNL     1       0.868   1.708   0.969  0.00  0.00    +0.221 C 
BRANCH   8   9
ATOM      9  C   UNL     1       1.240   0.883   2.174  0.00  0.00    +0.126 A 
ATOM     10  C   UNL     1       2.000   1.295   3.205  0.00  0.00    +0.046 A 
ATOM     11  C   UNL     1       2.092   0.209   4.105  0.00  0.00    +0.041 A 
ATOM     12  C   UNL     1       1.382  -0.801   3.571  0.00  0.00    +0.195 A 
ATOM     13  O   UNL     1       0.864  -0.385   2.404  0.00  0.00    -0.466 OA
ENDBRANCH   8   9
ENDBRANCH   7   8
ENDBRANCH   2   3
BRANCH   2  15
ATOM     14  C   UNL     1      -0.737   1.257  -2.209  0.00  0.00    +0.009 C 
ATOM     15  C   UNL     1      -0.059  -0.089  -2.468  0.00  0.00    +0.008 C 
ATOM     16  C   UNL     1       0.825   0.017  -3.712  0.00  0.00    +0.009 C 
ENDBRANCH   2  15
ENDBRANCH   1   2
BRANCH   1  17
ATOM     17  C   UNL     1       0.448  -2.821  -1.706  0.00  0.00    +0.159 C 
BRANCH  17  18
ATOM     18  C   UNL     1      -0.486  -2.857  -0.524  0.00  0.00    +0.119 A 
ATOM     19  C   UNL     1      -1.678  -2.239  -0.444  0.00  0.00    +0.046 A 
ATOM     20  C   UNL     1      -2.211  -2.538   0.831  0.00  0.00    +0.041 A 
ATOM     21  C   UNL     1      -1.312  -3.321   1.454  0.00  0.00    +0.195 A 
ATOM     22  O   UNL     1      -0.272  -3.515   0.627  0.00  0.00    -0.467 OA
ENDBRANCH  17  18
ENDBRANCH   1  17
BRANCH   1  23
ATOM     23  C   UNL     1       2.369  -2.108  -0.416  0.00  0.00    +0.126 C 
BRANCH  23  24
ATOM     24  C   UNL     1       3.299  -3.203  -0.871  0.00  0.00    +0.031 A 
ATOM     25  C   UNL     1       4.511  -2.888  -1.394  0.00  0.00    +0.020 A 
ATOM     26  C   UNL     1       5.391  -3.973  -1.825  0.00  0.00    +0.003 A 
ATOM     27  C   UNL     1       6.653  -3.706  -2.372  0.00  0.00    +0.059 A 
ATOM     28  C   UNL     1       7.458  -4.750  -2.769  0.00  0.00    +0.162 A 
ATOM     29  C   UNL     1       7.021  -6.071  -2.627  0.00  0.00    +0.163 A 
ATOM     30  C   UNL     1       5.778  -6.346  -2.089  0.00  0.00    +0.075 A 
ATOM     31  C   UNL     1       4.952  -5.304  -1.684  0.00  0.00    +0.053 A 
ATOM     32  N   UNL     1       3.708  -5.557  -1.144  0.00  0.00    -0.322 N 
ATOM     33  H   UNL     1       3.407  -6.474  -1.047  0.00  0.00    +0.169 HD
ATOM     34  C   UNL     1       2.909  -4.552  -0.745  0.00  0.00    +0.254 A 
ATOM     35  O   UNL     1       1.818  -4.813  -0.268  0.00  0.00    -0.268 OA
BRANCH  29  36
ATOM     36  O   UNL     1       7.824  -7.093  -3.023  0.00  0.00    -0.491 OA
ATOM     37  C   UNL     1       7.320  -8.419  -2.852  0.00  0.00    +0.277 C 
ENDBRANCH  29  36
BRANCH  28  38
ATOM     38  O   UNL     1       8.684  -4.496  -3.300  0.00  0.00    -0.491 OA
ATOM     39  C   UNL     1       9.069  -3.124  -3.417  0.00  0.00    +0.277 C 
ENDBRANCH  28  38
ENDBRANCH  23  24
ENDBRANCH   1  23
TORSDOF 11
