REMARK  Name = ZINC44441667
REMARK  5 active torsions:
REMARK  status: ('A' for Active; 'I' for Inactive)
REMARK    1  A    between atoms: C_1  and  N_2
REMARK    2  A    between atoms: C_3  and  C_5
REMARK    3  A    between atoms: C_5  and  C_6
REMARK    4  A    between atoms: C_12  and  C_14
REMARK    5  A    between atoms: C_25  and  C_27
REMARK                            x       y       z     vdW  Elec       q    Type
REMARK                         _______ _______ _______ _____ _____    ______ ____
ROOT
ATOM      1  C   UNL     1      -7.990  -2.804   2.653  0.00  0.00    +0.125 C 
ATOM      2  C   UNL     1      -9.252  -3.568   2.246  0.00  0.00    +0.019 C 
ATOM      3  C   UNL     1     -10.438  -3.123   3.105  0.00  0.00    +0.006 C 
ATOM      4  C   UNL     1     -10.824  -1.687   2.712  0.00  0.00    +0.044 C 
ATOM      5  C   UNL     1      -9.578  -0.869   2.657  0.00  0.00    +0.015 A 
ATOM      6  C   UNL     1      -8.292  -1.312   2.632  0.00  0.00    +0.066 A 
ATOM      7  N   UNL     1      -7.369  -0.355   2.588  0.00  0.00    -0.229 NA
ATOM      8  C   UNL     1      -7.689   0.920   2.570  0.00  0.00    +0.165 A 
ATOM      9  S   UNL     1      -9.380   0.890   2.611  0.00  0.00    -0.057 S 
ATOM     10  N   UNL     1      -6.845   2.021   2.524  0.00  0.00    -0.261 N 
ATOM     11  C   UNL     1      -7.361   3.266   2.513  0.00  0.00    +0.250 C 
ATOM     12  O   UNL     1      -8.566   3.425   2.543  0.00  0.00    -0.270 OA
ATOM     13  H   UNL     1      -5.883   1.895   2.500  0.00  0.00    +0.157 HD
ENDROOT
BRANCH   1  20
ATOM     14  C   UNL     1      -2.549  -2.722   0.012  0.00  0.00    +0.059 A 
ATOM     15  C   UNL     1      -2.991  -3.588  -0.933  0.00  0.00    +0.072 A 
ATOM     16  S   UNL     1      -4.679  -3.827  -0.401  0.00  0.00    -0.060 S 
ATOM     17  C   UNL     1      -4.644  -2.817   0.944  0.00  0.00    +0.165 A 
ATOM     18  N   UNL     1      -3.410  -2.360   0.945  0.00  0.00    -0.229 NA
ATOM     19  N   UNL     1      -5.669  -2.536   1.841  0.00  0.00    -0.264 N 
ATOM     20  C   UNL     1      -6.879  -3.108   1.681  0.00  0.00    +0.228 C 
ATOM     21  O   UNL     1      -7.074  -3.867   0.756  0.00  0.00    -0.275 OA
ATOM     22  H   UNL     1      -5.513  -1.929   2.580  0.00  0.00    +0.157 HD
BRANCH  14  23
ATOM     23  C   UNL     1      -1.135  -2.201   0.001  0.00  0.00    +0.151 C 
BRANCH  23  26
ATOM     24  C   UNL     1      -0.018   1.461   0.010  0.00  0.00    +0.128 C 
ATOM     25  N   UNL     1       0.002  -0.004   0.002  0.00  0.00    -0.318 N 
ATOM     26  C   UNL     1      -1.156  -0.694   0.009  0.00  0.00    +0.219 C 
ATOM     27  O   UNL     1      -2.214  -0.102   0.023  0.00  0.00    -0.275 OA
ATOM     28  H   UNL     1       0.849  -0.478  -0.009  0.00  0.00    +0.148 HD
ENDBRANCH  23  26
ENDBRANCH  14  23
ENDBRANCH   1  20
BRANCH  11  29
ATOM     29  C   UNL     1      -6.462   4.438   2.464  0.00  0.00    +0.037 A 
ATOM     30  C   UNL     1      -5.078   4.259   2.424  0.00  0.00    +0.014 A 
ATOM     31  C   UNL     1      -4.245   5.356   2.378  0.00  0.00    +0.021 A 
ATOM     32  C   UNL     1      -4.778   6.635   2.373  0.00  0.00    +0.041 A 
ATOM     33  C   UNL     1      -6.150   6.819   2.413  0.00  0.00    +0.021 A 
ATOM     34  C   UNL     1      -6.994   5.729   2.452  0.00  0.00    +0.014 A 
ATOM     35 CL   UNL     1      -3.722   8.012   2.317  0.00  0.00    -0.084 Cl
ENDBRANCH  11  29
TORSDOF 4
