REMARK  Name = ZINC67000490
REMARK  7 active torsions:
REMARK  status: ('A' for Active; 'I' for Inactive)
REMARK    1  A    between atoms: C_10  and  C_11
REMARK    2  A    between atoms: C_10  and  O_28
REMARK    3  A    between atoms: C_11  and  N_12
REMARK    4  A    between atoms: C_13  and  C_15
REMARK    5  A    between atoms: N_17  and  C_18
REMARK    6  A    between atoms: C_23  and  C_24
REMARK    7  A    between atoms: C_24  and  C_25
REMARK                            x       y       z     vdW  Elec       q    Type
REMARK                         _______ _______ _______ _____ _____    ______ ____
ROOT
ATOM      1  N   UNL     1       4.853   1.438   0.462  0.00  0.00    -0.305 N 
ATOM      2  C   UNL     1       5.722   2.247   1.100  0.00  0.00    +0.299 C 
ATOM      3  O   UNL     1       6.389   1.817   2.019  0.00  0.00    -0.265 OA
ATOM      4  H   UNL     1       4.320   1.782  -0.273  0.00  0.00    +0.149 HD
ENDROOT
BRANCH   2   5
ATOM      5  C   UNL     1       5.865   3.672   0.677  0.00  0.00    +0.303 C 
ATOM      6  O   UNL     1       5.198   4.102  -0.242  0.00  0.00    -0.265 OA
ATOM      7  N   UNL     1       6.734   4.481   1.315  0.00  0.00    -0.277 N 
ATOM      8  H   UNL     1       7.313   4.122   2.005  0.00  0.00    +0.155 HD
BRANCH   7   9
ATOM      9  C   UNL     1       6.801   5.836   0.982  0.00  0.00    +0.037 A 
ATOM     10  C   UNL     1       6.601   6.241  -0.332  0.00  0.00    +0.023 A 
ATOM     11  C   UNL     1       6.668   7.581  -0.658  0.00  0.00    +0.002 A 
ATOM     12  C   UNL     1       6.933   8.520   0.323  0.00  0.00    +0.000 A 
ATOM     13  C   UNL     1       7.132   8.121   1.631  0.00  0.00    +0.006 A 
ATOM     14  C   UNL     1       7.061   6.782   1.965  0.00  0.00    -0.017 A 
BRANCH  14  15
ATOM     15  C   UNL     1       7.271   6.349   3.393  0.00  0.00    +0.132 C 
BRANCH  15  16
ATOM     16  C   UNL     1       8.713   5.957   3.592  0.00  0.00    +0.215 C 
ATOM     17  O   UNL     1       9.492   6.024   2.666  0.00  0.00    -0.276 OA
ATOM     18  N   UNL     1       9.135   5.533   4.799  0.00  0.00    -0.329 N 
ATOM     19  H   UNL     1       8.511   5.480   5.540  0.00  0.00    +0.145 HD
ATOM     20  H   UNL     1      10.063   5.282   4.928  0.00  0.00    +0.145 HD
ENDBRANCH  15  16
ENDBRANCH  14  15
ENDBRANCH   7   9
ENDBRANCH   2   5
BRANCH   1  21
ATOM     21  C   UNL     1       4.713   0.040   0.877  0.00  0.00    +0.144 C 
BRANCH  21  31
ATOM     22  C   UNL     1       3.612  -4.802   1.063  0.00  0.00    +0.000 A 
ATOM     23  C   UNL     1       3.608  -3.802   2.017  0.00  0.00    +0.000 A 
ATOM     24  C   UNL     1       3.661  -2.480   1.624  0.00  0.00    +0.007 A 
ATOM     25  C   UNL     1       3.718  -2.146   0.277  0.00  0.00    -0.011 A 
ATOM     26  C   UNL     1       3.726  -3.142  -0.673  0.00  0.00    -0.041 A 
ATOM     27  C   UNL     1       3.670  -4.472  -0.275  0.00  0.00    +0.004 A 
ATOM     28  C   UNL     1       3.803  -2.854  -2.149  0.00  0.00    +0.035 C 
ATOM     29  C   UNL     1       3.428  -1.401  -2.433  0.00  0.00    +0.008 C 
ATOM     30  C   UNL     1       4.259  -0.498  -1.514  0.00  0.00    +0.041 C 
ATOM     31  C   UNL     1       3.765  -0.684  -0.081  0.00  0.00    +0.107 C 
BRANCH  31  32
ATOM     32  O   UNL     1       2.455  -0.126   0.042  0.00  0.00    -0.382 OA
ATOM     33  H   UNL     1       2.082  -0.192   0.932  0.00  0.00    +0.211 HD
ENDBRANCH  31  32
ENDBRANCH  21  31
ENDBRANCH   1  21
TORSDOF 7
