REMARK  Name = ZINC02998007
REMARK  8 active torsions:
REMARK  status: ('A' for Active; 'I' for Inactive)
REMARK    1  A    between atoms: C_1  and  C_2
REMARK    2  A    between atoms: C_5  and  S_8
REMARK    3  A    between atoms: S_8  and  N_11
REMARK    4  A    between atoms: N_11  and  C_12
REMARK    5  A    between atoms: C_12  and  C_13
REMARK    6  A    between atoms: C_13  and  C_14
REMARK    7  A    between atoms: C_14  and  O_16
REMARK    8  A    between atoms: O_16  and  C_17
REMARK                            x       y       z     vdW  Elec       q    Type
REMARK                         _______ _______ _______ _____ _____    ______ ____
ROOT
ATOM      1  C   UNL     1       1.399   3.494  -0.036  0.00  0.00    +0.314 C 
ATOM      2  O   UNL     1       0.344   4.081  -0.062  0.00  0.00    -0.250 OA
ENDROOT
BRANCH   1   3
ATOM      3  C   UNL     1       1.424   1.987  -0.045  0.00  0.00    +0.138 C 
BRANCH   3   4
ATOM      4  C   UNL     1      -0.009   1.454  -0.088  0.00  0.00    +0.117 C 
BRANCH   4   5
ATOM      5  N   UNL     1       0.015  -0.011  -0.097  0.00  0.00    -0.189 NA
ATOM      6  H   UNL     1       0.840  -0.481  -0.295  0.00  0.00    +0.148 HD
BRANCH   5   7
ATOM      7  S   UNL     1      -1.367  -0.863   0.230  0.00  0.00    +0.058 S 
ATOM      8  O   UNL     1      -1.030  -2.240   0.120  0.00  0.00    -0.153 OA
ATOM      9  O   UNL     1      -1.916  -0.306   1.417  0.00  0.00    -0.153 OA
BRANCH   7  14
ATOM     10  C   UNL     1      -5.285   0.316  -4.203  0.00  0.00    +0.044 C 
ATOM     11  C   UNL     1      -4.307   0.021  -3.096  0.00  0.00    -0.050 A 
ATOM     12  C   UNL     1      -3.432  -1.042  -3.212  0.00  0.00    +0.005 A 
ATOM     13  C   UNL     1      -2.534  -1.313  -2.196  0.00  0.00    +0.029 A 
ATOM     14  C   UNL     1      -2.511  -0.519  -1.064  0.00  0.00    +0.105 A 
ATOM     15  C   UNL     1      -3.389   0.542  -0.946  0.00  0.00    +0.029 A 
ATOM     16  C   UNL     1      -4.284   0.815  -1.964  0.00  0.00    +0.005 A 
ENDBRANCH   7  14
ENDBRANCH   5   7
ENDBRANCH   4   5
ENDBRANCH   3   4
ENDBRANCH   1   3
BRANCH   1  17
ATOM     17  O   UNL     1       2.551   4.184   0.000  0.00  0.00    -0.426 OA
BRANCH  17  18
ATOM     18  C   UNL     1       2.463   5.536  -0.097  0.00  0.00    +0.135 A 
ATOM     19  C   UNL     1       2.065   6.284   1.009  0.00  0.00    +0.047 A 
ATOM     20  C   UNL     1       1.971   7.643   0.928  0.00  0.00    +0.015 A 
ATOM     21  C   UNL     1       2.278   8.289  -0.275  0.00  0.00    +0.021 A 
ATOM     22  C   UNL     1       2.679   7.540  -1.395  0.00  0.00    +0.143 A 
ATOM     23  C   UNL     1       2.775   6.160  -1.294  0.00  0.00    +0.093 A 
ATOM     24  O   UNL     1       2.970   8.172  -2.551  0.00  0.00    -0.422 OA
ATOM     25  C   UNL     1       2.888   9.505  -2.657  0.00  0.00    +0.341 A 
ATOM     26  O   UNL     1       3.158  10.030  -3.722  0.00  0.00    -0.245 OA
ATOM     27  C   UNL     1       2.495  10.325  -1.569  0.00  0.00    +0.041 A 
ATOM     28  C   UNL     1       2.183   9.751  -0.387  0.00  0.00    -0.027 A 
ATOM     29  C   UNL     1       1.738  10.536   0.816  0.00  0.00    +0.036 C 
ATOM     30  C   UNL     1       2.108  12.010   0.665  0.00  0.00    +0.005 C 
ATOM     31  C   UNL     1       1.614  12.492  -0.704  0.00  0.00    +0.005 C 
ATOM     32  C   UNL     1       2.453  11.814  -1.785  0.00  0.00    +0.042 C 
ENDBRANCH  17  18
ENDBRANCH   1  17
TORSDOF 7
