REMARK  Name = ZINC09208669
REMARK  6 active torsions:
REMARK  status: ('A' for Active; 'I' for Inactive)
REMARK    1  A    between atoms: C_1  and  C_2
REMARK    2  A    between atoms: C_2  and  C_22
REMARK    3  A    between atoms: N_5  and  C_9
REMARK    4  A    between atoms: C_9  and  N_58
REMARK    5  A    between atoms: N_12  and  C_15
REMARK    6  A    between atoms: C_20  and  O_21
REMARK                            x       y       z     vdW  Elec       q    Type
REMARK                         _______ _______ _______ _____ _____    ______ ____
ROOT
ATOM      1  C   UNL     1      -2.808   5.224  -1.036  0.00  0.00    +0.047 C 
ATOM      2  C   UNL     1      -2.368   4.770   0.357  0.00  0.00    +0.135 C 
ATOM      3  C   UNL     1      -3.364   3.787   0.941  0.00  0.00    +0.249 C 
ATOM      4  O   UNL     1      -3.671   2.703   0.494  0.00  0.00    -0.272 OA
ATOM      5  N   UNL     1      -3.838   4.370   2.060  0.00  0.00    -0.241 N 
ATOM      6  C   UNL     1      -3.285   5.572   2.262  0.00  0.00    +0.308 C 
ATOM      7  O   UNL     1      -3.554   6.289   3.206  0.00  0.00    -0.252 OA
ATOM      8  N   UNL     1      -2.399   5.898   1.304  0.00  0.00    -0.281 N 
ATOM      9  H   UNL     1      -1.882   6.717   1.247  0.00  0.00    +0.152 HD
ENDROOT
BRANCH   2  10
ATOM     10  C   UNL     1      -0.991   4.160   0.304  0.00  0.00    -0.015 A 
ATOM     11  C   UNL     1      -0.853   2.797   0.045  0.00  0.00    +0.007 A 
ATOM     12  C   UNL     1       0.376   2.214  -0.004  0.00  0.00    +0.009 A 
ATOM     13  C   UNL     1       1.525   2.997   0.198  0.00  0.00    -0.018 A 
ATOM     14  C   UNL     1       2.811   2.432   0.149  0.00  0.00    +0.008 A 
ATOM     15  C   UNL     1       3.902   3.221   0.349  0.00  0.00    +0.001 A 
ATOM     16  C   UNL     1       3.764   4.585   0.603  0.00  0.00    +0.001 A 
ATOM     17  C   UNL     1       2.535   5.167   0.658  0.00  0.00    +0.008 A 
ATOM     18  C   UNL     1       1.385   4.384   0.456  0.00  0.00    -0.018 A 
ATOM     19  C   UNL     1       0.100   4.949   0.504  0.00  0.00    +0.014 A 
ENDBRANCH   2  10
BRANCH   5  20
ATOM     20  C   UNL     1      -4.835   3.764   2.945  0.00  0.00    +0.043 C 
BRANCH  20  26
ATOM     21  C   UNL     1      -6.531   5.492   2.993  0.00  0.00    -0.057 C 
ATOM     22  C   UNL     1      -7.904   5.890   2.447  0.00  0.00    +0.087 C 
ATOM     23  N   UNL     1      -8.903   4.901   2.874  0.00  0.00    -0.331 N 
ATOM     24  C   UNL     1      -8.555   3.560   2.385  0.00  0.00    +0.087 C 
ATOM     25  C   UNL     1      -7.181   3.162   2.930  0.00  0.00    -0.057 C 
ATOM     26  N   UNL     1      -6.183   4.152   2.476  0.00  0.00    +0.392 N 
ATOM     27  H   UNL     1      -6.183   4.180   1.449  0.00  0.00    -0.079 HD
BRANCH  23  28
ATOM     28  C   UNL     1     -10.186   5.270   2.454  0.00  0.00    +0.072 A 
ATOM     29  C   UNL     1     -10.351   6.320   1.562  0.00  0.00    +0.027 A 
ATOM     30  C   UNL     1     -11.618   6.683   1.148  0.00  0.00    +0.002 A 
ATOM     31  C   UNL     1     -12.725   6.002   1.621  0.00  0.00    +0.004 A 
ATOM     32  C   UNL     1     -12.569   4.955   2.510  0.00  0.00    +0.047 A 
ATOM     33  C   UNL     1     -11.301   4.581   2.925  0.00  0.00    +0.138 A 
BRANCH  33  34
ATOM     34  O   UNL     1     -11.146   3.547   3.795  0.00  0.00    -0.505 OA
ATOM     35  H   UNL     1     -11.227   3.800   4.725  0.00  0.00    +0.292 HD
ENDBRANCH  33  34
ENDBRANCH  23  28
ENDBRANCH  20  26
ENDBRANCH   5  20
TORSDOF 5
