REMARK  Name = ZINC18939431
REMARK  14 active torsions:
REMARK  status: ('A' for Active; 'I' for Inactive)
REMARK    1  A    between atoms: C_1  and  C_2
REMARK    2  A    between atoms: C_2  and  O_3
REMARK    3  A    between atoms: O_3  and  C_4
REMARK    4  A    between atoms: C_4  and  C_6
REMARK    5  A    between atoms: C_7  and  C_29
REMARK    6  A    between atoms: C_8  and  C_25
REMARK    7  A    between atoms: C_10  and  N_11
REMARK    8  A    between atoms: C_12  and  C_14
REMARK    9  A    between atoms: C_14  and  N_54
REMARK   10  A    between atoms: C_15  and  C_16
REMARK   11  A    between atoms: C_15  and  N_54
REMARK   12  A    between atoms: C_18  and  C_19
REMARK   13  A    between atoms: C_18  and  N_54
REMARK   14  A    between atoms: N_27  and  C_28
REMARK                            x       y       z     vdW  Elec       q    Type
REMARK                         _______ _______ _______ _____ _____    ______ ____
ROOT
ATOM      1  N   UNL     1       7.422  -1.010  -3.426  0.00  0.00    -0.281 N 
ATOM      2  C   UNL     1       6.143  -0.817  -3.047  0.00  0.00    +0.201 C 
ATOM      3  O   UNL     1       5.306  -0.516  -3.871  0.00  0.00    -0.278 OA
ATOM      4  H   UNL     1       8.092  -1.251  -2.767  0.00  0.00    +0.155 HD
ENDROOT
BRANCH   1   9
ATOM      5  C   UNL     1       9.040  -1.021  -5.338  0.00  0.00    +0.091 A 
ATOM      6  C   UNL     1       9.145  -0.819  -6.706  0.00  0.00    -0.015 A 
ATOM      7  C   UNL     1       8.008  -0.481  -7.388  0.00  0.00    +0.079 A 
ATOM      8  S   UNL     1       6.774  -0.453  -6.103  0.00  0.00    -0.068 S 
ATOM      9  C   UNL     1       7.779  -0.865  -4.753  0.00  0.00    +0.087 A 
ATOM     10  C   UNL     1      10.466  -0.967  -7.417  0.00  0.00    +0.046 C 
BRANCH   7  11
ATOM     11  C   UNL     1       7.845  -0.215  -8.819  0.00  0.00    +0.251 C 
ATOM     12  O   UNL     1       8.805  -0.285  -9.565  0.00  0.00    -0.270 OA
ATOM     13  N   UNL     1       6.632   0.106  -9.311  0.00  0.00    -0.314 N 
ATOM     14  C   UNL     1       6.469   0.372 -10.742  0.00  0.00    +0.128 C 
ATOM     15  H   UNL     1       5.867   0.162  -8.716  0.00  0.00    +0.149 HD
ENDBRANCH   7  11
BRANCH   5  16
ATOM     16  C   UNL     1      10.211  -1.386  -4.533  0.00  0.00    +0.342 C 
ATOM     17  O   UNL     1      10.493  -2.557  -4.365  0.00  0.00    -0.245 OA
BRANCH  16  18
ATOM     18  O   UNL     1      10.974  -0.422  -3.978  0.00  0.00    -0.461 OA
BRANCH  18  20
ATOM     19  C   UNL     1      12.856   0.368  -2.650  0.00  0.00    +0.048 C 
ATOM     20  C   UNL     1      12.117  -0.856  -3.194  0.00  0.00    +0.229 C 
ENDBRANCH  18  20
ENDBRANCH  16  18
ENDBRANCH   5  16
ENDBRANCH   1   9
BRANCH   2  21
ATOM     21  C   UNL     1       5.754  -0.975  -1.600  0.00  0.00    +0.020 C 
BRANCH  21  22
ATOM     22  N   UNL     1       4.334  -0.595  -1.446  0.00  0.00    +0.391 N 
ATOM     23  H   UNL     1       3.791  -1.021  -2.206  0.00  0.00    -0.080 HD
BRANCH  22  24
ATOM     24  C   UNL     1       4.194   0.875  -1.522  0.00  0.00    -0.051 C 
BRANCH  24  25
ATOM     25  C   UNL     1       4.930   1.535  -0.385  0.00  0.00    -0.053 C 
ATOM     26  C   UNL     1       5.842   2.442  -0.633  0.00  0.00    +0.002 C 
ENDBRANCH  24  25
ENDBRANCH  22  24
BRANCH  22  27
ATOM     27  C   UNL     1       3.817  -1.086  -0.152  0.00  0.00    -0.034 C 
BRANCH  27  28
ATOM     28  C   UNL     1       2.325  -0.881  -0.115  0.00  0.00    -0.025 A 
ATOM     29  C   UNL     1       1.339  -1.714  -0.528  0.00  0.00    +0.011 A 
ATOM     30  C   UNL     1       0.022  -1.313  -0.397  0.00  0.00    +0.028 A 
ATOM     31  C   UNL     1      -0.243  -0.096   0.141  0.00  0.00    +0.078 A 
ATOM     32  S   UNL     1       1.397   0.522   0.482  0.00  0.00    -0.084 S 
ATOM     33 CL   UNL     1      -1.778   0.665   0.419  0.00  0.00    -0.076 Cl
ENDBRANCH  27  28
ENDBRANCH  22  27
ENDBRANCH  21  22
ENDBRANCH   2  21
TORSDOF 11
