REMARK  Name = ZINC06443789
REMARK  9 active torsions:
REMARK  status: ('A' for Active; 'I' for Inactive)
REMARK    1  A    between atoms: C_1  and  C_2
REMARK    2  A    between atoms: C_12  and  C_14
REMARK    3  A    between atoms: C_14  and  C_16
REMARK    4  A    between atoms: C_14  and  N_72
REMARK    5  A    between atoms: N_20  and  C_21
REMARK    6  A    between atoms: C_27  and  C_28
REMARK    7  A    between atoms: C_27  and  N_72
REMARK    8  A    between atoms: C_34  and  C_35
REMARK    9  A    between atoms: C_34  and  N_72
REMARK                            x       y       z     vdW  Elec       q    Type
REMARK                         _______ _______ _______ _____ _____    ______ ____
ROOT
ATOM      1  C   UNL     1      -0.081  -1.902   5.301  0.00  0.00    +0.040 C 
ENDROOT
BRANCH   1  13
ATOM      2  C   UNL     1       0.591   2.658   0.614  0.00  0.00    +0.046 C 
ATOM      3  C   UNL     1      -0.157   1.349   0.629  0.00  0.00    -0.026 A 
ATOM      4  C   UNL     1      -0.862   0.942  -0.482  0.00  0.00    +0.005 A 
ATOM      5  C   UNL     1      -1.549  -0.265  -0.483  0.00  0.00    +0.001 A 
ATOM      6  C   UNL     1      -1.549  -1.065   0.624  0.00  0.00    +0.010 A 
ATOM      7  C   UNL     1      -0.845  -0.669   1.766  0.00  0.00    -0.001 A 
ATOM      8  C   UNL     1      -0.141   0.550   1.768  0.00  0.00    +0.052 A 
ATOM      9  N   UNL     1       0.551   0.935   2.896  0.00  0.00    -0.322 N 
ATOM     10  H   UNL     1       1.036   1.776   2.896  0.00  0.00    +0.169 HD
ATOM     11  C   UNL     1       0.565   0.163   3.997  0.00  0.00    +0.251 A 
ATOM     12  O   UNL     1       1.188   0.536   4.976  0.00  0.00    -0.268 OA
ATOM     13  C   UNL     1      -0.123  -1.068   4.046  0.00  0.00    +0.011 A 
ATOM     14  C   UNL     1      -0.823  -1.503   2.969  0.00  0.00    +0.017 A 
ENDBRANCH   1  13
BRANCH   1  15
ATOM     15  C   UNL     1      -0.897  -1.233   6.376  0.00  0.00    +0.143 A 
ATOM     16  N   UNL     1      -0.585  -0.141   7.030  0.00  0.00    -0.115 NA
ATOM     17  N   UNL     1      -1.535   0.108   7.864  0.00  0.00    -0.023 NA
ATOM     18  N   UNL     1      -2.445  -0.796   7.759  0.00  0.00    -0.044 NA
ATOM     19  N   UNL     1      -2.091  -1.639   6.848  0.00  0.00    -0.227 N 
BRANCH  19  20
ATOM     20  C   UNL     1      -2.844  -2.817   6.412  0.00  0.00    +0.111 C 
ATOM     21  C   UNL     1      -4.205  -2.378   5.865  0.00  0.00    +0.027 C 
ATOM     22  C   UNL     1      -4.992  -3.609   5.410  0.00  0.00    +0.002 C 
ATOM     23  C   UNL     1      -5.199  -4.551   6.598  0.00  0.00    +0.000 C 
ATOM     24  C   UNL     1      -3.838  -4.989   7.144  0.00  0.00    +0.002 C 
ATOM     25  C   UNL     1      -3.051  -3.758   7.599  0.00  0.00    +0.027 C 
ENDBRANCH  19  20
ENDBRANCH   1  15
BRANCH   1  26
ATOM     26  N   UNL     1       1.323  -2.009   5.751  0.00  0.00    +0.395 N 
ATOM     27  H   UNL     1       1.773  -1.090   5.663  0.00  0.00    -0.079 HD
BRANCH  26  28
ATOM     28  C   UNL     1       2.051  -2.982   4.908  0.00  0.00    -0.041 C 
BRANCH  28  29
ATOM     29  C   UNL     1       2.449  -2.303   3.623  0.00  0.00    -0.064 A 
ATOM     30  C   UNL     1       1.706  -2.505   2.475  0.00  0.00    +0.002 A 
ATOM     31  C   UNL     1       2.068  -1.878   1.298  0.00  0.00    +0.000 A 
ATOM     32  C   UNL     1       3.180  -1.058   1.265  0.00  0.00    +0.000 A 
ATOM     33  C   UNL     1       3.927  -0.861   2.412  0.00  0.00    +0.000 A 
ATOM     34  C   UNL     1       3.561  -1.483   3.591  0.00  0.00    +0.002 A 
ENDBRANCH  28  29
ENDBRANCH  26  28
BRANCH  26  35
ATOM     35  C   UNL     1       1.369  -2.433   7.166  0.00  0.00    -0.040 C 
BRANCH  35  36
ATOM     36  C   UNL     1       2.776  -2.264   7.678  0.00  0.00    -0.046 A 
ATOM     37  C   UNL     1       3.649  -3.342   7.702  0.00  0.00    +0.005 A 
ATOM     38  C   UNL     1       4.935  -3.139   8.177  0.00  0.00    +0.020 A 
ATOM     39  C   UNL     1       5.300  -1.880   8.617  0.00  0.00    +0.111 A 
ATOM     40  N   UNL     1       4.442  -0.879   8.584  0.00  0.00    -0.263 NA
ATOM     41  C   UNL     1       3.212  -1.035   8.134  0.00  0.00    +0.112 A 
ENDBRANCH  35  36
ENDBRANCH  26  35
ENDBRANCH   1  26
TORSDOF 8
