REMARK  Name = ZINC36308132
REMARK  13 active torsions:
REMARK  status: ('A' for Active; 'I' for Inactive)
REMARK    1  A    between atoms: C_1  and  N_2
REMARK    2  A    between atoms: C_3  and  O_32
REMARK    3  A    between atoms: C_4  and  C_13
REMARK    4  A    between atoms: C_5  and  C_7
REMARK    5  A    between atoms: C_13  and  N_14
REMARK    6  A    between atoms: N_14  and  C_15
REMARK    7  A    between atoms: N_14  and  C_21
REMARK    8  A    between atoms: C_15  and  C_16
REMARK    9  A    between atoms: C_21  and  C_22
REMARK   10  A    between atoms: C_22  and  C_24
REMARK   11  A    between atoms: C_22  and  O_31
REMARK   12  A    between atoms: C_24  and  C_25
REMARK   13  A    between atoms: O_32  and  C_33
REMARK                            x       y       z     vdW  Elec       q    Type
REMARK                         _______ _______ _______ _____ _____    ______ ____
ROOT
ATOM      1  C   UNL     1      -0.417  -3.197  -1.281  0.00  0.00    -0.035 C 
ENDROOT
BRANCH   1   5
ATOM      2  C   UNL     1       0.717   1.210   0.845  0.00  0.00    +0.176 C 
ATOM      3  N   UNL     1       0.208  -0.149   0.641  0.00  0.00    -0.235 N 
ATOM      4  C   UNL     1       0.303  -0.873  -0.504  0.00  0.00    +0.221 A 
ATOM      5  C   UNL     1      -0.289  -2.075  -0.284  0.00  0.00    +0.025 A 
ATOM      6  C   UNL     1      -0.762  -2.085   1.042  0.00  0.00    +0.098 A 
ATOM      7  N   UNL     1      -0.457  -0.930   1.594  0.00  0.00    -0.168 NA
BRANCH   6   8
ATOM      8  C   UNL     1      -1.476  -3.206   1.703  0.00  0.00    +0.002 A 
ATOM      9  C   UNL     1      -2.479  -3.894   1.023  0.00  0.00    +0.010 A 
ATOM     10  C   UNL     1      -3.139  -4.936   1.643  0.00  0.00    +0.001 A 
ATOM     11  C   UNL     1      -2.808  -5.296   2.936  0.00  0.00    +0.000 A 
ATOM     12  C   UNL     1      -1.813  -4.616   3.616  0.00  0.00    +0.001 A 
ATOM     13  C   UNL     1      -1.142  -3.577   3.004  0.00  0.00    +0.010 A 
ENDBRANCH   6   8
BRANCH   4  14
ATOM     14  O   UNL     1       0.885  -0.468  -1.661  0.00  0.00    -0.438 OA
BRANCH  14  15
ATOM     15  C   UNL     1       0.130   0.243  -2.541  0.00  0.00    +0.130 A 
ATOM     16  C   UNL     1      -1.158   0.627  -2.198  0.00  0.00    +0.046 A 
ATOM     17  C   UNL     1      -1.923   1.350  -3.093  0.00  0.00    +0.004 A 
ATOM     18  C   UNL     1      -1.406   1.689  -4.330  0.00  0.00    +0.000 A 
ATOM     19  C   UNL     1      -0.122   1.307  -4.674  0.00  0.00    +0.004 A 
ATOM     20  C   UNL     1       0.649   0.589  -3.780  0.00  0.00    +0.046 A 
ENDBRANCH  14  15
ENDBRANCH   4  14
ENDBRANCH   1   5
BRANCH   1  21
ATOM     21  N   UNL     1       0.825  -3.982  -1.298  0.00  0.00    +0.389 N 
ATOM     22  H   UNL     1       1.603  -3.375  -1.511  0.00  0.00    -0.081 HD
BRANCH  21  23
ATOM     23  C   UNL     1       0.728  -5.031  -2.321  0.00  0.00    -0.003 C 
BRANCH  23  24
ATOM     24  C   UNL     1       0.514  -4.398  -3.672  0.00  0.00    +0.089 A 
ATOM     25  C   UNL     1       1.479  -4.093  -4.559  0.00  0.00    +0.042 A 
ATOM     26  C   UNL     1       0.837  -3.521  -5.681  0.00  0.00    +0.041 A 
ATOM     27  C   UNL     1      -0.481  -3.510  -5.413  0.00  0.00    +0.195 A 
ATOM     28  O   UNL     1      -0.671  -4.048  -4.197  0.00  0.00    -0.470 OA
ENDBRANCH  23  24
ENDBRANCH  21  23
BRANCH  21  29
ATOM     29  C   UNL     1       1.032  -4.599   0.019  0.00  0.00    -0.046 C 
BRANCH  29  30
ATOM     30  C   UNL     1       2.422  -5.235   0.071  0.00  0.00    +0.102 C 
BRANCH  30  31
ATOM     31  O   UNL     1       2.458  -6.372  -0.794  0.00  0.00    -0.393 OA
ATOM     32  H   UNL     1       1.820  -7.061  -0.565  0.00  0.00    +0.210 HD
ENDBRANCH  30  31
BRANCH  30  33
ATOM     33  C   UNL     1       2.729  -5.675   1.504  0.00  0.00    +0.064 C 
BRANCH  33  34
ATOM     34  C   UNL     1       4.143  -6.189   1.580  0.00  0.00    -0.045 A 
ATOM     35  C   UNL     1       4.405  -7.528   1.353  0.00  0.00    +0.004 A 
ATOM     36  C   UNL     1       5.703  -7.999   1.423  0.00  0.00    +0.000 A 
ATOM     37  C   UNL     1       6.738  -7.133   1.719  0.00  0.00    +0.000 A 
ATOM     38  C   UNL     1       6.476  -5.794   1.945  0.00  0.00    +0.000 A 
ATOM     39  C   UNL     1       5.179  -5.322   1.871  0.00  0.00    +0.004 A 
ENDBRANCH  33  34
ENDBRANCH  30  33
ENDBRANCH  29  30
ENDBRANCH  21  29
ENDBRANCH   1  21
TORSDOF 12
