REMARK  Name = ZINC39948768
REMARK  7 active torsions:
REMARK  status: ('A' for Active; 'I' for Inactive)
REMARK    1  A    between atoms: C_1  and  C_2
REMARK    2  A    between atoms: N_8  and  C_9
REMARK    3  A    between atoms: C_9  and  C_10
REMARK    4  A    between atoms: C_11  and  C_21
REMARK    5  A    between atoms: N_23  and  N_24
REMARK    6  A    between atoms: C_25  and  C_26
REMARK    7  A    between atoms: C_29  and  N_32
REMARK                            x       y       z     vdW  Elec       q    Type
REMARK                         _______ _______ _______ _____ _____    ______ ____
ROOT
ATOM      1  C   UNL     1       1.723  -0.825   2.855  0.00  0.00    +0.063 A 
ATOM      2  C   UNL     1       1.689  -0.106   4.016  0.00  0.00    +0.170 A 
ATOM      3  N   UNL     1       1.882  -0.949   5.046  0.00  0.00    -0.124 NA
ATOM      4  N   UNL     1       2.033  -2.147   4.599  0.00  0.00    -0.058 NA
ATOM      5  N   UNL     1       1.933  -2.115   3.201  0.00  0.00    -0.194 N 
ATOM      6  C   UNL     1       2.034  -3.206   2.331  0.00  0.00    +0.240 A 
ATOM      7  C   UNL     1       2.257  -4.600   2.726  0.00  0.00    +0.206 A 
ATOM      8  N   UNL     1       2.293  -5.331   1.646  0.00  0.00    -0.032 NA
ATOM      9  O   UNL     1       2.102  -4.474   0.535  0.00  0.00    -0.239 OA
ATOM     10  N   UNL     1       1.941  -3.157   1.032  0.00  0.00    -0.027 NA
ATOM     11  N   UNL     1       2.404  -5.063   4.029  0.00  0.00    -0.337 N 
ATOM     12  H   UNL     1       2.363  -4.442   4.772  0.00  0.00    +0.144 HD
ATOM     13  H   UNL     1       2.549  -6.008   4.194  0.00  0.00    +0.144 HD
ENDROOT
BRANCH   2  14
ATOM     14  C   UNL     1       1.478   1.350   4.123  0.00  0.00    +0.285 C 
ATOM     15  O   UNL     1       1.314   2.016   3.118  0.00  0.00    -0.267 OA
ATOM     16  N   UNL     1       1.466   1.942   5.333  0.00  0.00    -0.202 N 
ATOM     17  H   UNL     1       1.597   1.411   6.135  0.00  0.00    +0.178 HD
BRANCH  16  18
ATOM     18  N   UNL     1       1.265   3.325   5.435  0.00  0.00    -0.187 NA
ATOM     19  C   UNL     1       1.371   3.914   6.586  0.00  0.00    +0.138 C 
BRANCH  19  20
ATOM     20  C   UNL     1       2.141   3.278   7.671  0.00  0.00    -0.005 A 
ATOM     21  C   UNL     1       2.027   3.748   8.982  0.00  0.00    +0.012 A 
ATOM     22  C   UNL     1       2.750   3.148   9.992  0.00  0.00    +0.033 A 
ATOM     23  C   UNL     1       3.587   2.083   9.709  0.00  0.00    +0.126 A 
ATOM     24  C   UNL     1       3.704   1.611   8.414  0.00  0.00    +0.033 A 
ATOM     25  C   UNL     1       2.983   2.198   7.395  0.00  0.00    +0.012 A 
BRANCH  23  26
ATOM     26  N   UNL     1       4.360   1.445  10.798  0.00  0.00    +0.056 N 
ATOM     27  O   UNL     1       4.260   1.855  11.931  0.00  0.00    -0.126 OA
ATOM     28  O   UNL     1       5.092   0.514  10.555  0.00  0.00    -0.126 OA
ENDBRANCH  23  26
ENDBRANCH  19  20
ENDBRANCH  16  18
ENDBRANCH   2  14
BRANCH   1  29
ATOM     29  C   UNL     1       1.553  -0.285   1.459  0.00  0.00    -0.019 C 
BRANCH  29  36
ATOM     30  C   UNL     1       0.513   1.749  -0.174  0.00  0.00    -0.013 C 
ATOM     31  C   UNL     1      -0.049   0.327  -0.216  0.00  0.00    -0.071 C 
ATOM     32  C   UNL     1      -1.539   0.378  -0.562  0.00  0.00    -0.016 C 
ATOM     33  C   UNL     1      -2.097  -1.047  -0.604  0.00  0.00    -0.003 C 
ATOM     34  C   UNL     1      -1.838  -1.726   0.745  0.00  0.00    -0.019 C 
ATOM     35  C   UNL     1      -0.337  -1.699   1.043  0.00  0.00    -0.078 C 
ATOM     36  N   UNL     1       0.130  -0.308   1.095  0.00  0.00    +0.385 N 
ATOM     37  H   UNL     1      -0.401   0.198   1.788  0.00  0.00    -0.081 HD
ENDBRANCH  29  36
ENDBRANCH   1  29
TORSDOF 6
