REMARK  Name = ZINC19499748
REMARK  13 active torsions:
REMARK  status: ('A' for Active; 'I' for Inactive)
REMARK    1  A    between atoms: C_1  and  C_2
REMARK    2  A    between atoms: C_2  and  C_3
REMARK    3  A    between atoms: C_3  and  C_4
REMARK    4  A    between atoms: C_3  and  C_5
REMARK    5  A    between atoms: C_3  and  N_6
REMARK    6  A    between atoms: C_7  and  C_11
REMARK    7  A    between atoms: C_11  and  N_12
REMARK    8  A    between atoms: N_12  and  C_13
REMARK    9  A    between atoms: N_12  and  C_21
REMARK   10  A    between atoms: C_13  and  C_14
REMARK   11  A    between atoms: C_21  and  C_22
REMARK   12  A    between atoms: C_26  and  C_35
REMARK   13  A    between atoms: C_28  and  C_34
REMARK                            x       y       z     vdW  Elec       q    Type
REMARK                         _______ _______ _______ _____ _____    ______ ____
ROOT
ATOM      1  N   UNL     1      -0.656   7.848  -0.807  0.00  0.00    -0.287 NA
ENDROOT
BRANCH   1   2
ATOM      2  C   UNL     1      -1.033   9.240  -1.085  0.00  0.00    +0.163 C 
BRANCH   2   4
ATOM      3  N   UNL     1      -1.793  10.405  -3.223  0.00  0.00    -0.222 N 
ATOM      4  C   UNL     1      -1.091   9.456  -2.575  0.00  0.00    +0.166 A 
ATOM      5  N   UNL     1      -0.474   8.753  -3.493  0.00  0.00    -0.112 NA
ATOM      6  N   UNL     1      -0.776   9.248  -4.643  0.00  0.00    -0.023 NA
ATOM      7  N   UNL     1      -1.570  10.248  -4.484  0.00  0.00    -0.043 NA
BRANCH   3   8
ATOM      8  C   UNL     1      -2.646  11.427  -2.610  0.00  0.00    +0.061 C 
ATOM      9  C   UNL     1      -3.861  10.757  -1.965  0.00  0.00    +0.036 C 
ATOM     10  C   UNL     1      -1.852  12.180  -1.541  0.00  0.00    +0.036 C 
BRANCH   8  12
ATOM     11  C   UNL     1      -4.006  13.477  -3.045  0.00  0.00    +0.006 C 
ATOM     12  C   UNL     1      -3.116  12.410  -3.684  0.00  0.00    +0.026 C 
ENDBRANCH   8  12
ENDBRANCH   3   8
ENDBRANCH   2   4
ENDBRANCH   1   2
BRANCH   1  13
ATOM     13  C   UNL     1      -1.789   6.940  -1.030  0.00  0.00    +0.121 C 
BRANCH  13  14
ATOM     14  C   UNL     1      -2.041   6.805  -2.509  0.00  0.00    -0.015 A 
ATOM     15  C   UNL     1      -3.146   7.407  -3.080  0.00  0.00    +0.006 A 
ATOM     16  C   UNL     1      -3.375   7.287  -4.438  0.00  0.00    +0.000 A 
ATOM     17  C   UNL     1      -2.503   6.557  -5.225  0.00  0.00    +0.001 A 
ATOM     18  C   UNL     1      -1.400   5.950  -4.654  0.00  0.00    +0.020 A 
ATOM     19  C   UNL     1      -1.168   6.074  -3.296  0.00  0.00    +0.045 A 
ATOM     20 CL   UNL     1       0.216   5.312  -2.578  0.00  0.00    -0.083 Cl
ENDBRANCH  13  14
ENDBRANCH   1  13
BRANCH   1  21
ATOM     21  C   UNL     1      -0.130   7.707   0.558  0.00  0.00    +0.125 C 
BRANCH  21  22
ATOM     22  C   UNL     1       0.470   6.335   0.726  0.00  0.00    +0.031 A 
ATOM     23  C   UNL     1       1.801   6.153   0.541  0.00  0.00    +0.020 A 
ATOM     24  C   UNL     1       2.353   4.808   0.712  0.00  0.00    -0.001 A 
ATOM     25  C   UNL     1       3.718   4.558   0.535  0.00  0.00    +0.013 A 
ATOM     26  C   UNL     1       4.202   3.292   0.703  0.00  0.00    -0.050 A 
ATOM     27  C   UNL     1       3.351   2.250   1.048  0.00  0.00    +0.008 A 
ATOM     28  C   UNL     1       2.002   2.472   1.222  0.00  0.00    -0.026 A 
ATOM     29  C   UNL     1       1.488   3.755   1.062  0.00  0.00    +0.052 A 
ATOM     30  N   UNL     1       0.143   4.006   1.236  0.00  0.00    -0.322 N 
ATOM     31  H   UNL     1      -0.538   3.188   1.510  0.00  0.00    +0.169 HD
ATOM     32  C   UNL     1      -0.354   5.245   1.077  0.00  0.00    +0.254 A 
ATOM     33  O   UNL     1      -1.548   5.431   1.238  0.00  0.00    -0.268 OA
ATOM     34  C   UNL     1       1.089   1.331   1.590  0.00  0.00    +0.046 C 
ATOM     35  C   UNL     1       5.673   3.023   0.512  0.00  0.00    +0.044 C 
ENDBRANCH  21  22
ENDBRANCH   1  21
TORSDOF 8
