REMARK  Name = ZINC21366615
REMARK  12 active torsions:
REMARK  status: ('A' for Active; 'I' for Inactive)
REMARK    1  A    between atoms: C_1  and  C_2
REMARK    2  A    between atoms: C_5  and  C_9
REMARK    3  A    between atoms: C_7  and  C_8
REMARK    4  A    between atoms: C_9  and  C_11
REMARK    5  A    between atoms: C_9  and  N_12
REMARK    6  A    between atoms: C_13  and  C_15
REMARK    7  A    between atoms: C_15  and  O_16
REMARK    8  A    between atoms: O_16  and  C_17
REMARK    9  A    between atoms: C_17  and  C_19
REMARK   10  A    between atoms: C_22  and  S_25
REMARK   11  A    between atoms: S_25  and  N_28
REMARK   12  A    between atoms: C_31  and  C_34
REMARK                            x       y       z     vdW  Elec       q    Type
REMARK                         _______ _______ _______ _____ _____    ______ ____
ROOT
ATOM      1  C   UNL     1       1.250  -2.159  -0.021  0.00  0.00    +0.340 C 
ATOM      2  O   UNL     1       0.210  -2.787  -0.014  0.00  0.00    -0.245 OA
ENDROOT
BRANCH   1   3
ATOM      3  C   UNL     1       1.222  -0.682  -0.013  0.00  0.00    +0.059 A 
ATOM      4  C   UNL     1       0.002  -0.004   0.002  0.00  0.00    +0.017 A 
ATOM      5  C   UNL     1      -0.017   1.375   0.010  0.00  0.00    +0.029 A 
ATOM      6  C   UNL     1       1.170   2.086   0.002  0.00  0.00    +0.106 A 
ATOM      7  C   UNL     1       2.383   1.421  -0.013  0.00  0.00    +0.029 A 
ATOM      8  C   UNL     1       2.416   0.042  -0.021  0.00  0.00    +0.017 A 
BRANCH   6   9
ATOM      9  S   UNL     1       1.137   3.848   0.012  0.00  0.00    +0.061 S 
ATOM     10  O   UNL     1       2.369   4.281  -0.548  0.00  0.00    -0.153 OA
ATOM     11  O   UNL     1      -0.121   4.234  -0.525  0.00  0.00    -0.153 OA
BRANCH   9  12
ATOM     12  N   UNL     1       1.143   4.329   1.597  0.00  0.00    -0.177 NA
ATOM     13  C   UNL     1      -0.118   4.529   2.323  0.00  0.00    +0.110 C 
ATOM     14  C   UNL     1      -0.125   5.929   2.934  0.00  0.00    +0.020 C 
ATOM     15  C   UNL     1       1.130   6.115   3.790  0.00  0.00    -0.012 C 
ATOM     16  C   UNL     1       2.375   5.975   2.910  0.00  0.00    +0.020 C 
ATOM     17  C   UNL     1       2.410   4.570   2.301  0.00  0.00    +0.110 C 
ATOM     18  C   UNL     1       1.110   7.505   4.428  0.00  0.00    +0.007 C 
ENDBRANCH   9  12
ENDBRANCH   6   9
ENDBRANCH   1   3
BRANCH   1  19
ATOM     19  O   UNL     1       2.429  -2.811  -0.036  0.00  0.00    -0.452 OA
BRANCH  19  20
ATOM     20  C   UNL     1       2.381  -4.262  -0.043  0.00  0.00    +0.328 C 
BRANCH  20  22
ATOM     21  N   UNL     1       3.985  -6.144  -0.068  0.00  0.00    -0.306 N 
ATOM     22  C   UNL     1       3.784  -4.812  -0.059  0.00  0.00    +0.251 C 
ATOM     23  O   UNL     1       4.731  -4.055  -0.065  0.00  0.00    -0.272 OA
ATOM     24  H   UNL     1       3.126  -6.830  -0.063  0.00  0.00    +0.149 HD
BRANCH  21  25
ATOM     25  C   UNL     1       5.349  -6.678  -0.084  0.00  0.00    +0.100 C 
ATOM     26  C   UNL     1       5.856  -6.740  -1.526  0.00  0.00    +0.033 C 
BRANCH  25  31
ATOM     27  C   UNL     1       5.364 -11.990   2.192  0.00  0.00    +0.044 C 
ATOM     28  C   UNL     1       5.360 -10.605   1.599  0.00  0.00    -0.048 A 
ATOM     29  C   UNL     1       4.327 -10.211   0.768  0.00  0.00    +0.004 A 
ATOM     30  C   UNL     1       4.322  -8.940   0.227  0.00  0.00    +0.006 A 
ATOM     31  C   UNL     1       5.353  -8.064   0.510  0.00  0.00    -0.027 A 
ATOM     32  C   UNL     1       6.385  -8.456   1.341  0.00  0.00    +0.009 A 
ATOM     33  C   UNL     1       6.389  -9.727   1.885  0.00  0.00    -0.047 A 
ATOM     34  C   UNL     1       7.514 -10.156   2.791  0.00  0.00    +0.044 C 
ENDBRANCH  25  31
ENDBRANCH  21  25
ENDBRANCH  20  22
ENDBRANCH  19  20
ENDBRANCH   1  19
TORSDOF 8
