REMARK  Name = ZINC63437496
REMARK  6 active torsions:
REMARK  status: ('A' for Active; 'I' for Inactive)
REMARK    1  A    between atoms: C_1  and  C_2
REMARK    2  A    between atoms: C_4  and  S_12
REMARK    3  A    between atoms: S_12  and  C_13
REMARK    4  A    between atoms: C_13  and  C_14
REMARK    5  A    between atoms: C_14  and  N_15
REMARK    6  A    between atoms: C_16  and  C_18
REMARK                            x       y       z     vdW  Elec       q    Type
REMARK                         _______ _______ _______ _____ _____    ______ ____
ROOT
ATOM      1  C   UNL     1      -3.974  -1.340  -0.510  0.00  0.00    +0.093 C 
ENDROOT
BRANCH   1   2
ATOM      2  S   UNL     1      -2.607  -0.295  -1.087  0.00  0.00    -0.125 S 
BRANCH   2   5
ATOM      3  C   UNL     1       0.005   1.499  -0.001  0.00  0.00    +0.036 C 
ATOM      4  C   UNL     1       0.013  -0.031  -0.019  0.00  0.00    +0.113 C 
ATOM      5  C   UNL     1      -1.403  -0.561   0.025  0.00  0.00    +0.016 C 
ATOM      6  C   UNL     1      -1.486  -1.317   1.190  0.00  0.00    +0.009 A 
ATOM      7  C   UNL     1      -2.539  -2.055   1.773  0.00  0.00    +0.011 A 
ATOM      8  C   UNL     1      -2.334  -2.712   2.944  0.00  0.00    +0.001 A 
ATOM      9  C   UNL     1      -1.099  -2.678   3.593  0.00  0.00    +0.002 A 
ATOM     10  C   UNL     1      -0.044  -1.989   3.090  0.00  0.00    +0.026 A 
ATOM     11  C   UNL     1      -0.183  -1.279   1.870  0.00  0.00    +0.044 A 
ATOM     12  N   UNL     1       0.676  -0.547   1.183  0.00  0.00    -0.377 N 
ATOM     13  H   UNL     1       1.598  -0.377   1.434  0.00  0.00    +0.160 HD
ENDBRANCH   2   5
ENDBRANCH   1   2
BRANCH   1  14
ATOM     14  C   UNL     1      -5.112  -1.300  -1.533  0.00  0.00    +0.115 C 
BRANCH  14  15
ATOM     15  N   UNL     1      -6.215  -2.144  -1.067  0.00  0.00    -0.311 N 
ATOM     16  C   UNL     1      -7.333  -2.263  -1.812  0.00  0.00    +0.246 C 
ATOM     17  O   UNL     1      -7.425  -1.670  -2.869  0.00  0.00    -0.270 OA
ATOM     18  H   UNL     1      -6.142  -2.617  -0.224  0.00  0.00    +0.149 HD
BRANCH  16  19
ATOM     19  C   UNL     1      -8.446  -3.113  -1.343  0.00  0.00    +0.055 A 
ATOM     20  C   UNL     1      -8.346  -3.791  -0.126  0.00  0.00    +0.016 A 
ATOM     21  C   UNL     1      -9.387  -4.582   0.307  0.00  0.00    +0.021 A 
ATOM     22  C   UNL     1     -10.533  -4.708  -0.463  0.00  0.00    +0.042 A 
ATOM     23  C   UNL     1     -10.639  -4.040  -1.670  0.00  0.00    +0.040 A 
ATOM     24  C   UNL     1      -9.605  -3.238  -2.112  0.00  0.00    +0.054 A 
ATOM     25 CL   UNL     1      -9.743  -2.394  -3.623  0.00  0.00    -0.083 Cl
ATOM     26 CL   UNL     1     -11.840  -5.708   0.090  0.00  0.00    -0.083 Cl
ENDBRANCH  16  19
ENDBRANCH  14  15
ENDBRANCH   1  14
TORSDOF 5
