REMARK  Name = ZINC13500761
REMARK  15 active torsions:
REMARK  status: ('A' for Active; 'I' for Inactive)
REMARK    1  A    between atoms: C_1  and  C_2
REMARK    2  A    between atoms: C_2  and  C_3
REMARK    3  A    between atoms: C_3  and  C_4
REMARK    4  A    between atoms: C_4  and  C_6
REMARK    5  A    between atoms: C_4  and  N_74
REMARK    6  A    between atoms: N_10  and  C_11
REMARK    7  A    between atoms: C_11  and  C_12
REMARK    8  A    between atoms: C_11  and  C_13
REMARK    9  A    between atoms: C_11  and  C_14
REMARK   10  A    between atoms: C_15  and  C_16
REMARK   11  A    between atoms: C_15  and  N_74
REMARK   12  A    between atoms: C_16  and  C_17
REMARK   13  A    between atoms: C_21  and  C_23
REMARK   14  A    between atoms: C_24  and  C_25
REMARK   15  A    between atoms: C_24  and  N_74
REMARK                            x       y       z     vdW  Elec       q    Type
REMARK                         _______ _______ _______ _____ _____    ______ ____
ROOT
ATOM      1  N   UNL     1      -3.834   0.827   0.833  0.00  0.00    +0.389 N 
ATOM      2  H   UNL     1      -3.624  -0.118   0.490  0.00  0.00    -0.080 HD
ENDROOT
BRANCH   1   3
ATOM      3  C   UNL     1      -4.994   1.361   0.089  0.00  0.00    +0.003 C 
BRANCH   3   4
ATOM      4  C   UNL     1      -4.999   0.755  -1.291  0.00  0.00    +0.139 A 
ATOM      5  N   UNL     1      -3.951   0.422  -2.003  0.00  0.00    -0.115 NA
ATOM      6  N   UNL     1      -4.367  -0.064  -3.121  0.00  0.00    -0.023 NA
ATOM      7  N   UNL     1      -5.654  -0.042  -3.144  0.00  0.00    -0.043 NA
ATOM      8  N   UNL     1      -6.082   0.456  -2.033  0.00  0.00    -0.226 N 
BRANCH   8   9
ATOM      9  C   UNL     1      -7.481   0.658  -1.652  0.00  0.00    +0.059 C 
ATOM     10  C   UNL     1      -7.680   2.101  -1.185  0.00  0.00    +0.036 C 
ATOM     11  C   UNL     1      -8.383   0.383  -2.857  0.00  0.00    +0.036 C 
ATOM     12  C   UNL     1      -7.843  -0.300  -0.515  0.00  0.00    +0.036 C 
ENDBRANCH   8   9
ENDBRANCH   3   4
BRANCH   3  13
ATOM     13  C   UNL     1      -4.901   2.884  -0.023  0.00  0.00    -0.008 C 
BRANCH  13  15
ATOM     14  C   UNL     1      -5.066   5.031   1.244  0.00  0.00    +0.004 C 
ATOM     15  C   UNL     1      -5.033   3.506   1.368  0.00  0.00    -0.005 C 
ENDBRANCH  13  15
ENDBRANCH   3  13
ENDBRANCH   1   3
BRANCH   1  16
ATOM     16  C   UNL     1      -2.654   1.690   0.616  0.00  0.00    -0.073 C 
BRANCH  16  17
ATOM     17  C   UNL     1      -2.194   1.541  -0.835  0.00  0.00    +0.016 C 
BRANCH  17  18
ATOM     18  C   UNL     1      -0.898   2.285  -1.031  0.00  0.00    -0.049 A 
ATOM     19  C   UNL     1       0.307   1.641  -0.825  0.00  0.00    +0.003 A 
ATOM     20  C   UNL     1       1.495   2.322  -1.010  0.00  0.00    +0.001 A 
ATOM     21  C   UNL     1       1.478   3.650  -1.395  0.00  0.00    +0.003 A 
ATOM     22  C   UNL     1       0.273   4.296  -1.595  0.00  0.00    -0.050 A 
ATOM     23  C   UNL     1      -0.916   3.614  -1.411  0.00  0.00    +0.007 A 
ATOM     24  C   UNL     1       0.255   5.743  -2.016  0.00  0.00    +0.044 C 
ENDBRANCH  17  18
ENDBRANCH  16  17
ENDBRANCH   1  16
BRANCH   1  25
ATOM     25  C   UNL     1      -4.149   0.754   2.275  0.00  0.00    -0.037 C 
BRANCH  25  26
ATOM     26  C   UNL     1      -5.069  -0.416   2.511  0.00  0.00    +0.001 A 
ATOM     27  C   UNL     1      -4.549  -1.637   2.797  0.00  0.00    +0.017 A 
ATOM     28  C   UNL     1      -5.468  -2.753   3.022  0.00  0.00    +0.002 A 
ATOM     29  C   UNL     1      -4.989  -4.034   3.322  0.00  0.00    +0.059 A 
ATOM     30  C   UNL     1      -5.879  -5.065   3.529  0.00  0.00    +0.167 A 
ATOM     31  C   UNL     1      -7.258  -4.835   3.441  0.00  0.00    +0.168 A 
ATOM     32  C   UNL     1      -7.739  -3.573   3.145  0.00  0.00    +0.075 A 
ATOM     33  C   UNL     1      -6.855  -2.523   2.934  0.00  0.00    +0.053 A 
ATOM     34  N   UNL     1      -7.318  -1.257   2.639  0.00  0.00    -0.322 N 
ATOM     35  H   UNL     1      -8.273  -1.099   2.578  0.00  0.00    +0.169 HD
ATOM     36  C   UNL     1      -6.465  -0.237   2.440  0.00  0.00    +0.251 A 
ATOM     37  O   UNL     1      -6.910   0.869   2.187  0.00  0.00    -0.268 OA
ATOM     38  O   UNL     1      -7.908  -6.009   3.687  0.00  0.00    -0.453 OA
ATOM     39  C   UNL     1      -6.941  -6.859   4.329  0.00  0.00    +0.466 C 
ATOM     40  O   UNL     1      -5.677  -6.382   3.831  0.00  0.00    -0.453 OA
ENDBRANCH  25  26
ENDBRANCH   1  25
TORSDOF 10
