REMARK  Name = ZINC51687244
REMARK  12 active torsions:
REMARK  status: ('A' for Active; 'I' for Inactive)
REMARK    1  A    between atoms: C_1  and  C_2
REMARK    2  A    between atoms: C_2  and  C_3
REMARK    3  A    between atoms: C_3  and  C_4
REMARK    4  A    between atoms: C_3  and  C_6
REMARK    5  A    between atoms: C_3  and  N_25
REMARK    6  A    between atoms: C_4  and  C_5
REMARK    7  A    between atoms: C_6  and  N_7
REMARK    8  A    between atoms: C_13  and  N_16
REMARK    9  A    between atoms: C_17  and  C_19
REMARK   10  A    between atoms: C_20  and  C_24
REMARK   11  A    between atoms: N_25  and  C_26
REMARK   12  A    between atoms: N_25  and  C_27
REMARK                            x       y       z     vdW  Elec       q    Type
REMARK                         _______ _______ _______ _____ _____    ______ ____
ROOT
ATOM      1  N   UNL     1      -3.671  -0.508   1.145  0.00  0.00    -0.301 N 
ATOM      2  C   UNL     1      -4.614  -0.164   2.043  0.00  0.00    +0.302 C 
ATOM      3  O   UNL     1      -4.365   0.660   2.901  0.00  0.00    -0.253 OA
ATOM      4  N   UNL     1      -5.835  -0.733   1.990  0.00  0.00    -0.286 N 
ATOM      5  C   UNL     1      -6.913  -0.276   2.877  0.00  0.00    +0.111 C 
ATOM      6  C   UNL     1      -7.478  -1.485   3.630  0.00  0.00    +0.041 C 
ATOM      7  C   UNL     1      -7.904  -2.555   2.623  0.00  0.00    +0.076 C 
ATOM      8  C   UNL     1      -6.686  -3.014   1.817  0.00  0.00    +0.041 C 
ATOM      9  C   UNL     1      -6.114  -1.819   1.040  0.00  0.00    +0.111 C 
ATOM     10  H   UNL     1      -3.892  -1.107   0.414  0.00  0.00    +0.150 HD
ENDROOT
BRANCH   7  11
ATOM     11  N   UNL     1      -8.475  -3.699   3.338  0.00  0.00    -0.308 N 
ATOM     12  C   UNL     1      -9.352  -4.513   2.717  0.00  0.00    +0.253 C 
ATOM     13  O   UNL     1      -9.669  -4.298   1.562  0.00  0.00    -0.270 OA
ATOM     14  H   UNL     1      -8.222  -3.871   4.259  0.00  0.00    +0.149 HD
BRANCH  12  15
ATOM     15  C   UNL     1      -9.923  -5.658   3.433  0.00  0.00    +0.096 A 
ATOM     16  C   UNL     1     -10.819  -6.610   3.000  0.00  0.00    +0.058 A 
ATOM     17  N   UNL     1     -11.161  -7.531   3.866  0.00  0.00    -0.252 NA
ATOM     18  C   UNL     1     -10.672  -7.545   5.085  0.00  0.00    +0.156 A 
ATOM     19  S   UNL     1      -9.645  -6.212   5.109  0.00  0.00    -0.071 S 
ATOM     20  C   UNL     1     -11.379  -6.592   1.601  0.00  0.00    +0.067 C 
ENDBRANCH  12  15
ENDBRANCH   7  11
BRANCH   1  21
ATOM     21  C   UNL     1      -2.310   0.021   1.272  0.00  0.00    +0.094 C 
BRANCH  21  22
ATOM     22  C   UNL     1      -1.487  -0.389   0.049  0.00  0.00    -0.051 C 
BRANCH  22  23
ATOM     23  N   UNL     1      -1.576  -1.844  -0.136  0.00  0.00    +0.381 N 
ATOM     24  C   UNL     1      -0.688  -2.253  -1.232  0.00  0.00    -0.096 C 
ATOM     25  C   UNL     1      -1.171  -2.521   1.103  0.00  0.00    -0.096 C 
ATOM     26  H   UNL     1      -2.527  -2.097  -0.361  0.00  0.00    -0.082 HD
ENDBRANCH  22  23
BRANCH  22  28
ATOM     27  C   UNL     1      -3.440  -0.201  -1.498  0.00  0.00    +0.002 C 
ATOM     28  C   UNL     1      -2.033   0.317  -1.194  0.00  0.00    -0.014 C 
ENDBRANCH  22  28
BRANCH  22  29
ATOM     29  C   UNL     1      -0.025   0.009   0.262  0.00  0.00    -0.014 C 
ATOM     30  C   UNL     1       0.054   1.503   0.584  0.00  0.00    +0.002 C 
ENDBRANCH  22  29
ENDBRANCH  21  22
ENDBRANCH   1  21
TORSDOF 7
