REMARK  Name = ZINC59889848
REMARK  11 active torsions:
REMARK  status: ('A' for Active; 'I' for Inactive)
REMARK    1  A    between atoms: C_1  and  C_2
REMARK    2  A    between atoms: C_2  and  C_3
REMARK    3  A    between atoms: C_3  and  C_4
REMARK    4  A    between atoms: C_4  and  C_31
REMARK    5  A    between atoms: N_5  and  N_6
REMARK    6  A    between atoms: C_9  and  S_12
REMARK    7  A    between atoms: S_12  and  C_13
REMARK    8  A    between atoms: C_13  and  C_14
REMARK    9  A    between atoms: C_20  and  S_22
REMARK   10  A    between atoms: S_22  and  C_23
REMARK   11  A    between atoms: C_23  and  C_24
REMARK                            x       y       z     vdW  Elec       q    Type
REMARK                         _______ _______ _______ _____ _____    ______ ____
ROOT
ATOM      1  C   UNL     1      -4.821  -6.656   7.591  0.00  0.00    +0.229 C 
ATOM      2  O   UNL     1      -5.071  -5.585   8.102  0.00  0.00    -0.275 OA
ATOM      3  N   UNL     1      -5.103  -7.798   8.248  0.00  0.00    -0.263 N 
ATOM      4  C   UNL     1      -5.683  -7.748   9.514  0.00  0.00    +0.189 A 
ATOM      5  N   UNL     1      -6.041  -6.705  10.245  0.00  0.00    -0.125 NA
ATOM      6  N   UNL     1      -6.561  -6.836  11.386  0.00  0.00    -0.133 NA
ATOM      7  C   UNL     1      -6.781  -8.027  11.924  0.00  0.00    +0.160 A 
ATOM      8  S   UNL     1      -6.165  -9.078  10.612  0.00  0.00    -0.024 S 
ATOM      9  H   UNL     1      -4.903  -8.655   7.840  0.00  0.00    +0.157 HD
ENDROOT
BRANCH   1  10
ATOM     10  C   UNL     1      -4.193  -6.710   6.222  0.00  0.00    +0.173 C 
BRANCH  10  11
ATOM     11  S   UNL     1      -3.938  -5.022   5.607  0.00  0.00    -0.075 S 
BRANCH  11  15
ATOM     12  N   UNL     1      -1.844  -4.093   1.002  0.00  0.00    -0.205 N 
ATOM     13  C   UNL     1      -2.331  -4.798   2.089  0.00  0.00    +0.232 A 
ATOM     14  N   UNL     1      -2.841  -4.275   3.184  0.00  0.00    -0.186 NA
ATOM     15  C   UNL     1      -3.208  -5.253   4.020  0.00  0.00    +0.211 A 
ATOM     16  N   UNL     1      -2.936  -6.410   3.467  0.00  0.00    -0.144 NA
ATOM     17  N   UNL     1      -2.371  -6.141   2.211  0.00  0.00    -0.245 N 
ATOM     18  H   UNL     1      -1.490  -4.569   0.235  0.00  0.00    +0.177 HD
ATOM     19  H   UNL     1      -2.067  -6.792   1.559  0.00  0.00    +0.192 HD
BRANCH  12  21
ATOM     20  C   UNL     1      -1.413  -2.041   0.005  0.00  0.00    +0.034 C 
ATOM     21  N   UNL     1      -1.863  -2.692   1.010  0.00  0.00    -0.189 NA
ATOM     22  C   UNL     1      -0.863  -2.780  -1.188  0.00  0.00    +0.062 C 
BRANCH  20  23
ATOM     23  C   UNL     1      -1.433  -0.534   0.013  0.00  0.00    +0.052 C 
BRANCH  23  25
ATOM     24  C   UNL     1      -0.019   1.526   0.010  0.00  0.00    +0.004 C 
ATOM     25  C   UNL     1       0.002  -0.004   0.002  0.00  0.00    +0.002 C 
ENDBRANCH  23  25
ENDBRANCH  20  23
ENDBRANCH  12  21
ENDBRANCH  11  15
ENDBRANCH  10  11
ENDBRANCH   1  10
BRANCH   7  26
ATOM     26  S   UNL     1      -7.484  -8.454  13.482  0.00  0.00    -0.092 S 
BRANCH  26  27
ATOM     27  C   UNL     1      -7.868  -6.853  14.244  0.00  0.00    +0.111 C 
BRANCH  27  28
ATOM     28  C   UNL     1      -8.484  -7.078  15.601  0.00  0.00    -0.037 A 
ATOM     29  C   UNL     1      -9.854  -7.210  15.725  0.00  0.00    +0.006 A 
ATOM     30  C   UNL     1     -10.419  -7.416  16.969  0.00  0.00    +0.020 A 
ATOM     31  C   UNL     1      -9.613  -7.489  18.091  0.00  0.00    +0.041 A 
ATOM     32  C   UNL     1      -8.242  -7.357  17.967  0.00  0.00    +0.020 A 
ATOM     33  C   UNL     1      -7.677  -7.157  16.721  0.00  0.00    +0.006 A 
ATOM     34 CL   UNL     1     -10.323  -7.747  19.654  0.00  0.00    -0.084 Cl
ENDBRANCH  27  28
ENDBRANCH  26  27
ENDBRANCH   7  26
TORSDOF 9
