REMARK  Name = ZINC61021585
REMARK  9 active torsions:
REMARK  status: ('A' for Active; 'I' for Inactive)
REMARK    1  A    between atoms: C_1  and  C_2
REMARK    2  A    between atoms: C_6  and  N_9
REMARK    3  A    between atoms: C_7  and  C_8
REMARK    4  A    between atoms: C_10  and  C_12
REMARK    5  A    between atoms: C_12  and  N_13
REMARK    6  A    between atoms: C_16  and  N_19
REMARK    7  A    between atoms: C_20  and  C_22
REMARK    8  A    between atoms: C_22  and  C_23
REMARK    9  A    between atoms: C_22  and  C_24
REMARK                            x       y       z     vdW  Elec       q    Type
REMARK                         _______ _______ _______ _____ _____    ______ ____
ROOT
ATOM      1  N   UNL     1       1.472  -5.609   4.456  0.00  0.00    +0.385 N 
ATOM      2  C   UNL     1       1.841  -6.526   3.371  0.00  0.00    -0.076 C 
ATOM      3  C   UNL     1       1.290  -7.922   3.668  0.00  0.00    +0.003 C 
ATOM      4  C   UNL     1       1.879  -8.427   4.989  0.00  0.00    +0.069 C 
ATOM      5  C   UNL     1       1.552  -7.424   6.099  0.00  0.00    +0.003 C 
ATOM      6  C   UNL     1       2.093  -6.047   5.711  0.00  0.00    -0.076 C 
ATOM      7  H   UNL     1       0.469  -5.603   4.562  0.00  0.00    -0.081 HD
ENDROOT
BRANCH   4   8
ATOM      8  N   UNL     1       1.298  -9.730   5.318  0.00  0.00    -0.312 N 
ATOM      9  C   UNL     1       1.974 -10.591   6.105  0.00  0.00    +0.216 C 
ATOM     10  O   UNL     1       3.064 -10.285   6.540  0.00  0.00    -0.276 OA
ATOM     11  H   UNL     1       0.426  -9.975   4.970  0.00  0.00    +0.149 HD
BRANCH   9  12
ATOM     12  C   UNL     1       1.376 -11.931   6.444  0.00  0.00    +0.069 C 
ATOM     13  C   UNL     1       1.133 -12.722   5.156  0.00  0.00    +0.017 C 
ATOM     14  C   UNL     1       2.340 -12.707   7.344  0.00  0.00    +0.017 C 
ENDBRANCH   9  12
ENDBRANCH   4   8
BRANCH   1  15
ATOM     15  C   UNL     1       1.936  -4.254   4.128  0.00  0.00    +0.019 C 
BRANCH  15  17
ATOM     16  N   UNL     1       1.471  -2.526   2.420  0.00  0.00    -0.314 N 
ATOM     17  C   UNL     1       1.207  -3.754   2.907  0.00  0.00    +0.197 C 
ATOM     18  O   UNL     1       0.382  -4.458   2.364  0.00  0.00    -0.278 OA
ATOM     19  H   UNL     1       2.131  -1.963   2.855  0.00  0.00    +0.149 HD
BRANCH  16  25
ATOM     20  C   UNL     1      -0.019   1.526   0.010  0.00  0.00    +0.008 C 
ATOM     21  C   UNL     1       0.002  -0.004   0.002  0.00  0.00    -0.009 C 
ATOM     22  C   UNL     1       0.718  -0.497  -1.257  0.00  0.00    +0.003 C 
ATOM     23  C   UNL     1       0.739  -2.027  -1.265  0.00  0.00    +0.002 C 
ATOM     24  C   UNL     1       1.479  -2.534  -0.026  0.00  0.00    +0.022 C 
ATOM     25  C   UNL     1       0.763  -2.041   1.233  0.00  0.00    +0.076 C 
ATOM     26  C   UNL     1       0.742  -0.511   1.242  0.00  0.00    +0.009 C 
ATOM     27  C   UNL     1       0.026  -0.018   2.500  0.00  0.00    +0.009 C 
ENDBRANCH  16  25
ENDBRANCH  15  17
ENDBRANCH   1  15
TORSDOF 5
