REMARK  Name = ZINC36601890
REMARK  12 active torsions:
REMARK  status: ('A' for Active; 'I' for Inactive)
REMARK    1  A    between atoms: C_1  and  C_2
REMARK    2  A    between atoms: C_5  and  S_8
REMARK    3  A    between atoms: S_8  and  C_11
REMARK    4  A    between atoms: C_11  and  N_12
REMARK    5  A    between atoms: C_13  and  C_15
REMARK    6  A    between atoms: C_15  and  C_17
REMARK    7  A    between atoms: C_15  and  N_26
REMARK    8  A    between atoms: N_26  and  C_27
REMARK    9  A    between atoms: C_27  and  C_28
REMARK   10  A    between atoms: C_31  and  C_33
REMARK   11  A    between atoms: C_34  and  C_36
REMARK   12  A    between atoms: C_36  and  C_38
REMARK                            x       y       z     vdW  Elec       q    Type
REMARK                         _______ _______ _______ _____ _____    ______ ____
ROOT
ATOM      1  C   UNL     1       2.441  -6.562   1.539  0.00  0.00    +0.193 C 
ENDROOT
BRANCH   1   2
ATOM      2  C   UNL     1       2.579  -5.268   0.780  0.00  0.00    -0.014 A 
ATOM      3  C   UNL     1       3.823  -4.860   0.333  0.00  0.00    +0.010 A 
ATOM      4  C   UNL     1       3.954  -3.674  -0.364  0.00  0.00    +0.050 A 
ATOM      5  C   UNL     1       2.840  -2.890  -0.616  0.00  0.00    +0.166 A 
ATOM      6  C   UNL     1       1.588  -3.301  -0.166  0.00  0.00    +0.167 A 
ATOM      7  C   UNL     1       1.462  -4.494   0.527  0.00  0.00    +0.055 A 
ATOM      8  O   UNL     1       0.663  -2.367  -0.535  0.00  0.00    -0.453 OA
ATOM      9  C   UNL     1       1.419  -1.185  -0.859  0.00  0.00    +0.466 C 
ATOM     10  O   UNL     1       2.700  -1.699  -1.268  0.00  0.00    -0.453 OA
ENDBRANCH   1   2
BRANCH   1  12
ATOM     11  N   UNL     1       1.231  -8.103   0.029  0.00  0.00    -0.294 N 
ATOM     12  C   UNL     1       2.404  -7.713   0.567  0.00  0.00    +0.239 C 
ATOM     13  O   UNL     1       3.429  -8.289   0.269  0.00  0.00    -0.273 OA
ATOM     14  H   UNL     1       0.411  -7.643   0.268  0.00  0.00    +0.150 HD
BRANCH  11  15
ATOM     15  C   UNL     1       1.195  -9.222  -0.916  0.00  0.00    +0.278 C 
BRANCH  15  16
ATOM     16  S   UNL     1       0.800 -10.753  -0.026  0.00  0.00    +0.013 S 
ATOM     17  O   UNL     1       1.602 -10.861   1.142  0.00  0.00    -0.168 OA
ATOM     18  O   UNL     1       0.699 -11.837  -0.939  0.00  0.00    -0.168 OA
BRANCH  16  23
ATOM     19  C   UNL     1      -4.814  -9.947   2.033  0.00  0.00    +0.044 C 
ATOM     20  C   UNL     1      -3.412 -10.148   1.519  0.00  0.00    -0.050 A 
ATOM     21  C   UNL     1      -3.207 -10.713   0.274  0.00  0.00    +0.005 A 
ATOM     22  C   UNL     1      -1.920 -10.897  -0.198  0.00  0.00    +0.027 A 
ATOM     23  C   UNL     1      -0.839 -10.517   0.575  0.00  0.00    +0.090 A 
ATOM     24  C   UNL     1      -1.044  -9.951   1.819  0.00  0.00    +0.027 A 
ATOM     25  C   UNL     1      -2.331  -9.763   2.289  0.00  0.00    +0.005 A 
ENDBRANCH  16  23
ENDBRANCH  15  16
ENDBRANCH  11  15
ENDBRANCH   1  12
BRANCH   1  26
ATOM     26  N   UNL     1       3.583  -6.723   2.443  0.00  0.00    -0.275 N 
ATOM     27  C   UNL     1       4.279  -5.642   2.848  0.00  0.00    +0.243 C 
ATOM     28  O   UNL     1       3.834  -4.527   2.659  0.00  0.00    -0.270 OA
BRANCH  27  29
ATOM     29  C   UNL     1       5.577  -5.813   3.520  0.00  0.00    +0.004 C 
ATOM     30  C   UNL     1       6.568  -4.960   3.277  0.00  0.00    +0.017 C 
ATOM     31  C   UNL     1       5.783  -6.954   4.483  0.00  0.00    +0.048 C 
ENDBRANCH  27  29
BRANCH  26  32
ATOM     32  C   UNL     1       3.969  -8.059   2.906  0.00  0.00    +0.183 C 
BRANCH  32  33
ATOM     33  C   UNL     1       5.227  -8.491   2.199  0.00  0.00    +0.122 A 
ATOM     34  C   UNL     1       6.015  -9.522   2.555  0.00  0.00    +0.046 A 
ATOM     35  C   UNL     1       7.077  -9.567   1.622  0.00  0.00    +0.045 A 
ATOM     36  C   UNL     1       6.874  -8.562   0.752  0.00  0.00    +0.102 A 
ATOM     37  O   UNL     1       5.749  -7.917   1.102  0.00  0.00    -0.463 OA
ATOM     38  C   UNL     1       7.756  -8.220  -0.421  0.00  0.00    +0.086 C 
ENDBRANCH  32  33
ENDBRANCH  26  32
ENDBRANCH   1  26
TORSDOF 9
