REMARK  Name = ZINC37033723
REMARK  3 active torsions:
REMARK  status: ('A' for Active; 'I' for Inactive)
REMARK    1  A    between atoms: C_3  and  C_8
REMARK    2  A    between atoms: C_5  and  N_7
REMARK    3  A    between atoms: N_10  and  C_11
REMARK                            x       y       z     vdW  Elec       q    Type
REMARK                         _______ _______ _______ _____ _____    ______ ____
ROOT
ATOM      1  C   UNL     1       3.656   2.172  -0.023  0.00  0.00    +0.244 C 
ATOM      2  O   UNL     1       4.718   1.581  -0.036  0.00  0.00    -0.270 OA
ATOM      3  N   UNL     1       3.635   3.519  -0.016  0.00  0.00    -0.308 N 
ATOM      4  H   UNL     1       2.787   3.991  -0.005  0.00  0.00    +0.149 HD
ENDROOT
BRANCH   3   5
ATOM      5  C   UNL     1       4.892   4.272  -0.025  0.00  0.00    +0.077 C 
ATOM      6  C   UNL     1       5.371   4.488  -1.485  0.00  0.00    +0.026 C 
ATOM      7  C   UNL     1       5.689   6.041  -1.506  0.00  0.00    -0.006 C 
ATOM      8  C   UNL     1       4.373   6.494  -0.742  0.00  0.00    +0.009 C 
ATOM      9  C   UNL     1       4.673   5.673   0.582  0.00  0.00    +0.013 C 
ATOM     10  C   UNL     1       5.987   6.359   0.924  0.00  0.00    -0.003 C 
ATOM     11  C   UNL     1       6.753   6.087  -0.452  0.00  0.00    -0.004 C 
ATOM     12  C   UNL     1       8.112   6.610  -0.278  0.00  0.00    +0.004 C 
ATOM     13  C   UNL     1       8.415   6.293   1.226  0.00  0.00    +0.001 C 
ATOM     14  C   UNL     1       7.014   5.740   1.865  0.00  0.00    +0.004 C 
ENDBRANCH   3   5
BRANCH   1  17
ATOM     15  C   UNL     1      -0.017   1.378   0.010  0.00  0.00    +0.003 A 
ATOM     16  C   UNL     1       1.166   2.089   0.002  0.00  0.00    +0.013 A 
ATOM     17  C   UNL     1       2.387   1.412  -0.014  0.00  0.00    +0.038 A 
ATOM     18  C   UNL     1       2.406   0.018  -0.021  0.00  0.00    +0.035 A 
ATOM     19  C   UNL     1       1.213  -0.687  -0.013  0.00  0.00    +0.025 A 
ATOM     20  C   UNL     1       0.002  -0.004   0.002  0.00  0.00    +0.023 A 
BRANCH  19  21
ATOM     21  N   UNL     1       1.226  -2.084  -0.021  0.00  0.00    -0.358 N 
ATOM     22  H   UNL     1       2.071  -2.561  -0.033  0.00  0.00    +0.142 HD
ATOM     23  H   UNL     1       0.391  -2.578  -0.016  0.00  0.00    +0.142 HD
ENDBRANCH  19  21
ENDBRANCH   1  17
TORSDOF 3
