REMARK  Name = ZINC60304052
REMARK  7 active torsions:
REMARK  status: ('A' for Active; 'I' for Inactive)
REMARK    1  A    between atoms: C_1  and  C_2
REMARK    2  A    between atoms: C_2  and  C_3
REMARK    3  A    between atoms: C_2  and  C_4
REMARK    4  A    between atoms: C_2  and  C_5
REMARK    5  A    between atoms: C_11  and  C_14
REMARK    6  A    between atoms: N_16  and  C_17
REMARK    7  A    between atoms: C_20  and  N_23
REMARK                            x       y       z     vdW  Elec       q    Type
REMARK                         _______ _______ _______ _____ _____    ______ ____
ROOT
ATOM      1  C   UNL     1       2.906  -3.935  -3.849  0.00  0.00    +0.222 C 
ATOM      2  O   UNL     1       2.417  -3.581  -4.901  0.00  0.00    -0.275 OA
ATOM      3  N   UNL     1       3.876  -4.871  -3.837  0.00  0.00    -0.285 N 
ATOM      4  H   UNL     1       4.212  -5.211  -2.993  0.00  0.00    +0.155 HD
ENDROOT
BRANCH   1  11
ATOM      5  C   UNL     1       0.735  -0.494  -1.304  0.00  0.00    +0.221 C 
ATOM      6  O   UNL     1       1.219   0.300  -2.082  0.00  0.00    -0.275 OA
ATOM      7  N   UNL     1       0.789  -1.815  -1.568  0.00  0.00    -0.300 N 
ATOM      8  C   UNL     1       0.307  -2.795  -0.586  0.00  0.00    +0.108 C 
ATOM      9  C   UNL     1       1.419  -3.815  -0.321  0.00  0.00    +0.020 C 
ATOM     10  C   UNL     1       1.871  -4.427  -1.649  0.00  0.00    +0.016 C 
ATOM     11  C   UNL     1       2.430  -3.327  -2.554  0.00  0.00    +0.093 C 
ATOM     12  C   UNL     1       1.325  -2.301  -2.847  0.00  0.00    +0.120 C 
BRANCH   5  14
ATOM     13  C   UNL     1      -0.013   1.522  -0.070  0.00  0.00    +0.020 C 
ATOM     14  C   UNL     1       0.072  -0.005  -0.041  0.00  0.00    +0.039 C 
ATOM     15  C   UNL     1       0.895  -0.448   1.170  0.00  0.00    +0.020 C 
ATOM     16  C   UNL     1      -1.337  -0.593   0.057  0.00  0.00    +0.020 C 
ENDBRANCH   5  14
ENDBRANCH   1  11
BRANCH   3  17
ATOM     17  C   UNL     1       4.399  -5.352  -5.045  0.00  0.00    +0.034 A 
ATOM     18  C   UNL     1       4.788  -6.681  -5.152  0.00  0.00    +0.025 A 
ATOM     19  C   UNL     1       5.303  -7.156  -6.342  0.00  0.00    +0.025 A 
ATOM     20  C   UNL     1       5.433  -6.304  -7.431  0.00  0.00    +0.030 A 
ATOM     21  C   UNL     1       5.045  -4.975  -7.323  0.00  0.00    +0.025 A 
ATOM     22  C   UNL     1       4.525  -4.502  -6.135  0.00  0.00    +0.025 A 
BRANCH  20  23
ATOM     23  N   UNL     1       5.956  -6.784  -8.636  0.00  0.00    -0.325 N 
ATOM     24  C   UNL     1       6.210  -5.867  -9.757  0.00  0.00    +0.110 C 
ATOM     25  C   UNL     1       7.723  -5.834 -10.020  0.00  0.00    +0.061 C 
ATOM     26  C   UNL     1       8.251  -7.230  -9.954  0.00  0.00    -0.004 A 
ATOM     27  C   UNL     1       7.650  -8.328  -9.420  0.00  0.00    -0.020 A 
ATOM     28  C   UNL     1       8.363  -9.523  -9.478  0.00  0.00    +0.013 A 
ATOM     29  C   UNL     1       9.588  -9.553 -10.051  0.00  0.00    +0.046 A 
ATOM     30  S   UNL     1       9.803  -7.851 -10.549  0.00  0.00    -0.101 S 
ATOM     31  C   UNL     1       6.263  -8.212  -8.798  0.00  0.00    +0.141 C 
ENDBRANCH  20  23
ENDBRANCH   3  17
TORSDOF 4
