REMARK  Name = ZINC43224029
REMARK  17 active torsions:
REMARK  status: ('A' for Active; 'I' for Inactive)
REMARK    1  A    between atoms: C_1  and  C_2
REMARK    2  A    between atoms: C_2  and  C_3
REMARK    3  A    between atoms: C_3  and  C_4
REMARK    4  A    between atoms: C_3  and  N_6
REMARK    5  A    between atoms: C_4  and  C_5
REMARK    6  A    between atoms: C_7  and  C_29
REMARK    7  A    between atoms: C_8  and  C_26
REMARK    8  A    between atoms: C_10  and  C_11
REMARK    9  A    between atoms: C_13  and  C_22
REMARK   10  A    between atoms: C_14  and  O_21
REMARK   11  A    between atoms: C_15  and  C_17
REMARK   12  A    between atoms: C_17  and  C_18
REMARK   13  A    between atoms: C_17  and  C_19
REMARK   14  A    between atoms: C_17  and  C_20
REMARK   15  A    between atoms: C_22  and  C_23
REMARK   16  A    between atoms: C_22  and  C_24
REMARK   17  A    between atoms: C_22  and  C_25
REMARK                            x       y       z     vdW  Elec       q    Type
REMARK                         _______ _______ _______ _____ _____    ______ ____
ROOT
ATOM      1  N   UNL     1      -1.039  -3.928   1.106  0.00  0.00    -0.340 N 
ATOM      2  C   UNL     1      -0.560  -4.292  -0.101  0.00  0.00    +0.029 A 
ATOM      3  C   UNL     1      -0.854  -3.292  -1.001  0.00  0.00    +0.057 A 
ATOM      4  C   UNL     1      -1.545  -2.280  -0.285  0.00  0.00    +0.041 A 
ATOM      5  C   UNL     1      -1.648  -2.702   1.001  0.00  0.00    +0.050 A 
ATOM      6  C   UNL     1       0.171  -5.573  -0.411  0.00  0.00    +0.064 C 
ENDROOT
BRANCH   5   7
ATOM      7  C   UNL     1      -2.302  -1.964   2.103  0.00  0.00    -0.001 A 
ATOM      8  C   UNL     1      -2.270  -0.569   2.127  0.00  0.00    +0.017 A 
ATOM      9  C   UNL     1      -2.881   0.115   3.157  0.00  0.00    +0.000 A 
ATOM     10  C   UNL     1      -3.527  -0.582   4.169  0.00  0.00    +0.124 A 
ATOM     11  C   UNL     1      -3.560  -1.970   4.149  0.00  0.00    +0.000 A 
ATOM     12  C   UNL     1      -2.957  -2.661   3.120  0.00  0.00    +0.017 A 
BRANCH  11  13
ATOM     13  C   UNL     1      -4.262  -2.721   5.251  0.00  0.00    -0.009 C 
ATOM     14  C   UNL     1      -4.152  -4.226   4.992  0.00  0.00    +0.015 C 
ATOM     15  C   UNL     1      -3.610  -2.386   6.593  0.00  0.00    +0.015 C 
ATOM     16  C   UNL     1      -5.737  -2.316   5.285  0.00  0.00    +0.015 C 
ENDBRANCH  11  13
BRANCH   9  17
ATOM     17  C   UNL     1      -2.847   1.621   3.183  0.00  0.00    -0.009 C 
ATOM     18  C   UNL     1      -2.079   2.136   1.964  0.00  0.00    +0.015 C 
ATOM     19  C   UNL     1      -4.277   2.164   3.152  0.00  0.00    +0.015 C 
ATOM     20  C   UNL     1      -2.150   2.093   4.461  0.00  0.00    +0.015 C 
ENDBRANCH   9  17
BRANCH  10  21
ATOM     21  O   UNL     1      -4.128   0.096   5.182  0.00  0.00    -0.506 OA
ATOM     22  H   UNL     1      -5.053   0.317   5.012  0.00  0.00    +0.292 HD
ENDBRANCH  10  21
ENDBRANCH   5   7
BRANCH   3  23
ATOM     23  C   UNL     1      -0.514  -3.275  -2.435  0.00  0.00    +0.243 C 
ATOM     24  O   UNL     1       0.085  -4.211  -2.929  0.00  0.00    -0.270 OA
ATOM     25  N   UNL     1      -0.868  -2.223  -3.199  0.00  0.00    -0.325 N 
ATOM     26  H   UNL     1      -1.346  -1.476  -2.805  0.00  0.00    +0.145 HD
ATOM     27  H   UNL     1      -0.645  -2.212  -4.143  0.00  0.00    +0.145 HD
ENDBRANCH   3  23
BRANCH   1  28
ATOM     28  C   UNL     1      -0.932  -4.719   2.335  0.00  0.00    +0.087 C 
BRANCH  28  30
ATOM     29  C   UNL     1      -1.517  -6.897   3.410  0.00  0.00    +0.006 C 
ATOM     30  C   UNL     1      -1.515  -6.114   2.096  0.00  0.00    +0.022 C 
ENDBRANCH  28  30
BRANCH  28  31
ATOM     31  C   UNL     1       0.540  -4.843   2.735  0.00  0.00    +0.022 C 
ATOM     32  C   UNL     1       1.091  -3.460   3.085  0.00  0.00    +0.006 C 
ENDBRANCH  28  31
ENDBRANCH   1  28
TORSDOF 8
