REMARK  Name = ZINC40895413
REMARK  7 active torsions:
REMARK  status: ('A' for Active; 'I' for Inactive)
REMARK    1  A    between atoms: C_7  and  C_11
REMARK    2  A    between atoms: C_11  and  C_12
REMARK    3  A    between atoms: C_12  and  N_13
REMARK    4  A    between atoms: C_14  and  C_16
REMARK    5  A    between atoms: N_21  and  C_23
REMARK    6  A    between atoms: C_26  and  C_30
REMARK    7  A    between atoms: C_32  and  C_35
REMARK                            x       y       z     vdW  Elec       q    Type
REMARK                         _______ _______ _______ _____ _____    ______ ____
ROOT
ATOM      1  C   UNL     1      -2.123  -6.375  -2.609  0.00  0.00    +0.092 C 
ATOM      2  C   UNL     1      -3.358  -6.044  -1.768  0.00  0.00    +0.016 C 
ATOM      3  C   UNL     1      -4.295  -7.253  -1.737  0.00  0.00    +0.020 C 
ATOM      4  C   UNL     1      -4.753  -7.576  -3.163  0.00  0.00    +0.105 C 
ATOM      5  N   UNL     1      -3.567  -7.754  -4.011  0.00  0.00    -0.327 N 
ATOM      6  C   UNL     1      -2.555  -6.689  -4.044  0.00  0.00    +0.118 C 
ENDROOT
BRANCH   5   7
ATOM      7  C   UNL     1      -3.404  -8.913  -4.772  0.00  0.00    +0.065 A 
ATOM      8  C   UNL     1      -3.896  -8.966  -6.071  0.00  0.00    +0.027 A 
ATOM      9  C   UNL     1      -3.736 -10.109  -6.824  0.00  0.00    +0.013 A 
ATOM     10  C   UNL     1      -3.079 -11.214  -6.283  0.00  0.00    +0.025 A 
ATOM     11  C   UNL     1      -2.585 -11.160  -4.981  0.00  0.00    +0.052 A 
ATOM     12  C   UNL     1      -2.742 -10.012  -4.231  0.00  0.00    +0.145 A 
ATOM     13  F   UNL     1      -2.258  -9.956  -2.971  0.00  0.00    -0.204 F 
BRANCH  10  14
ATOM     14  C   UNL     1      -2.907 -12.445  -7.093  0.00  0.00    +0.203 A 
ATOM     15  N   UNL     1      -2.300 -13.570  -6.684  0.00  0.00    -0.186 NA
ATOM     16  C   UNL     1      -2.321 -14.464  -7.643  0.00  0.00    +0.277 A 
ATOM     17  O   UNL     1      -2.949 -13.928  -8.704  0.00  0.00    -0.331 OA
ATOM     18  N   UNL     1      -3.328 -12.614  -8.323  0.00  0.00    -0.056 NA
BRANCH  16  19
ATOM     19  C   UNL     1      -1.751 -15.828  -7.571  0.00  0.00    +0.128 A 
ATOM     20  C   UNL     1      -1.841 -16.674  -8.675  0.00  0.00    +0.033 A 
ATOM     21  C   UNL     1      -1.302 -17.947  -8.592  0.00  0.00    +0.004 A 
ATOM     22  C   UNL     1      -0.692 -18.332  -7.407  0.00  0.00    +0.020 A 
ATOM     23  C   UNL     1      -0.639 -17.440  -6.350  0.00  0.00    +0.111 A 
ATOM     24  N   UNL     1      -1.154 -16.233  -6.457  0.00  0.00    -0.250 NA
ENDBRANCH  16  19
ENDBRANCH  10  14
ENDBRANCH   5   7
BRANCH   1  26
ATOM     25  N   UNL     1      -0.675  -4.736  -1.452  0.00  0.00    -0.315 N 
ATOM     26  C   UNL     1      -1.186  -5.195  -2.612  0.00  0.00    +0.218 C 
ATOM     27  O   UNL     1      -0.891  -4.657  -3.659  0.00  0.00    -0.275 OA
ATOM     28  H   UNL     1      -0.911  -5.166  -0.615  0.00  0.00    +0.149 HD
BRANCH  25  29
ATOM     29  C   UNL     1       0.236  -3.589  -1.455  0.00  0.00    +0.109 C 
BRANCH  29  30
ATOM     30  C   UNL     1       0.666  -3.275  -0.021  0.00  0.00    +0.056 C 
BRANCH  30  37
ATOM     31  C   UNL     1      -0.017   1.362   0.009  0.00  0.00    +0.001 A 
ATOM     32  C   UNL     1       1.170   2.083   0.002  0.00  0.00    +0.002 A 
ATOM     33  C   UNL     1       2.386   1.436  -0.013  0.00  0.00    +0.026 A 
ATOM     34  C   UNL     1       2.428   0.046  -0.021  0.00  0.00    +0.047 A 
ATOM     35  C   UNL     1       1.223  -0.681  -0.013  0.00  0.00    +0.003 A 
ATOM     36  C   UNL     1       0.002  -0.004   0.002  0.00  0.00    +0.010 A 
ATOM     37  C   UNL     1       1.604  -2.095  -0.025  0.00  0.00    -0.021 A 
ATOM     38  C   UNL     1       2.945  -2.141  -0.038  0.00  0.00    +0.087 A 
ATOM     39  N   UNL     1       3.455  -0.871  -0.036  0.00  0.00    -0.360 N 
ATOM     40  H   UNL     1       4.399  -0.650  -0.044  0.00  0.00    +0.165 HD
ENDBRANCH  30  37
ENDBRANCH  29  30
ENDBRANCH  25  29
ENDBRANCH   1  26
TORSDOF 7
