REMARK  Name = ZINC36555807
REMARK  18 active torsions:
REMARK  status: ('A' for Active; 'I' for Inactive)
REMARK    1  A    between atoms: C_1  and  C_2
REMARK    2  A    between atoms: C_5  and  C_7
REMARK    3  A    between atoms: C_7  and  N_8
REMARK    4  A    between atoms: N_8  and  C_9
REMARK    5  A    between atoms: C_9  and  C_11
REMARK    6  A    between atoms: C_9  and  C_20
REMARK    7  A    between atoms: C_12  and  O_19
REMARK    8  A    between atoms: C_14  and  O_18
REMARK    9  A    between atoms: C_16  and  O_17
REMARK   10  A    between atoms: N_22  and  C_23
REMARK   11  A    between atoms: C_23  and  C_24
REMARK   12  A    between atoms: C_23  and  C_25
REMARK   13  A    between atoms: C_23  and  C_26
REMARK   14  A    between atoms: C_26  and  C_27
REMARK   15  A    between atoms: C_27  and  C_28
REMARK   16  A    between atoms: C_27  and  C_29
REMARK   17  A    between atoms: C_27  and  C_30
REMARK   18  A    between atoms: C_31  and  C_33
REMARK                            x       y       z     vdW  Elec       q    Type
REMARK                         _______ _______ _______ _____ _____    ______ ____
ROOT
ATOM      1  C   UNL     1       5.499  -2.753  -1.749  0.00  0.00    +0.200 C 
ENDROOT
BRANCH   1   2
ATOM      2  C   UNL     1       6.674  -2.636  -0.812  0.00  0.00    +0.065 A 
ATOM      3  C   UNL     1       7.160  -1.385  -0.463  0.00  0.00    +0.129 A 
ATOM      4  C   UNL     1       8.242  -1.277   0.398  0.00  0.00    +0.091 A 
ATOM      5  C   UNL     1       8.836  -2.420   0.911  0.00  0.00    +0.124 A 
ATOM      6  C   UNL     1       8.350  -3.671   0.562  0.00  0.00    +0.091 A 
ATOM      7  C   UNL     1       7.265  -3.779  -0.296  0.00  0.00    +0.129 A 
BRANCH   7   8
ATOM      8  O   UNL     1       6.785  -5.004  -0.634  0.00  0.00    -0.506 OA
ATOM      9  H   UNL     1       7.198  -5.385  -1.421  0.00  0.00    +0.292 HD
ENDBRANCH   7   8
BRANCH   5  10
ATOM     10  O   UNL     1       9.897  -2.314   1.754  0.00  0.00    -0.507 OA
ATOM     11  H   UNL     1       9.652  -2.261   2.688  0.00  0.00    +0.292 HD
ENDBRANCH   5  10
BRANCH   3  12
ATOM     12  O   UNL     1       6.577  -0.265  -0.966  0.00  0.00    -0.506 OA
ATOM     13  H   UNL     1       5.920   0.133  -0.379  0.00  0.00    +0.292 HD
ENDBRANCH   3  12
ENDBRANCH   1   2
BRANCH   1  14
ATOM     14  C   UNL     1       4.980  -1.377  -2.079  0.00  0.00    +0.239 C 
ATOM     15  O   UNL     1       4.056  -0.910  -1.447  0.00  0.00    -0.273 OA
ATOM     16  N   UNL     1       5.543  -0.665  -3.075  0.00  0.00    -0.308 N 
ATOM     17  H   UNL     1       6.250  -1.057  -3.611  0.00  0.00    +0.149 HD
BRANCH  16  18
ATOM     18  C   UNL     1       5.088   0.700  -3.348  0.00  0.00    +0.030 C 
ATOM     19  C   UNL     1       3.566   0.709  -3.505  0.00  0.00    +0.031 C 
ATOM     20  C   UNL     1       5.487   1.613  -2.186  0.00  0.00    +0.031 C 
BRANCH  18  21
ATOM     21  C   UNL     1       5.737   1.206  -4.638  0.00  0.00    +0.031 C 
BRANCH  21  22
ATOM     22  C   UNL     1       5.194   0.409  -5.827  0.00  0.00    -0.036 C 
ATOM     23  C   UNL     1       3.766   0.862  -6.135  0.00  0.00    +0.010 C 
ATOM     24  C   UNL     1       6.081   0.651  -7.050  0.00  0.00    +0.010 C 
ATOM     25  C   UNL     1       5.194  -1.082  -5.484  0.00  0.00    +0.010 C 
ENDBRANCH  21  22
ENDBRANCH  18  21
ENDBRANCH  16  18
ENDBRANCH   1  14
BRANCH   1  26
ATOM     26  N   UNL     1       4.438  -3.533  -1.106  0.00  0.00    -0.278 N 
ATOM     27  C   UNL     1       3.973  -3.168   0.105  0.00  0.00    +0.220 C 
ATOM     28  O   UNL     1       4.493  -2.251   0.703  0.00  0.00    -0.275 OA
BRANCH  27  29
ATOM     29  C   UNL     1       2.805  -3.901   0.715  0.00  0.00    +0.075 C 
ATOM     30  C   UNL     1       1.523  -3.531  -0.034  0.00  0.00    +0.013 C 
ATOM     31  C   UNL     1       0.338  -4.274   0.586  0.00  0.00    +0.001 C 
ATOM     32  C   UNL     1       0.202  -3.879   2.058  0.00  0.00    +0.000 C 
ATOM     33  C   UNL     1       1.484  -4.249   2.807  0.00  0.00    +0.001 C 
ATOM     34  C   UNL     1       2.669  -3.506   2.187  0.00  0.00    +0.013 C 
ENDBRANCH  27  29
BRANCH  26  35
ATOM     35  C   UNL     1       3.884  -4.710  -1.780  0.00  0.00    +0.183 C 
BRANCH  35  40
ATOM     36  C   UNL     1      -0.238  -3.413  -4.380  0.00  0.00    +0.086 C 
ATOM     37  C   UNL     1       1.201  -3.704  -4.043  0.00  0.00    +0.102 A 
ATOM     38  C   UNL     1       2.243  -3.607  -4.889  0.00  0.00    +0.045 A 
ATOM     39  C   UNL     1       3.398  -3.970  -4.161  0.00  0.00    +0.046 A 
ATOM     40  C   UNL     1       2.994  -4.268  -2.913  0.00  0.00    +0.122 A 
ATOM     41  O   UNL     1       1.663  -4.099  -2.846  0.00  0.00    -0.463 OA
ENDBRANCH  35  40
ENDBRANCH  26  35
ENDBRANCH   1  26
TORSDOF 12
