REMARK  Name = ZINC09963018
REMARK  9 active torsions:
REMARK  status: ('A' for Active; 'I' for Inactive)
REMARK    1  A    between atoms: C_4  and  N_7
REMARK    2  A    between atoms: N_7  and  S_8
REMARK    3  A    between atoms: S_8  and  C_11
REMARK    4  A    between atoms: C_14  and  C_17
REMARK    5  A    between atoms: C_17  and  O_19
REMARK    6  A    between atoms: O_19  and  C_20
REMARK    7  A    between atoms: C_20  and  C_21
REMARK    8  A    between atoms: N_23  and  C_24
REMARK    9  A    between atoms: C_25  and  C_32
REMARK                            x       y       z     vdW  Elec       q    Type
REMARK                         _______ _______ _______ _____ _____    ______ ____
ROOT
ATOM      1  C   UNL     1       2.271   3.331   0.432  0.00  0.00    +0.340 C 
ATOM      2  O   UNL     1       1.335   4.104   0.469  0.00  0.00    -0.245 OA
ENDROOT
BRANCH   1   6
ATOM      3  C   UNL     1       1.566  -0.846   0.132  0.00  0.00    +0.109 A 
ATOM      4  C   UNL     1       0.497   0.032   0.174  0.00  0.00    +0.029 A 
ATOM      5  C   UNL     1       0.719   1.390   0.272  0.00  0.00    +0.017 A 
ATOM      6  C   UNL     1       2.026   1.878   0.328  0.00  0.00    +0.059 A 
ATOM      7  C   UNL     1       3.100   0.987   0.284  0.00  0.00    +0.017 A 
ATOM      8  C   UNL     1       2.864  -0.368   0.186  0.00  0.00    +0.029 A 
BRANCH   3   9
ATOM      9  S   UNL     1       1.273  -2.579   0.007  0.00  0.00    +0.072 S 
ATOM     10  O   UNL     1       2.471  -3.223   0.416  0.00  0.00    -0.150 OA
ATOM     11  O   UNL     1       0.022  -2.825   0.634  0.00  0.00    -0.150 OA
BRANCH   9  12
ATOM     12  N   UNL     1       1.074  -2.927  -1.600  0.00  0.00    -0.216 N 
ATOM     13  H   UNL     1       0.225  -3.271  -1.920  0.00  0.00    +0.174 HD
BRANCH  12  17
ATOM     14  C   UNL     1       4.213  -2.324  -4.267  0.00  0.00    +0.000 A 
ATOM     15  C   UNL     1       4.248  -3.394  -3.392  0.00  0.00    +0.002 A 
ATOM     16  C   UNL     1       3.208  -3.597  -2.506  0.00  0.00    +0.024 A 
ATOM     17  C   UNL     1       2.127  -2.724  -2.494  0.00  0.00    +0.048 A 
ATOM     18  C   UNL     1       2.093  -1.654  -3.379  0.00  0.00    +0.024 A 
ATOM     19  C   UNL     1       3.139  -1.454  -4.259  0.00  0.00    +0.002 A 
ENDBRANCH  12  17
ENDBRANCH   9  12
ENDBRANCH   3   9
ENDBRANCH   1   6
BRANCH   1  20
ATOM     20  O   UNL     1       3.534   3.799   0.486  0.00  0.00    -0.452 OA
BRANCH  20  21
ATOM     21  C   UNL     1       3.700   5.238   0.588  0.00  0.00    +0.328 C 
BRANCH  21  22
ATOM     22  C   UNL     1       5.168   5.572   0.636  0.00  0.00    +0.255 C 
ATOM     23  O   UNL     1       5.994   4.685   0.589  0.00  0.00    -0.272 OA
ATOM     24  N   UNL     1       5.564   6.857   0.731  0.00  0.00    -0.276 N 
ATOM     25  H   UNL     1       4.904   7.566   0.769  0.00  0.00    +0.155 HD
BRANCH  24  26
ATOM     26  C   UNL     1       6.917   7.164   0.775  0.00  0.00    +0.090 A 
ATOM     27  C   UNL     1       7.513   8.410   0.865  0.00  0.00    +0.084 A 
ATOM     28  C   UNL     1       8.974   8.461   0.899  0.00  0.00    -0.018 A 
ATOM     29  C   UNL     1       9.589   7.266   0.828  0.00  0.00    -0.004 A 
ATOM     30  S   UNL     1       8.268   6.084   0.723  0.00  0.00    -0.077 S 
ATOM     31  C   UNL     1      11.087   7.401   0.865  0.00  0.00    +0.043 C 
ATOM     32  C   UNL     1      11.337   8.826   1.407  0.00  0.00    +0.010 C 
ATOM     33  C   UNL     1      10.042   9.552   0.991  0.00  0.00    +0.037 C 
BRANCH  27  34
ATOM     34  C   UNL     1       6.727   9.605   0.927  0.00  0.00    +0.102 C 
ATOM     35  N   UNL     1       6.104  10.553   0.977  0.00  0.00    -0.191 NA
ENDBRANCH  27  34
ENDBRANCH  24  26
ENDBRANCH  21  22
ENDBRANCH  20  21
ENDBRANCH   1  20
TORSDOF 9
