REMARK  Name = ZINC35547937
REMARK  8 active torsions:
REMARK  status: ('A' for Active; 'I' for Inactive)
REMARK    1  A    between atoms: C_1  and  C_2
REMARK    2  A    between atoms: C_2  and  N_3
REMARK    3  A    between atoms: N_3  and  C_4
REMARK    4  A    between atoms: C_4  and  C_6
REMARK    5  A    between atoms: C_4  and  C_14
REMARK    6  A    between atoms: C_15  and  C_22
REMARK    7  A    between atoms: C_17  and  C_21
REMARK    8  A    between atoms: C_19  and  C_20
REMARK                            x       y       z     vdW  Elec       q    Type
REMARK                         _______ _______ _______ _____ _____    ______ ____
ROOT
ATOM      1  C   UNL     1       1.122  -3.214  -2.096  0.00  0.00    -0.009 C 
ENDROOT
BRANCH   1   2
ATOM      2  C   UNL     1       0.490  -4.168  -1.116  0.00  0.00    -0.051 A 
ATOM      3  C   UNL     1       1.254  -4.738  -0.115  0.00  0.00    -0.048 A 
ATOM      4  C   UNL     1       0.674  -5.614   0.784  0.00  0.00    +0.007 A 
ATOM      5  C   UNL     1      -0.670  -5.919   0.682  0.00  0.00    -0.050 A 
ATOM      6  C   UNL     1      -1.435  -5.349  -0.318  0.00  0.00    +0.007 A 
ATOM      7  C   UNL     1      -0.856  -4.470  -1.215  0.00  0.00    -0.048 A 
ATOM      8  C   UNL     1      -1.690  -3.844  -2.302  0.00  0.00    +0.044 C 
ATOM      9  C   UNL     1      -1.302  -6.874   1.661  0.00  0.00    +0.044 C 
ATOM     10  C   UNL     1       2.720  -4.405  -0.004  0.00  0.00    +0.044 C 
ENDBRANCH   1   2
BRANCH   1  11
ATOM     11  C   UNL     1       0.877  -3.701  -3.501  0.00  0.00    -0.054 A 
ATOM     12  C   UNL     1       0.738  -2.791  -4.532  0.00  0.00    +0.022 A 
ATOM     13  C   UNL     1       0.512  -3.238  -5.822  0.00  0.00    +0.043 A 
ATOM     14  C   UNL     1       0.425  -4.594  -6.080  0.00  0.00    +0.040 A 
ATOM     15  C   UNL     1       0.565  -5.504  -5.047  0.00  0.00    +0.043 A 
ATOM     16  C   UNL     1       0.796  -5.056  -3.758  0.00  0.00    +0.022 A 
ATOM     17 CL   UNL     1       0.456  -7.206  -5.369  0.00  0.00    -0.083 Cl
ATOM     18 CL   UNL     1       0.336  -2.095  -7.118  0.00  0.00    -0.083 Cl
ENDBRANCH   1  11
BRANCH   1  19
ATOM     19  N   UNL     1       0.532  -1.879  -1.930  0.00  0.00    +0.386 N 
ATOM     20  H   UNL     1      -0.472  -1.943  -2.012  0.00  0.00    -0.085 HD
ATOM     21  H   UNL     1       0.889  -1.262  -2.644  0.00  0.00    -0.085 HD
BRANCH  19  23
ATOM     22  C   UNL     1       0.267   0.040  -0.432  0.00  0.00    -0.017 C 
ATOM     23  C   UNL     1       0.882  -1.350  -0.605  0.00  0.00    -0.085 C 
ENDBRANCH  19  23
ENDBRANCH   1  19
TORSDOF 4
