REMARK  Name = ZINC09616917
REMARK  9 active torsions:
REMARK  status: ('A' for Active; 'I' for Inactive)
REMARK    1  A    between atoms: C_1  and  C_2
REMARK    2  A    between atoms: C_2  and  C_4
REMARK    3  A    between atoms: C_2  and  N_60
REMARK    4  A    between atoms: N_6  and  C_7
REMARK    5  A    between atoms: C_8  and  C_15
REMARK    6  A    between atoms: C_18  and  N_60
REMARK    7  A    between atoms: C_19  and  C_20
REMARK    8  A    between atoms: C_19  and  N_60
REMARK    9  A    between atoms: C_25  and  N_26
REMARK                            x       y       z     vdW  Elec       q    Type
REMARK                         _______ _______ _______ _____ _____    ______ ____
ROOT
ATOM      1  C   UNL     1       4.083   6.617  -1.081  0.00  0.00    -0.004 C 
ATOM      2  C   UNL     1       3.012   6.208  -0.069  0.00  0.00    +0.016 C 
ENDROOT
BRANCH   2   3
ATOM      3  C   UNL     1       2.503   4.830  -0.405  0.00  0.00    +0.204 C 
ATOM      4  O   UNL     1       1.330   4.662  -0.660  0.00  0.00    -0.277 OA
ATOM      5  N   UNL     1       3.353   3.784  -0.421  0.00  0.00    -0.281 N 
ATOM      6  H   UNL     1       4.292   3.918  -0.216  0.00  0.00    +0.155 HD
BRANCH   5   7
ATOM      7  C   UNL     1       2.885   2.515  -0.730  0.00  0.00    +0.084 A 
ATOM      8  C   UNL     1       3.595   1.329  -0.797  0.00  0.00    +0.068 A 
ATOM      9  C   UNL     1       2.857   0.117  -1.149  0.00  0.00    -0.023 A 
ATOM     10  C   UNL     1       1.542   0.293  -1.373  0.00  0.00    -0.004 A 
ATOM     11  S   UNL     1       1.271   2.031  -1.126  0.00  0.00    -0.077 S 
ATOM     12  C   UNL     1       0.852  -0.996  -1.726  0.00  0.00    +0.043 C 
ATOM     13  C   UNL     1       1.833  -2.100  -1.273  0.00  0.00    +0.010 C 
ATOM     14  C   UNL     1       3.187  -1.364  -1.343  0.00  0.00    +0.037 C 
BRANCH   8  15
ATOM     15  C   UNL     1       5.035   1.289  -0.524  0.00  0.00    +0.244 C 
ATOM     16  O   UNL     1       5.831   1.449  -1.431  0.00  0.00    -0.270 OA
ATOM     17  N   UNL     1       5.478   1.076   0.731  0.00  0.00    -0.325 N 
ATOM     18  H   UNL     1       4.844   0.949   1.454  0.00  0.00    +0.145 HD
ATOM     19  H   UNL     1       6.431   1.050   0.911  0.00  0.00    +0.145 HD
ENDBRANCH   8  15
ENDBRANCH   5   7
ENDBRANCH   2   3
BRANCH   2  21
ATOM     20  C   UNL     1       1.310   7.219  -1.463  0.00  0.00    -0.095 C 
ATOM     21  N   UNL     1       1.879   7.157  -0.100  0.00  0.00    +0.388 N 
ATOM     22  H   UNL     1       1.154   6.832   0.550  0.00  0.00    -0.081 HD
BRANCH  21  23
ATOM     23  C   UNL     1       2.333   8.500   0.319  0.00  0.00    -0.040 C 
BRANCH  23  24
ATOM     24  C   UNL     1       1.128   9.389   0.491  0.00  0.00    -0.043 A 
ATOM     25  C   UNL     1       0.758  10.254  -0.520  0.00  0.00    +0.003 A 
ATOM     26  C   UNL     1      -0.348  11.069  -0.364  0.00  0.00    +0.000 A 
ATOM     27  C   UNL     1      -1.087  11.021   0.804  0.00  0.00    +0.002 A 
ATOM     28  C   UNL     1      -0.722  10.159   1.819  0.00  0.00    +0.023 A 
ATOM     29  C   UNL     1       0.386   9.334   1.663  0.00  0.00    +0.031 A 
BRANCH  29  30
ATOM     30  N   UNL     1       0.754   8.457   2.685  0.00  0.00    -0.330 N 
ATOM     31  C   UNL     1      -0.117   8.630   3.876  0.00  0.00    +0.105 C 
ATOM     32  C   UNL     1       0.064   7.297   4.644  0.00  0.00    +0.020 C 
ATOM     33  C   UNL     1       0.155   6.253   3.508  0.00  0.00    +0.020 C 
ATOM     34  C   UNL     1       0.584   7.050   2.263  0.00  0.00    +0.105 C 
ENDBRANCH  29  30
ENDBRANCH  23  24
ENDBRANCH  21  23
ENDBRANCH   2  21
TORSDOF 7
