REMARK  Name = ZINC42984732
REMARK  10 active torsions:
REMARK  status: ('A' for Active; 'I' for Inactive)
REMARK    1  A    between atoms: C_1  and  C_2
REMARK    2  A    between atoms: C_2  and  C_3
REMARK    3  A    between atoms: C_3  and  N_4
REMARK    4  A    between atoms: C_8  and  S_9
REMARK    5  A    between atoms: S_9  and  C_10
REMARK    6  A    between atoms: C_10  and  C_12
REMARK    7  A    between atoms: C_10  and  C_15
REMARK    8  A    between atoms: C_12  and  C_13
REMARK    9  A    between atoms: C_12  and  C_14
REMARK   10  A    between atoms: C_22  and  C_24
REMARK                            x       y       z     vdW  Elec       q    Type
REMARK                         _______ _______ _______ _____ _____    ______ ____
ROOT
ATOM      1  C   UNL     1       3.720  -3.656   0.331  0.00  0.00    +0.143 C 
ENDROOT
BRANCH   1   2
ATOM      2  C   UNL     1       4.800  -3.468   1.365  0.00  0.00    +0.229 C 
ATOM      3  O   UNL     1       5.353  -2.394   1.476  0.00  0.00    -0.274 OA
ATOM      4  N   UNL     1       5.150  -4.492   2.168  0.00  0.00    -0.298 N 
ATOM      5  C   UNL     1       4.580  -5.831   1.965  0.00  0.00    +0.108 C 
ATOM      6  C   UNL     1       5.725  -6.841   1.841  0.00  0.00    +0.019 C 
ATOM      7  C   UNL     1       6.638  -6.725   3.064  0.00  0.00    +0.003 C 
ATOM      8  C   UNL     1       7.238  -5.319   3.123  0.00  0.00    +0.022 C 
ATOM      9  C   UNL     1       6.115  -4.293   3.258  0.00  0.00    +0.073 C 
ATOM     10  C   UNL     1       6.699  -2.881   3.174  0.00  0.00    +0.028 C 
ENDBRANCH   1   2
BRANCH   1  11
ATOM     11  C   UNL     1       4.361  -3.916  -1.034  0.00  0.00    +0.005 C 
ATOM     12  C   UNL     1       5.329  -2.778  -1.367  0.00  0.00    +0.009 C 
ATOM     13  C   UNL     1       5.125  -5.241  -0.995  0.00  0.00    +0.009 C 
ENDBRANCH   1  11
BRANCH   1  14
ATOM     14  S   UNL     1       2.697  -2.161   0.244  0.00  0.00    -0.073 S 
BRANCH  14  19
ATOM     15  N   UNL     1       0.255  -1.843  -1.083  0.00  0.00    -0.271 N 
ATOM     16  C   UNL     1      -0.553  -2.536  -1.910  0.00  0.00    +0.345 A 
ATOM     17  N   UNL     1       0.023  -3.736  -2.131  0.00  0.00    -0.226 N 
ATOM     18  N   UNL     1       1.224  -3.764  -1.408  0.00  0.00    -0.145 NA
ATOM     19  C   UNL     1       1.350  -2.625  -0.792  0.00  0.00    +0.193 A 
ATOM     20  O   UNL     1      -1.611  -2.150  -2.374  0.00  0.00    -0.245 OA
ATOM     21  H   UNL     1      -0.329  -4.448  -2.688  0.00  0.00    +0.194 HD
BRANCH  15  22
ATOM     22  C   UNL     1       0.011  -0.488  -0.583  0.00  0.00    +0.129 C 
BRANCH  22  24
ATOM     23  C   UNL     1      -1.026   0.854   1.252  0.00  0.00    +0.005 C 
ATOM     24  C   UNL     1      -0.772  -0.562   0.730  0.00  0.00    +0.018 C 
ENDBRANCH  22  24
ENDBRANCH  15  22
ENDBRANCH  14  19
ENDBRANCH   1  14
TORSDOF 6
