REMARK  Name = ZINC11455679
REMARK  8 active torsions:
REMARK  status: ('A' for Active; 'I' for Inactive)
REMARK    1  A    between atoms: C_1  and  C_2
REMARK    2  A    between atoms: C_2  and  C_4
REMARK    3  A    between atoms: C_2  and  N_14
REMARK    4  A    between atoms: C_15  and  C_17
REMARK    5  A    between atoms: C_17  and  S_18
REMARK    6  A    between atoms: S_18  and  C_19
REMARK    7  A    between atoms: N_23  and  C_24
REMARK    8  A    between atoms: C_24  and  C_25
REMARK                            x       y       z     vdW  Elec       q    Type
REMARK                         _______ _______ _______ _____ _____    ______ ____
ROOT
ATOM      1  S   UNL     1       9.128   4.922   3.058  0.00  0.00    -0.077 S 
ENDROOT
BRANCH   1   2
ATOM      2  C   UNL     1      10.147   3.822   3.984  0.00  0.00    +0.193 A 
ATOM      3  N   UNL     1       9.855   2.584   4.301  0.00  0.00    -0.121 NA
ATOM      4  N   UNL     1      10.928   2.062   5.036  0.00  0.00    -0.112 NA
ATOM      5  C   UNL     1      11.839   2.998   5.144  0.00  0.00    +0.220 A 
ATOM      6  N   UNL     1      11.383   4.108   4.492  0.00  0.00    -0.288 N 
ATOM      7  N   UNL     1      13.057   2.879   5.800  0.00  0.00    -0.300 N 
ATOM      8  C   UNL     1      13.952   1.959   5.087  0.00  0.00    +0.108 C 
ATOM      9  C   UNL     1      15.329   1.965   5.755  0.00  0.00    +0.019 C 
ATOM     10  C   UNL     1      15.184   1.534   7.217  0.00  0.00    +0.003 C 
ATOM     11  C   UNL     1      14.209   2.479   7.925  0.00  0.00    +0.019 C 
ATOM     12  C   UNL     1      12.865   2.459   7.194  0.00  0.00    +0.108 C 
BRANCH   6  13
ATOM     13  C   UNL     1      12.093   5.383   4.364  0.00  0.00    +0.158 C 
BRANCH  13  14
ATOM     14  C   UNL     1      11.633   6.337   5.468  0.00  0.00    +0.138 C 
ATOM     15  C   UNL     1      12.289   7.721   5.272  0.00  0.00    +0.035 C 
ATOM     16  C   UNL     1      12.611   8.142   6.732  0.00  0.00    +0.031 C 
ATOM     17  C   UNL     1      12.947   6.769   7.367  0.00  0.00    +0.160 C 
ATOM     18  O   UNL     1      12.047   5.838   6.745  0.00  0.00    -0.375 OA
ENDBRANCH  13  14
ENDBRANCH   6  13
ENDBRANCH   1   2
BRANCH   1  19
ATOM     19  C   UNL     1       7.650   3.939   2.683  0.00  0.00    +0.173 C 
BRANCH  19  21
ATOM     20  N   UNL     1       5.505   4.247   1.489  0.00  0.00    -0.308 N 
ATOM     21  C   UNL     1       6.682   4.773   1.884  0.00  0.00    +0.224 C 
ATOM     22  O   UNL     1       6.962   5.917   1.595  0.00  0.00    -0.275 OA
ATOM     23  H   UNL     1       5.282   3.331   1.720  0.00  0.00    +0.149 HD
BRANCH  20  25
ATOM     24  C   UNL     1       4.929   4.979  -0.772  0.00  0.00    +0.033 C 
ATOM     25  C   UNL     1       4.564   5.057   0.712  0.00  0.00    +0.100 C 
BRANCH  25  26
ATOM     26  C   UNL     1       3.166   4.534   0.913  0.00  0.00    -0.027 A 
ATOM     27  C   UNL     1       2.947   3.158   0.962  0.00  0.00    +0.006 A 
ATOM     28  C   UNL     1       1.697   2.653   1.144  0.00  0.00    +0.009 A 
ATOM     29  C   UNL     1       0.606   3.529   1.282  0.00  0.00    -0.018 A 
ATOM     30  C   UNL     1      -0.700   3.045   1.470  0.00  0.00    +0.008 A 
ATOM     31  C   UNL     1      -1.732   3.923   1.595  0.00  0.00    +0.001 A 
ATOM     32  C   UNL     1      -1.513   5.299   1.552  0.00  0.00    +0.001 A 
ATOM     33  C   UNL     1      -0.262   5.804   1.371  0.00  0.00    +0.008 A 
ATOM     34  C   UNL     1       0.828   4.928   1.232  0.00  0.00    -0.018 A 
ATOM     35  C   UNL     1       2.134   5.412   1.044  0.00  0.00    +0.014 A 
ENDBRANCH  25  26
ENDBRANCH  20  25
ENDBRANCH  19  21
ENDBRANCH   1  19
TORSDOF 7
