REMARK  Name = ZINC34997521
REMARK  15 active torsions:
REMARK  status: ('A' for Active; 'I' for Inactive)
REMARK    1  A    between atoms: C_1  and  C_2
REMARK    2  A    between atoms: C_2  and  C_3
REMARK    3  A    between atoms: C_3  and  C_4
REMARK    4  A    between atoms: C_4  and  N_5
REMARK    5  A    between atoms: N_11  and  C_14
REMARK    6  A    between atoms: C_14  and  C_15
REMARK    7  A    between atoms: C_15  and  N_16
REMARK    8  A    between atoms: N_16  and  C_17
REMARK    9  A    between atoms: C_17  and  C_18
REMARK   10  A    between atoms: C_26  and  C_27
REMARK   11  A    between atoms: C_26  and  C_28
REMARK   12  A    between atoms: N_31  and  C_32
REMARK   13  A    between atoms: C_32  and  C_33
REMARK   14  A    between atoms: C_33  and  C_34
REMARK   15  A    between atoms: C_34  and  C_35
REMARK                            x       y       z     vdW  Elec       q    Type
REMARK                         _______ _______ _______ _____ _____    ______ ____
ROOT
ATOM      1  N   UNL     1       6.872  -7.197   7.051  0.00  0.00    -0.283 N 
ATOM      2  C   UNL     1       7.773  -7.730   6.202  0.00  0.00    +0.302 C 
ATOM      3  O   UNL     1       7.465  -7.947   5.046  0.00  0.00    -0.253 OA
ATOM      4  N   UNL     1       9.016  -8.021   6.635  0.00  0.00    -0.299 N 
ATOM      5  H   UNL     1       9.261  -7.847   7.557  0.00  0.00    +0.150 HD
ENDROOT
BRANCH   1   6
ATOM      6  C   UNL     1       5.521  -6.881   6.581  0.00  0.00    +0.091 C 
BRANCH   6   7
ATOM      7  C   UNL     1       5.488  -5.446   6.051  0.00  0.00    -0.059 C 
BRANCH   7  14
ATOM      8  N   UNL     1       1.102  -4.728   1.740  0.00  0.00    -0.299 N 
ATOM      9  C   UNL     1       1.615  -3.850   2.625  0.00  0.00    +0.302 C 
ATOM     10  O   UNL     1       1.569  -2.658   2.394  0.00  0.00    -0.253 OA
ATOM     11  N   UNL     1       2.177  -4.295   3.766  0.00  0.00    -0.289 N 
ATOM     12  C   UNL     1       2.635  -3.354   4.800  0.00  0.00    +0.091 C 
ATOM     13  C   UNL     1       4.074  -3.716   5.183  0.00  0.00    -0.059 C 
ATOM     14  N   UNL     1       4.133  -5.128   5.580  0.00  0.00    +0.383 N 
ATOM     15  C   UNL     1       3.803  -5.984   4.433  0.00  0.00    -0.059 C 
ATOM     16  C   UNL     1       2.346  -5.735   4.015  0.00  0.00    +0.091 C 
ATOM     17  H   UNL     1       1.202  -5.681   1.889  0.00  0.00    +0.150 HD
ATOM     18  H   UNL     1       3.473  -5.296   6.324  0.00  0.00    -0.082 HD
BRANCH   8  19
ATOM     19  C   UNL     1       0.394  -4.242   0.553  0.00  0.00    +0.106 C 
BRANCH  19  20
ATOM     20  C   UNL     1      -0.084  -5.434  -0.279  0.00  0.00    +0.018 C 
BRANCH  20  22
ATOM     21  C   UNL     1      -1.301  -6.119  -2.351  0.00  0.00    +0.004 C 
ATOM     22  C   UNL     1      -0.823  -4.927  -1.519  0.00  0.00    -0.002 C 
ENDBRANCH  20  22
ENDBRANCH  19  20
ENDBRANCH   8  19
ENDBRANCH   7  14
ENDBRANCH   6   7
ENDBRANCH   1   6
BRANCH   1  23
ATOM     23  C   UNL     1       7.242  -6.935   8.444  0.00  0.00    +0.140 C 
BRANCH  23  24
ATOM     24  C   UNL     1       6.938  -8.150   9.282  0.00  0.00    -0.053 C 
ATOM     25  C   UNL     1       7.862  -9.045   9.546  0.00  0.00    -0.025 C 
ATOM     26  C   UNL     1       7.514 -10.253  10.382  0.00  0.00    +0.031 C 
ATOM     27  C   UNL     1       6.058 -10.151  10.856  0.00  0.00    -0.000 C 
ATOM     28  C   UNL     1       5.697  -8.751  11.381  0.00  0.00    +0.012 C 
ATOM     29  C   UNL     1       5.553  -8.384   9.859  0.00  0.00    +0.022 C 
ATOM     30  C   UNL     1       5.116  -9.853   9.672  0.00  0.00    -0.025 C 
ATOM     31  C   UNL     1       3.638 -10.102   9.979  0.00  0.00    +0.012 C 
ATOM     32  C   UNL     1       5.568 -10.474   8.349  0.00  0.00    +0.012 C 
ENDBRANCH  23  24
ENDBRANCH   1  23
BRANCH   4  33
ATOM     33  C   UNL     1       9.996  -8.599   5.712  0.00  0.00    +0.106 C 
BRANCH  33  34
ATOM     34  C   UNL     1      11.316  -8.832   6.450  0.00  0.00    +0.018 C 
BRANCH  34  35
ATOM     35  C   UNL     1      12.339  -9.436   5.487  0.00  0.00    -0.002 C 
ATOM     36  C   UNL     1      13.659  -9.669   6.224  0.00  0.00    +0.004 C 
ENDBRANCH  34  35
ENDBRANCH  33  34
ENDBRANCH   4  33
TORSDOF 11
