REMARK  Name = ZINC12210415
REMARK  7 active torsions:
REMARK  status: ('A' for Active; 'I' for Inactive)
REMARK    1  A    between atoms: C_6  and  C_7
REMARK    2  A    between atoms: C_7  and  N_8
REMARK    3  A    between atoms: N_8  and  C_9
REMARK    4  A    between atoms: C_9  and  C_10
REMARK    5  A    between atoms: C_18  and  N_19
REMARK    6  A    between atoms: C_22  and  O_25
REMARK    7  A    between atoms: C_29  and  C_31
REMARK                            x       y       z     vdW  Elec       q    Type
REMARK                         _______ _______ _______ _____ _____    ______ ____
ROOT
ATOM      1  C   UNL     1       0.320   1.632  -4.543  0.00  0.00    +0.008 A 
ATOM      2  C   UNL     1       1.029   0.891  -5.440  0.00  0.00    +0.018 A 
ATOM      3  C   UNL     1       1.815  -0.174  -4.954  0.00  0.00    -0.001 A 
ATOM      4  C   UNL     1       2.566  -0.981  -5.819  0.00  0.00    +0.014 A 
ATOM      5  C   UNL     1       3.317  -2.005  -5.318  0.00  0.00    -0.043 A 
ATOM      6  C   UNL     1       3.345  -2.261  -3.948  0.00  0.00    -0.042 A 
ATOM      7  C   UNL     1       2.624  -1.492  -3.080  0.00  0.00    +0.030 A 
ATOM      8  C   UNL     1       1.843  -0.430  -3.561  0.00  0.00    +0.048 A 
ATOM      9  C   UNL     1       0.395   1.333  -3.176  0.00  0.00    +0.104 A 
ATOM     10  C   UNL     1       4.249  -3.445  -3.672  0.00  0.00    +0.036 C 
ATOM     11  C   UNL     1       4.415  -4.154  -5.033  0.00  0.00    +0.009 C 
ATOM     12  C   UNL     1       4.200  -3.003  -6.038  0.00  0.00    +0.036 C 
ATOM     13  N   UNL     1       1.133   0.323  -2.652  0.00  0.00    -0.343 N 
ATOM     14  H   UNL     1       1.160   0.131  -1.643  0.00  0.00    +0.167 HD
ENDROOT
BRANCH   9  15
ATOM     15  N   UNL     1      -0.327   2.101  -2.274  0.00  0.00    -0.316 N 
ATOM     16  C   UNL     1       0.373   2.197  -0.986  0.00  0.00    +0.109 C 
ATOM     17  C   UNL     1      -0.376   3.166  -0.069  0.00  0.00    +0.050 C 
ATOM     18  C   UNL     1      -1.806   2.659   0.143  0.00  0.00    +0.118 C 
ATOM     19  C   UNL     1      -2.496   2.522  -1.217  0.00  0.00    +0.050 C 
ATOM     20  C   UNL     1      -1.686   1.572  -2.102  0.00  0.00    +0.109 C 
BRANCH  18  21
ATOM     21  O   UNL     1      -2.527   3.589   0.954  0.00  0.00    -0.392 OA
ATOM     22  H   UNL     1      -3.443   3.332   1.127  0.00  0.00    +0.210 HD
ENDBRANCH  18  21
ENDBRANCH   9  15
BRANCH   1  23
ATOM     23  C   UNL     1      -0.539   2.775  -5.020  0.00  0.00    +0.146 C 
BRANCH  23  24
ATOM     24  N   UNL     1      -0.499   2.838  -6.483  0.00  0.00    -0.291 N 
ATOM     25  C   UNL     1       0.467   3.545  -7.102  0.00  0.00    +0.245 C 
ATOM     26  O   UNL     1       1.254   4.197  -6.448  0.00  0.00    -0.273 OA
BRANCH  25  27
ATOM     27  C   UNL     1       0.571   3.525  -8.605  0.00  0.00    +0.204 C 
ATOM     28  C   UNL     1       1.182   2.190  -9.084  0.00  0.00    +0.043 C 
ATOM     29  C   UNL     1       2.072   2.592 -10.281  0.00  0.00    +0.031 C 
ATOM     30  C   UNL     1       1.894   4.123 -10.384  0.00  0.00    +0.161 C 
ATOM     31  O   UNL     1       1.495   4.538  -9.059  0.00  0.00    -0.367 OA
ENDBRANCH  25  27
BRANCH  24  32
ATOM     32  C   UNL     1      -1.511   2.132  -7.274  0.00  0.00    +0.143 C 
BRANCH  32  38
ATOM     33  C   UNL     1      -2.908   3.830  -8.468  0.00  0.00    +0.009 A 
ATOM     34  C   UNL     1      -4.041   4.616  -8.574  0.00  0.00    +0.050 A 
ATOM     35  C   UNL     1      -5.019   4.558  -7.594  0.00  0.00    +0.166 A 
ATOM     36  C   UNL     1      -4.856   3.708  -6.503  0.00  0.00    +0.167 A 
ATOM     37  C   UNL     1      -3.722   2.920  -6.406  0.00  0.00    +0.054 A 
ATOM     38  C   UNL     1      -2.747   2.986  -7.385  0.00  0.00    -0.026 A 
ATOM     39  O   UNL     1      -5.944   3.832  -5.688  0.00  0.00    -0.453 OA
ATOM     40  C   UNL     1      -6.959   4.460  -6.494  0.00  0.00    +0.466 C 
ATOM     41  O   UNL     1      -6.208   5.215  -7.463  0.00  0.00    -0.453 OA
ENDBRANCH  32  38
ENDBRANCH  24  32
ENDBRANCH  23  24
ENDBRANCH   1  23
TORSDOF 7
