REMARK  Name = ZINC08680710
REMARK  13 active torsions:
REMARK  status: ('A' for Active; 'I' for Inactive)
REMARK    1  A    between atoms: C_1  and  C_2
REMARK    2  A    between atoms: C_2  and  C_3
REMARK    3  A    between atoms: C_3  and  C_4
REMARK    4  A    between atoms: C_3  and  C_5
REMARK    5  A    between atoms: C_3  and  N_6
REMARK    6  A    between atoms: C_7  and  C_11
REMARK    7  A    between atoms: C_11  and  C_13
REMARK    8  A    between atoms: C_11  and  N_20
REMARK    9  A    between atoms: C_16  and  C_19
REMARK   10  A    between atoms: N_20  and  C_21
REMARK   11  A    between atoms: N_20  and  C_27
REMARK   12  A    between atoms: C_21  and  C_22
REMARK   13  A    between atoms: C_27  and  C_28
REMARK                            x       y       z     vdW  Elec       q    Type
REMARK                         _______ _______ _______ _____ _____    ______ ____
ROOT
ATOM      1  C   UNL     1       1.971  -2.945  -3.527  0.00  0.00    +0.034 C 
ENDROOT
BRANCH   1   2
ATOM      2  C   UNL     1       3.334  -3.542  -3.287  0.00  0.00    -0.054 A 
ATOM      3  C   UNL     1       4.300  -2.814  -2.618  0.00  0.00    +0.003 A 
ATOM      4  C   UNL     1       5.549  -3.362  -2.398  0.00  0.00    +0.003 A 
ATOM      5  C   UNL     1       5.833  -4.639  -2.846  0.00  0.00    -0.050 A 
ATOM      6  C   UNL     1       4.867  -5.367  -3.515  0.00  0.00    +0.003 A 
ATOM      7  C   UNL     1       3.616  -4.821  -3.731  0.00  0.00    +0.003 A 
ATOM      8  C   UNL     1       7.196  -5.236  -2.607  0.00  0.00    +0.044 C 
ENDBRANCH   1   2
BRANCH   1  10
ATOM      9  N   UNL     1       0.292  -3.005  -1.609  0.00  0.00    -0.225 N 
ATOM     10  C   UNL     1       0.968  -3.597  -2.610  0.00  0.00    +0.143 A 
ATOM     11  N   UNL     1       0.585  -4.850  -2.634  0.00  0.00    -0.115 NA
ATOM     12  N   UNL     1      -0.282  -5.019  -1.696  0.00  0.00    -0.023 NA
ATOM     13  N   UNL     1      -0.457  -3.907  -1.071  0.00  0.00    -0.043 NA
BRANCH   9  14
ATOM     14  C   UNL     1       0.392  -1.601  -1.201  0.00  0.00    +0.061 C 
ATOM     15  C   UNL     1      -0.065  -0.702  -2.352  0.00  0.00    +0.036 C 
ATOM     16  C   UNL     1       1.844  -1.276  -0.845  0.00  0.00    +0.036 C 
BRANCH  14  18
ATOM     17  C   UNL     1      -0.394   0.107   0.445  0.00  0.00    +0.006 C 
ATOM     18  C   UNL     1      -0.499  -1.359   0.019  0.00  0.00    +0.026 C 
ENDBRANCH  14  18
ENDBRANCH   9  14
ENDBRANCH   1  10
BRANCH   1  19
ATOM     19  N   UNL     1       1.577  -3.171  -4.924  0.00  0.00    +0.397 N 
ATOM     20  H   UNL     1       1.765  -4.129  -5.176  0.00  0.00    -0.079 HD
BRANCH  19  21
ATOM     21  C   UNL     1       2.343  -2.274  -5.800  0.00  0.00    -0.001 C 
BRANCH  21  22
ATOM     22  C   UNL     1       3.792  -2.687  -5.797  0.00  0.00    +0.089 A 
ATOM     23  C   UNL     1       4.332  -3.668  -6.541  0.00  0.00    +0.042 A 
ATOM     24  C   UNL     1       5.709  -3.712  -6.225  0.00  0.00    +0.041 A 
ATOM     25  C   UNL     1       5.929  -2.754  -5.306  0.00  0.00    +0.195 A 
ATOM     26  O   UNL     1       4.765  -2.133  -5.055  0.00  0.00    -0.470 OA
ENDBRANCH  21  22
ENDBRANCH  19  21
BRANCH  19  27
ATOM     27  C   UNL     1       0.142  -2.897  -5.078  0.00  0.00    -0.034 C 
BRANCH  27  28
ATOM     28  C   UNL     1      -0.289  -3.245  -6.479  0.00  0.00    -0.027 A 
ATOM     29  C   UNL     1      -0.758  -4.423  -6.960  0.00  0.00    +0.009 A 
ATOM     30  C   UNL     1      -1.096  -4.513  -8.298  0.00  0.00    +0.008 A 
ATOM     31  C   UNL     1      -0.948  -3.423  -9.088  0.00  0.00    +0.045 A 
ATOM     32  S   UNL     1      -0.320  -2.213  -7.936  0.00  0.00    -0.103 S 
ENDBRANCH  27  28
ENDBRANCH  19  27
ENDBRANCH   1  19
TORSDOF 9
