REMARK  Name = ZINC39635922
REMARK  5 active torsions:
REMARK  status: ('A' for Active; 'I' for Inactive)
REMARK    1  A    between atoms: C_1  and  C_2
REMARK    2  A    between atoms: C_6  and  C_9
REMARK    3  A    between atoms: C_13  and  C_22
REMARK    4  A    between atoms: N_24  and  C_25
REMARK    5  A    between atoms: C_31  and  C_33
REMARK                            x       y       z     vdW  Elec       q    Type
REMARK                         _______ _______ _______ _____ _____    ______ ____
ROOT
ATOM      1  C   UNL     1       0.003  -2.761   2.389  0.00  0.00    +0.251 C 
ATOM      2  O   UNL     1       1.081  -3.028   2.885  0.00  0.00    -0.270 OA
ATOM      3  N   UNL     1      -1.134  -3.151   2.998  0.00  0.00    -0.296 N 
ATOM      4  C   UNL     1      -2.528  -2.926   2.548  0.00  0.00    +0.121 C 
ATOM      5  C   UNL     1      -3.264  -4.243   2.883  0.00  0.00    +0.100 C 
ATOM      6  C   UNL     1      -2.437  -4.877   4.014  0.00  0.00    -0.004 C 
ATOM      7  C   UNL     1      -1.273  -3.907   4.266  0.00  0.00    +0.115 C 
ATOM      8  C   UNL     1      -3.287  -5.022   5.273  0.00  0.00    -0.010 C 
ATOM      9  C   UNL     1      -2.461  -5.707   6.365  0.00  0.00    -0.082 C 
ATOM     10  N   UNL     1      -2.021  -7.026   5.894  0.00  0.00    +0.379 N 
ATOM     11  C   UNL     1      -1.128  -6.872   4.738  0.00  0.00    -0.082 C 
ATOM     12  C   UNL     1      -1.898  -6.236   3.577  0.00  0.00    -0.010 C 
ATOM     13  H   UNL     1      -1.529  -7.500   6.636  0.00  0.00    -0.086 HD
ATOM     14  H   UNL     1      -2.825  -7.572   5.625  0.00  0.00    -0.086 HD
ENDROOT
BRANCH   1  20
ATOM     15  C   UNL     1      -0.235   1.590  -0.050  0.00  0.00    +0.047 C 
ATOM     16  C   UNL     1      -0.174   0.084  -0.060  0.00  0.00    -0.014 A 
ATOM     17  C   UNL     1      -0.176  -0.598  -1.263  0.00  0.00    +0.007 A 
ATOM     18  C   UNL     1      -0.121  -1.980  -1.283  0.00  0.00    +0.021 A 
ATOM     19  C   UNL     1      -0.062  -2.690  -0.100  0.00  0.00    +0.056 A 
ATOM     20  C   UNL     1      -0.059  -2.009   1.120  0.00  0.00    +0.091 A 
ATOM     21  C   UNL     1      -0.110  -0.611   1.133  0.00  0.00    +0.140 A 
ATOM     22  F   UNL     1      -0.102   0.057   2.307  0.00  0.00    -0.204 F 
ATOM     23 CL   UNL     1       0.007  -4.425  -0.129  0.00  0.00    -0.083 Cl
ENDBRANCH   1  20
BRANCH   5  24
ATOM     24  C   UNL     1      -3.292  -5.149   1.680  0.00  0.00    +0.218 C 
ATOM     25  O   UNL     1      -2.423  -5.067   0.838  0.00  0.00    -0.275 OA
ATOM     26  N   UNL     1      -4.283  -6.051   1.538  0.00  0.00    -0.312 N 
ATOM     27  H   UNL     1      -4.979  -6.117   2.212  0.00  0.00    +0.149 HD
BRANCH  26  28
ATOM     28  C   UNL     1      -4.311  -6.933   0.368  0.00  0.00    +0.076 C 
ATOM     29  C   UNL     1      -3.433  -8.158   0.631  0.00  0.00    +0.022 C 
ATOM     30  C   UNL     1      -3.462  -9.078  -0.591  0.00  0.00    +0.002 C 
ATOM     31  C   UNL     1      -4.899  -9.528  -0.856  0.00  0.00    +0.000 C 
ATOM     32  C   UNL     1      -5.778  -8.304  -1.119  0.00  0.00    +0.005 C 
ATOM     33  C   UNL     1      -5.749  -7.383   0.103  0.00  0.00    +0.006 C 
ATOM     34  C   UNL     1      -6.627  -6.159  -0.160  0.00  0.00    +0.009 C 
ENDBRANCH  26  28
ENDBRANCH   5  24
TORSDOF 3
