REMARK  Name = ZINC00521248
REMARK  5 active torsions:
REMARK  status: ('A' for Active; 'I' for Inactive)
REMARK    1  A    between atoms: C_1  and  C_2
REMARK    2  A    between atoms: C_6  and  N_15
REMARK    3  A    between atoms: C_7  and  C_11
REMARK    4  A    between atoms: C_11  and  O_13
REMARK    5  A    between atoms: O_13  and  C_14
REMARK                            x       y       z     vdW  Elec       q    Type
REMARK                         _______ _______ _______ _____ _____    ______ ____
ROOT
ATOM      1  C   UNL     1      -1.563   2.994  -3.567  0.00  0.00    +0.066 C 
ATOM      2  C   UNL     1      -1.423   3.753  -2.273  0.00  0.00    +0.043 A 
ATOM      3  C   UNL     1      -1.115   3.063  -1.101  0.00  0.00    -0.022 A 
ATOM      4  C   UNL     1      -0.983   3.748   0.076  0.00  0.00    -0.031 A 
ATOM      5  C   UNL     1      -1.170   5.156   0.084  0.00  0.00    +0.033 A 
ATOM      6  C   UNL     1      -1.082   6.074   1.209  0.00  0.00    +0.056 A 
ATOM      7  C   UNL     1      -1.304   7.415   0.978  0.00  0.00    +0.119 A 
ATOM      8  S   UNL     1      -1.639   7.482  -0.771  0.00  0.00    -0.060 S 
ATOM      9  C   UNL     1      -1.481   5.756  -1.157  0.00  0.00    +0.111 A 
ATOM     10  N   UNL     1      -1.594   5.058  -2.265  0.00  0.00    -0.244 NA
ATOM     11  C   UNL     1      -0.644   3.081   1.381  0.00  0.00    +0.036 C 
ATOM     12  C   UNL     1      -0.888   1.576   1.295  0.00  0.00    +0.005 C 
ATOM     13  C   UNL     1      -0.195   1.044   0.035  0.00  0.00    +0.005 C 
ATOM     14  C   UNL     1      -0.939   1.569  -1.190  0.00  0.00    +0.037 C 
ENDROOT
BRANCH   6  15
ATOM     15  N   UNL     1      -0.783   5.611   2.482  0.00  0.00    -0.356 N 
ATOM     16  H   UNL     1      -0.262   4.800   2.594  0.00  0.00    +0.142 HD
ATOM     17  H   UNL     1      -1.095   6.098   3.261  0.00  0.00    +0.142 HD
ENDBRANCH   6  15
BRANCH   7  18
ATOM     18  C   UNL     1      -1.272   8.482   1.907  0.00  0.00    +0.348 C 
ATOM     19  O   UNL     1      -1.024   8.262   3.078  0.00  0.00    -0.244 OA
BRANCH  18  20
ATOM     20  O   UNL     1      -1.517   9.743   1.494  0.00  0.00    -0.464 OA
ATOM     21  C   UNL     1      -1.469  10.771   2.486  0.00  0.00    +0.280 C 
ENDBRANCH  18  20
ENDBRANCH   7  18
TORSDOF 3
