REMARK  Name = ZINC01597510
REMARK  12 active torsions:
REMARK  status: ('A' for Active; 'I' for Inactive)
REMARK    1  A    between atoms: C_1  and  C_2
REMARK    2  A    between atoms: C_2  and  C_3
REMARK    3  A    between atoms: C_3  and  C_4
REMARK    4  A    between atoms: C_4  and  C_6
REMARK    5  A    between atoms: C_4  and  O_13
REMARK    6  A    between atoms: O_13  and  P_14
REMARK    7  A    between atoms: P_14  and  O_16
REMARK    8  A    between atoms: P_14  and  O_19
REMARK    9  A    between atoms: O_16  and  C_17
REMARK   10  A    between atoms: C_17  and  C_18
REMARK   11  A    between atoms: O_19  and  C_20
REMARK   12  A    between atoms: C_20  and  C_21
REMARK                            x       y       z     vdW  Elec       q    Type
REMARK                         _______ _______ _______ _____ _____    ______ ____
ROOT
ATOM      1  C   UNL     1      -0.013   1.086   0.008  0.00  0.00    +0.159 C 
ENDROOT
BRANCH   1   2
ATOM      2  C   UNL     1      -0.742   1.585  -1.213  0.00  0.00    -0.000 A 
ATOM      3  C   UNL     1      -1.518   2.726  -1.136  0.00  0.00    +0.007 A 
ATOM      4  C   UNL     1      -2.183   3.186  -2.257  0.00  0.00    +0.000 A 
ATOM      5  C   UNL     1      -2.080   2.501  -3.453  0.00  0.00    +0.001 A 
ATOM      6  C   UNL     1      -1.308   1.357  -3.530  0.00  0.00    +0.020 A 
ATOM      7  C   UNL     1      -0.638   0.898  -2.409  0.00  0.00    +0.047 A 
ATOM      8 CL   UNL     1       0.331  -0.539  -2.505  0.00  0.00    -0.083 Cl
ENDBRANCH   1   2
BRANCH   1   9
ATOM      9  C   UNL     1       1.423   1.615  -0.003  0.00  0.00    +0.037 C 
BRANCH   9  11
ATOM     10  C   UNL     1       3.634   1.539   1.157  0.00  0.00    +0.004 C 
ATOM     11  C   UNL     1       2.199   1.009   1.168  0.00  0.00    -0.001 C 
ENDBRANCH   9  11
ENDBRANCH   1   9
BRANCH   1  12
ATOM     12  O   UNL     1      -0.682   1.547   1.184  0.00  0.00    -0.303 OA
BRANCH  12  13
ATOM     13  P   UNL     1      -1.296   0.551   2.290  0.00  0.00    +0.309 P 
ATOM     14  S   UNL     1      -2.229  -0.820   1.442  0.00  0.00    +0.023 S 
BRANCH  13  15
ATOM     15  O   UNL     1      -0.102  -0.076   3.170  0.00  0.00    -0.311 OA
BRANCH  15  16
ATOM     16  C   UNL     1      -0.274  -1.215   4.015  0.00  0.00    +0.166 C 
ATOM     17  C   UNL     1       1.052  -1.545   4.703  0.00  0.00    +0.034 C 
ENDBRANCH  15  16
ENDBRANCH  13  15
BRANCH  13  18
ATOM     18  O   UNL     1      -2.298   1.369   3.250  0.00  0.00    -0.311 OA
BRANCH  18  19
ATOM     19  C   UNL     1      -3.232   0.731   4.123  0.00  0.00    +0.166 C 
ATOM     20  C   UNL     1      -4.023   1.794   4.888  0.00  0.00    +0.034 C 
ENDBRANCH  18  19
ENDBRANCH  13  18
ENDBRANCH  12  13
ENDBRANCH   1  12
TORSDOF 9
