REMARK  Name = ZINC38909823
REMARK  3 active torsions:
REMARK  status: ('A' for Active; 'I' for Inactive)
REMARK    1  A    between atoms: C_1  and  C_2
REMARK    2  A    between atoms: C_12  and  C_14
REMARK    3  A    between atoms: C_17  and  C_19
REMARK                            x       y       z     vdW  Elec       q    Type
REMARK                         _______ _______ _______ _____ _____    ______ ____
ROOT
ATOM      1  C   UNL     1      -0.607  -4.093  -2.393  0.00  0.00    +0.134 A 
ATOM      2  C   UNL     1      -1.056  -4.764  -3.500  0.00  0.00    +0.080 A 
ATOM      3  S   UNL     1      -1.477  -3.510  -4.541  0.00  0.00    -0.073 S 
ATOM      4  C   UNL     1      -1.047  -2.143  -3.479  0.00  0.00    +0.125 A 
ATOM      5  N   UNL     1      -0.614  -2.767  -2.396  0.00  0.00    -0.233 NA
ENDROOT
BRANCH   1  17
ATOM      6  C   UNL     1       1.710  -6.934   4.602  0.00  0.00    +0.044 C 
ATOM      7  C   UNL     1       1.377  -6.196   3.331  0.00  0.00    -0.050 A 
ATOM      8  C   UNL     1       0.536  -6.775   2.398  0.00  0.00    +0.005 A 
ATOM      9  C   UNL     1       0.232  -6.100   1.233  0.00  0.00    +0.024 A 
ATOM     10  C   UNL     1       0.770  -4.840   0.998  0.00  0.00    +0.040 A 
ATOM     11  C   UNL     1       1.609  -4.258   1.935  0.00  0.00    -0.026 A 
ATOM     12  C   UNL     1       1.907  -4.941   3.103  0.00  0.00    +0.008 A 
ATOM     13  C   UNL     1       2.202  -2.891   1.720  0.00  0.00    +0.038 C 
ATOM     14  C   UNL     1       2.184  -2.527   0.236  0.00  0.00    +0.024 C 
ATOM     15  C   UNL     1       0.766  -2.743  -0.311  0.00  0.00    +0.114 C 
ATOM     16  N   UNL     1       0.453  -4.173  -0.193  0.00  0.00    -0.266 N 
ATOM     17  C   UNL     1      -0.130  -4.834  -1.213  0.00  0.00    +0.270 C 
ATOM     18  O   UNL     1      -0.261  -6.042  -1.159  0.00  0.00    -0.268 OA
ENDBRANCH   1  17
BRANCH   4  19
ATOM     19  C   UNL     1      -1.151  -0.696  -3.738  0.00  0.00    +0.073 A 
ATOM     20  C   UNL     1      -0.758   0.284  -2.883  0.00  0.00    +0.038 A 
ATOM     21  C   UNL     1      -1.043   1.559  -3.538  0.00  0.00    +0.000 A 
ATOM     22  C   UNL     1      -0.866   2.896  -3.170  0.00  0.00    +0.010 A 
ATOM     23  C   UNL     1      -1.244   3.891  -4.026  0.00  0.00    +0.001 A 
ATOM     24  C   UNL     1      -1.803   3.585  -5.260  0.00  0.00    +0.002 A 
ATOM     25  C   UNL     1      -1.986   2.274  -5.644  0.00  0.00    +0.026 A 
ATOM     26  C   UNL     1      -1.609   1.244  -4.788  0.00  0.00    +0.047 A 
ATOM     27  N   UNL     1      -1.658  -0.129  -4.886  0.00  0.00    -0.353 N 
ATOM     28  H   UNL     1      -1.999  -0.622  -5.649  0.00  0.00    +0.166 HD
ENDBRANCH   4  19
TORSDOF 2
