REMARK  Name = ZINC67392661
REMARK  7 active torsions:
REMARK  status: ('A' for Active; 'I' for Inactive)
REMARK    1  A    between atoms: C_1  and  C_2
REMARK    2  A    between atoms: N_7  and  C_9
REMARK    3  A    between atoms: C_9  and  C_10
REMARK    4  A    between atoms: C_9  and  C_11
REMARK    5  A    between atoms: C_9  and  C_12
REMARK    6  A    between atoms: C_12  and  N_13
REMARK    7  A    between atoms: C_14  and  C_16
REMARK                            x       y       z     vdW  Elec       q    Type
REMARK                         _______ _______ _______ _____ _____    ______ ____
ROOT
ATOM      1  N   UNL     1      -0.064  -4.403   2.272  0.00  0.00    -0.309 N 
ATOM      2  C   UNL     1      -0.407  -5.702   2.379  0.00  0.00    +0.299 C 
ATOM      3  O   UNL     1       0.431  -6.529   2.674  0.00  0.00    -0.265 OA
ATOM      4  H   UNL     1      -0.733  -3.742   2.036  0.00  0.00    +0.149 HD
ENDROOT
BRANCH   2   5
ATOM      5  C   UNL     1      -1.819  -6.124   2.133  0.00  0.00    +0.306 C 
ATOM      6  O   UNL     1      -2.675  -5.288   1.930  0.00  0.00    -0.265 OA
ATOM      7  N   UNL     1      -2.141  -7.433   2.137  0.00  0.00    -0.263 N 
ATOM      8  C   UNL     1      -1.224  -8.523   2.479  0.00  0.00    +0.119 C 
ATOM      9  C   UNL     1      -2.055  -9.809   2.338  0.00  0.00    +0.056 C 
ATOM     10  C   UNL     1      -3.425  -9.331   1.912  0.00  0.00    -0.024 A 
ATOM     11  C   UNL     1      -3.401  -7.947   1.822  0.00  0.00    +0.040 A 
ATOM     12  C   UNL     1      -4.564  -7.272   1.447  0.00  0.00    +0.024 A 
ATOM     13  C   UNL     1      -5.718  -7.975   1.174  0.00  0.00    +0.002 A 
ATOM     14  C   UNL     1      -5.732  -9.354   1.270  0.00  0.00    +0.000 A 
ATOM     15  C   UNL     1      -4.583 -10.030   1.635  0.00  0.00    +0.005 A 
ENDBRANCH   2   5
BRANCH   1  16
ATOM     16  C   UNL     1       1.321  -3.990   2.513  0.00  0.00    +0.092 C 
BRANCH  16  17
ATOM     17  C   UNL     1       1.419  -2.465   2.432  0.00  0.00    -0.055 C 
ATOM     18  C   UNL     1       2.878  -2.038   2.606  0.00  0.00    -0.008 C 
ATOM     19  C   UNL     1       0.569  -1.840   3.540  0.00  0.00    -0.008 C 
BRANCH  17  25
ATOM     20  C   UNL     1       0.594   1.456  -0.380  0.00  0.00    +0.005 C 
ATOM     21  C   UNL     1       0.465  -0.066  -0.291  0.00  0.00    -0.031 C 
ATOM     22  C   UNL     1       1.234  -0.712  -1.447  0.00  0.00    -0.001 C 
ATOM     23  C   UNL     1       1.164  -2.235  -1.305  0.00  0.00    -0.018 C 
ATOM     24  C   UNL     1       1.722  -2.640   0.061  0.00  0.00    -0.078 C 
ATOM     25  N   UNL     1       0.929  -2.011   1.124  0.00  0.00    +0.384 N 
ATOM     26  C   UNL     1       1.048  -0.551   1.038  0.00  0.00    -0.075 C 
ATOM     27  H   UNL     1      -0.040  -2.275   1.020  0.00  0.00    -0.081 HD
ENDBRANCH  17  25
ENDBRANCH  16  17
ENDBRANCH   1  16
TORSDOF 4
