REMARK  Name = ZINC38785291
REMARK  8 active torsions:
REMARK  status: ('A' for Active; 'I' for Inactive)
REMARK    1  A    between atoms: C_1  and  C_2
REMARK    2  A    between atoms: C_5  and  C_8
REMARK    3  A    between atoms: C_10  and  C_13
REMARK    4  A    between atoms: C_13  and  S_14
REMARK    5  A    between atoms: S_14  and  C_15
REMARK    6  A    between atoms: C_17  and  C_21
REMARK    7  A    between atoms: C_22  and  C_23
REMARK    8  A    between atoms: C_26  and  C_29
REMARK                            x       y       z     vdW  Elec       q    Type
REMARK                         _______ _______ _______ _____ _____    ______ ____
ROOT
ATOM      1  S   UNL     1      -1.603  -8.023   1.896  0.00  0.00    -0.078 S 
ENDROOT
BRANCH   1   2
ATOM      2  C   UNL     1      -1.416  -9.430   2.940  0.00  0.00    +0.209 A 
ATOM      3  N   UNL     1      -2.414 -10.147   3.454  0.00  0.00    -0.202 NA
ATOM      4  C   UNL     1      -1.925 -11.130   4.190  0.00  0.00    +0.150 A 
ATOM      5  N   UNL     1      -0.567 -11.043   4.147  0.00  0.00    -0.258 N 
ATOM      6  H   UNL     1       0.068 -11.628   4.589  0.00  0.00    +0.191 HD
ATOM      7  N   UNL     1      -0.270  -9.941   3.329  0.00  0.00    -0.145 NA
BRANCH   4   8
ATOM      8  C   UNL     1      -2.704 -12.135   4.921  0.00  0.00    +0.051 C 
ATOM      9  C   UNL     1      -4.051 -12.105   4.878  0.00  0.00    +0.049 C 
BRANCH   9  10
ATOM     10  C   UNL     1      -4.831 -13.110   5.611  0.00  0.00    +0.117 C 
ATOM     11  C   UNL     1      -6.168 -13.148   5.612  0.00  0.00    +0.022 C 
ATOM     12  C   UNL     1      -6.581 -14.332   6.470  0.00  0.00    +0.075 C 
ATOM     13  C   UNL     1      -5.254 -15.123   6.578  0.00  0.00    +0.174 C 
ATOM     14  O   UNL     1      -4.271 -14.098   6.350  0.00  0.00    -0.489 OA
ATOM     15  C   UNL     1      -5.172 -16.202   5.497  0.00  0.00    +0.052 C 
ENDBRANCH   9  10
ENDBRANCH   4   8
ENDBRANCH   1   2
BRANCH   1  16
ATOM     16  C   UNL     1       0.101  -7.514   1.536  0.00  0.00    +0.136 C 
BRANCH  16  19
ATOM     17  C   UNL     1       0.058  -4.251  -0.021  0.00  0.00    +0.227 A 
ATOM     18  N   UNL     1       0.068  -5.023   1.040  0.00  0.00    -0.213 NA
ATOM     19  C   UNL     1       0.085  -6.303   0.639  0.00  0.00    +0.090 A 
ATOM     20  C   UNL     1       0.085  -6.314  -0.707  0.00  0.00    +0.221 A 
ATOM     21  O   UNL     1       0.062  -5.030  -1.117  0.00  0.00    -0.443 OA
BRANCH  17  26
ATOM     22  C   UNL     1      -0.018   1.503   0.010  0.00  0.00    +0.044 C 
ATOM     23  C   UNL     1       0.002  -0.004   0.002  0.00  0.00    -0.050 A 
ATOM     24  C   UNL     1       0.006  -0.686  -1.202  0.00  0.00    +0.004 A 
ATOM     25  C   UNL     1       0.024  -2.066  -1.216  0.00  0.00    +0.013 A 
ATOM     26  C   UNL     1       0.039  -2.773  -0.013  0.00  0.00    +0.037 A 
ATOM     27  C   UNL     1       0.036  -2.079   1.198  0.00  0.00    +0.013 A 
ATOM     28  C   UNL     1       0.023  -0.699   1.198  0.00  0.00    +0.004 A 
ENDBRANCH  17  26
ENDBRANCH  16  19
ENDBRANCH   1  16
TORSDOF 6
