REMARK  Name = ZINC20679651
REMARK  2 active torsions:
REMARK  status: ('A' for Active; 'I' for Inactive)
REMARK    1  A    between atoms: C_3  and  O_26
REMARK    2  A    between atoms: C_6  and  C_7
REMARK                            x       y       z     vdW  Elec       q    Type
REMARK                         _______ _______ _______ _____ _____    ______ ____
ROOT
ATOM      1  C   UNL     1      -1.333   2.113   0.020  0.00  0.00    +0.105 C 
ATOM      2  C   UNL     1      -1.628   2.623   1.415  0.00  0.00    +0.029 C 
ATOM      3  C   UNL     1      -1.844   1.591   2.528  0.00  0.00    +0.033 C 
ATOM      4  C   UNL     1      -2.800   2.342   3.458  0.00  0.00    -0.030 C 
ATOM      5  C   UNL     1      -3.493   3.240   2.766  0.00  0.00    -0.023 C 
ATOM      6  C   UNL     1      -3.098   3.144   1.340  0.00  0.00    +0.050 C 
ATOM      7  C   UNL     1      -3.087   4.314   0.434  0.00  0.00    +0.002 A 
ATOM      8  C   UNL     1      -2.176   4.311  -0.625  0.00  0.00    +0.051 A 
ATOM      9  C   UNL     1      -2.173   5.398  -1.502  0.00  0.00    +0.064 A 
ATOM     10  C   UNL     1      -3.041   6.453  -1.321  0.00  0.00    +0.043 A 
ATOM     11  C   UNL     1      -3.931   6.450  -0.263  0.00  0.00    +0.061 A 
ATOM     12  C   UNL     1      -3.949   5.377   0.612  0.00  0.00    +0.065 A 
ATOM     13 CL   UNL     1      -5.064   5.369   1.943  0.00  0.00    -0.082 Cl
ATOM     14 CL   UNL     1      -5.020   7.782  -0.032  0.00  0.00    -0.082 Cl
ATOM     15 CL   UNL     1      -1.062   5.420  -2.835  0.00  0.00    -0.082 Cl
ATOM     16  N   UNL     1      -1.258   3.288  -0.864  0.00  0.00    -0.335 N 
ATOM     17  H   UNL     1      -0.505   3.327  -1.664  0.00  0.00    +0.147 HD
ENDROOT
BRANCH   1  23
ATOM     18  C   UNL     1       1.170   2.088   0.002  0.00  0.00    +0.009 A 
ATOM     19  C   UNL     1       2.377   1.417  -0.013  0.00  0.00    +0.046 A 
ATOM     20  C   UNL     1       2.399   0.030  -0.020  0.00  0.00    +0.117 A 
ATOM     21  C   UNL     1       1.207  -0.680  -0.013  0.00  0.00    +0.046 A 
ATOM     22  C   UNL     1       0.002  -0.004   0.002  0.00  0.00    +0.009 A 
ATOM     23  C   UNL     1      -0.017   1.378   0.010  0.00  0.00    -0.027 A 
BRANCH  20  24
ATOM     24  O   UNL     1       3.586  -0.632  -0.035  0.00  0.00    -0.507 OA
ATOM     25  H   UNL     1       3.601  -1.732  -0.041  0.00  0.00    +0.292 HD
ENDBRANCH  20  24
ENDBRANCH   1  23
TORSDOF 2
