REMARK  Name = ZINC15867903
REMARK  1 active torsions:
REMARK  status: ('A' for Active; 'I' for Inactive)
REMARK    1  A    between atoms: C_6  and  N_7
REMARK                            x       y       z     vdW  Elec       q    Type
REMARK                         _______ _______ _______ _____ _____    ______ ____
ROOT
ATOM      1  N   UNL     1      -0.836   2.960  -0.469  0.00  0.00    -0.187 N 
ATOM      2  C   UNL     1      -1.129   1.716  -0.062  0.00  0.00    +0.322 C 
ATOM      3  O   UNL     1      -2.242   1.319   0.208  0.00  0.00    -0.251 OA
ATOM      4  N   UNL     1      -0.011   0.951   0.007  0.00  0.00    -0.279 N 
ATOM      5  C   UNL     1       1.094   1.919   0.002  0.00  0.00    +0.103 C 
ATOM      6  N   UNL     1       0.514   3.091  -0.677  0.00  0.00    -0.209 NA
ATOM      7  C   UNL     1       2.218   1.296  -0.836  0.00  0.00    +0.043 C 
ATOM      8  C   UNL     1       3.287   0.646   0.023  0.00  0.00    +0.003 C 
ATOM      9  C   UNL     1       2.942  -0.755   0.511  0.00  0.00    +0.000 C 
ATOM     10  C   UNL     1       1.821  -0.794   1.535  0.00  0.00    +0.000 C 
ATOM     11  C   UNL     1       1.996   0.213   2.662  0.00  0.00    +0.000 C 
ATOM     12  C   UNL     1       1.036   1.393   2.470  0.00  0.00    +0.003 C 
ATOM     13  C   UNL     1       1.614   2.278   1.373  0.00  0.00    +0.043 C 
ATOM     14  H   UNL     1       0.002  -0.004   0.002  0.00  0.00    +0.152 HD
ATOM     15  H   UNL     1       0.724   3.075  -1.664  0.00  0.00    +0.147 HD
ENDROOT
BRANCH   1  21
ATOM     16  C   UNL     1      -1.356   5.237  -1.084  0.00  0.00    +0.026 A 
ATOM     17  C   UNL     1      -2.283   6.243  -1.277  0.00  0.00    +0.017 A 
ATOM     18  C   UNL     1      -3.624   6.004  -1.038  0.00  0.00    +0.018 A 
ATOM     19  C   UNL     1      -4.042   4.756  -0.611  0.00  0.00    +0.017 A 
ATOM     20  C   UNL     1      -3.120   3.746  -0.421  0.00  0.00    +0.026 A 
ATOM     21  C   UNL     1      -1.773   3.982  -0.661  0.00  0.00    +0.054 A 
ATOM     22 BR   UNL     1      -4.889   7.386  -1.295  0.00  0.00    -0.050 Br
ENDBRANCH   1  21
TORSDOF 1
