REMARK  Name = ZINC62581305
REMARK  8 active torsions:
REMARK  status: ('A' for Active; 'I' for Inactive)
REMARK    1  A    between atoms: C_4  and  S_7
REMARK    2  A    between atoms: S_7  and  N_10
REMARK    3  A    between atoms: N_10  and  C_11
REMARK    4  A    between atoms: C_16  and  N_17
REMARK    5  A    between atoms: C_18  and  C_20
REMARK    6  A    between atoms: C_20  and  C_21
REMARK    7  A    between atoms: C_21  and  C_23
REMARK    8  A    between atoms: C_21  and  N_28
REMARK                            x       y       z     vdW  Elec       q    Type
REMARK                         _______ _______ _______ _____ _____    ______ ____
ROOT
ATOM      1  N   UNL     1       4.016  -0.266   4.190  0.00  0.00    -0.284 N 
ATOM      2  C   UNL     1       4.447  -0.220   5.466  0.00  0.00    +0.219 C 
ATOM      3  O   UNL     1       4.196  -1.132   6.224  0.00  0.00    -0.275 OA
ATOM      4  H   UNL     1       4.161   0.491   3.601  0.00  0.00    +0.155 HD
ENDROOT
BRANCH   1  10
ATOM      5  C   UNL     1       3.525  -1.812   2.390  0.00  0.00    +0.069 A 
ATOM      6  C   UNL     1       2.874  -2.946   1.927  0.00  0.00    +0.026 A 
ATOM      7  C   UNL     1       2.058  -3.670   2.776  0.00  0.00    +0.002 A 
ATOM      8  C   UNL     1       1.888  -3.266   4.088  0.00  0.00    +0.002 A 
ATOM      9  C   UNL     1       2.532  -2.137   4.557  0.00  0.00    +0.025 A 
ATOM     10  C   UNL     1       3.357  -1.408   3.714  0.00  0.00    +0.056 A 
BRANCH   5  11
ATOM     11  N   UNL     1       4.352  -1.078   1.532  0.00  0.00    -0.214 N 
ATOM     12  H   UNL     1       5.156  -0.659   1.875  0.00  0.00    +0.174 HD
BRANCH  11  13
ATOM     13  S   UNL     1       3.957  -0.925  -0.069  0.00  0.00    +0.072 S 
ATOM     14  O   UNL     1       3.761  -2.241  -0.566  0.00  0.00    -0.150 OA
ATOM     15  O   UNL     1       4.902  -0.029  -0.636  0.00  0.00    -0.150 OA
BRANCH  13  19
ATOM     16  C   UNL     1      -0.065   1.143  -0.265  0.00  0.00    +0.000 A 
ATOM     17  C   UNL     1       1.097   1.891  -0.268  0.00  0.00    +0.002 A 
ATOM     18  C   UNL     1       2.326   1.260  -0.208  0.00  0.00    +0.029 A 
ATOM     19  C   UNL     1       2.391  -0.120  -0.144  0.00  0.00    +0.108 A 
ATOM     20  C   UNL     1       1.228  -0.868  -0.141  0.00  0.00    +0.029 A 
ATOM     21  C   UNL     1       0.000  -0.236  -0.202  0.00  0.00    +0.002 A 
ENDBRANCH  13  19
ENDBRANCH  11  13
ENDBRANCH   5  11
ENDBRANCH   1  10
BRANCH   2  22
ATOM     22  C   UNL     1       5.242   0.966   5.950  0.00  0.00    +0.123 C 
BRANCH  22  23
ATOM     23  C   UNL     1       5.605   0.769   7.423  0.00  0.00    +0.120 C 
BRANCH  23  24
ATOM     24  N   UNL     1       6.504  -0.380   7.555  0.00  0.00    -0.292 N 
ATOM     25  C   UNL     1       6.565  -1.057   8.719  0.00  0.00    +0.298 C 
ATOM     26  O   UNL     1       5.875  -0.714   9.659  0.00  0.00    -0.253 OA
ATOM     27  N   UNL     1       7.393  -2.114   8.840  0.00  0.00    -0.313 N 
ATOM     28  H   UNL     1       7.055  -0.653   6.805  0.00  0.00    +0.151 HD
ATOM     29  H   UNL     1       7.944  -2.388   8.090  0.00  0.00    +0.146 HD
ATOM     30  H   UNL     1       7.437  -2.602   9.678  0.00  0.00    +0.146 HD
ENDBRANCH  23  24
BRANCH  23  31
ATOM     31  C   UNL     1       6.292   2.007   7.940  0.00  0.00    +0.010 A 
ATOM     32  C   UNL     1       5.781   3.020   8.681  0.00  0.00    +0.013 A 
ATOM     33  C   UNL     1       6.607   4.066   9.047  0.00  0.00    +0.008 A 
ATOM     34  C   UNL     1       7.904   4.048   8.654  0.00  0.00    +0.045 A 
ATOM     35  S   UNL     1       7.992   2.515   7.743  0.00  0.00    -0.100 S 
ENDBRANCH  23  31
ENDBRANCH  22  23
ENDBRANCH   2  22
TORSDOF 8
