REMARK  Name = ZINC35747140
REMARK  15 active torsions:
REMARK  status: ('A' for Active; 'I' for Inactive)
REMARK    1  A    between atoms: C_1  and  C_2
REMARK    2  A    between atoms: C_5  and  C_9
REMARK    3  A    between atoms: C_7  and  C_8
REMARK    4  A    between atoms: C_18  and  C_20
REMARK    5  A    between atoms: C_20  and  N_21
REMARK    6  A    between atoms: N_21  and  C_22
REMARK    7  A    between atoms: N_21  and  C_35
REMARK    8  A    between atoms: C_22  and  C_23
REMARK    9  A    between atoms: C_23  and  C_25
REMARK   10  A    between atoms: C_23  and  O_34
REMARK   11  A    between atoms: C_25  and  O_26
REMARK   12  A    between atoms: O_26  and  C_27
REMARK   13  A    between atoms: C_35  and  C_36
REMARK   14  A    between atoms: C_36  and  C_37
REMARK   15  A    between atoms: C_36  and  C_38
REMARK                            x       y       z     vdW  Elec       q    Type
REMARK                         _______ _______ _______ _____ _____    ______ ____
ROOT
ATOM      1  C   UNL     1      -3.124  -7.669  -2.766  0.00  0.00    -0.003 C 
ENDROOT
BRANCH   1  11
ATOM      2  C   UNL     1       0.270  -4.237   0.265  0.00  0.00    +0.004 A 
ATOM      3  C   UNL     1       1.224  -4.919   0.944  0.00  0.00    +0.056 A 
ATOM      4  S   UNL     1       0.907  -6.618   0.507  0.00  0.00    -0.076 S 
ATOM      5  C   UNL     1      -0.485  -6.376  -0.566  0.00  0.00    +0.116 A 
ATOM      6  C   UNL     1      -0.675  -4.984  -0.556  0.00  0.00    +0.080 A 
ATOM      7  C   UNL     1      -1.762  -4.501  -1.353  0.00  0.00    +0.260 A 
ATOM      8  O   UNL     1      -2.003  -3.308  -1.412  0.00  0.00    -0.267 OA
ATOM      9  N   UNL     1      -2.512  -5.385  -2.037  0.00  0.00    -0.312 N 
ATOM     10  H   UNL     1      -3.250  -5.063  -2.579  0.00  0.00    +0.170 HD
ATOM     11  C   UNL     1      -2.257  -6.717  -1.983  0.00  0.00    +0.094 A 
ATOM     12  N   UNL     1      -1.267  -7.187  -1.273  0.00  0.00    -0.229 NA
BRANCH   2  17
ATOM     13  C   UNL     1      -0.060   1.500   0.633  0.00  0.00    +0.044 C 
ATOM     14  C   UNL     1       0.026  -0.002   0.537  0.00  0.00    -0.048 A 
ATOM     15  C   UNL     1       0.023  -0.614  -0.704  0.00  0.00    +0.004 A 
ATOM     16  C   UNL     1       0.102  -1.988  -0.798  0.00  0.00    +0.009 A 
ATOM     17  C   UNL     1       0.186  -2.760   0.360  0.00  0.00    -0.016 A 
ATOM     18  C   UNL     1       0.189  -2.138   1.607  0.00  0.00    +0.012 A 
ATOM     19  C   UNL     1       0.115  -0.762   1.689  0.00  0.00    -0.047 A 
ATOM     20  C   UNL     1       0.125  -0.087   3.036  0.00  0.00    +0.044 C 
ENDBRANCH   2  17
ENDBRANCH   1  11
BRANCH   1  21
ATOM     21  N   UNL     1      -2.658  -9.046  -2.552  0.00  0.00    +0.386 N 
ATOM     22  H   UNL     1      -1.678  -9.109  -2.785  0.00  0.00    -0.081 HD
BRANCH  21  23
ATOM     23  C   UNL     1      -3.425  -9.962  -3.406  0.00  0.00    -0.043 C 
BRANCH  23  24
ATOM     24  C   UNL     1      -3.105  -9.677  -4.875  0.00  0.00    +0.135 C 
BRANCH  24  25
ATOM     25  O   UNL     1      -1.721  -9.935  -5.120  0.00  0.00    -0.390 OA
ATOM     26  H   UNL     1      -1.437 -10.825  -4.870  0.00  0.00    +0.210 HD
ENDBRANCH  24  25
BRANCH  24  27
ATOM     27  C   UNL     1      -3.958 -10.581  -5.767  0.00  0.00    +0.258 C 
BRANCH  27  28
ATOM     28  O   UNL     1      -3.745 -10.236  -7.138  0.00  0.00    -0.489 OA
BRANCH  28  29
ATOM     29  C   UNL     1      -4.433 -10.949  -8.068  0.00  0.00    +0.121 A 
ATOM     30  C   UNL     1      -5.299 -11.957  -7.669  0.00  0.00    +0.047 A 
ATOM     31  C   UNL     1      -5.997 -12.681  -8.616  0.00  0.00    +0.023 A 
ATOM     32  C   UNL     1      -5.833 -12.402  -9.961  0.00  0.00    +0.041 A 
ATOM     33  C   UNL     1      -4.969 -11.398 -10.361  0.00  0.00    +0.023 A 
ATOM     34  C   UNL     1      -4.274 -10.667  -9.417  0.00  0.00    +0.047 A 
ATOM     35 CL   UNL     1      -6.710 -13.314 -11.149  0.00  0.00    -0.084 Cl
ENDBRANCH  28  29
ENDBRANCH  27  28
ENDBRANCH  24  27
ENDBRANCH  23  24
ENDBRANCH  21  23
BRANCH  21  36
ATOM     36  C   UNL     1      -2.850  -9.414  -1.143  0.00  0.00    -0.075 C 
BRANCH  36  37
ATOM     37  C   UNL     1      -2.229 -10.789  -0.886  0.00  0.00    -0.034 C 
ATOM     38  C   UNL     1      -0.715 -10.711  -1.095  0.00  0.00    +0.005 C 
ATOM     39  C   UNL     1      -2.524 -11.220   0.552  0.00  0.00    +0.005 C 
ENDBRANCH  36  37
ENDBRANCH  21  36
ENDBRANCH   1  21
TORSDOF 11
