REMARK  Name = ZINC09550124
REMARK  8 active torsions:
REMARK  status: ('A' for Active; 'I' for Inactive)
REMARK    1  A    between atoms: C_1  and  C_2
REMARK    2  A    between atoms: C_2  and  C_4
REMARK    3  A    between atoms: C_2  and  N_59
REMARK    4  A    between atoms: C_7  and  S_16
REMARK    5  A    between atoms: N_8  and  C_9
REMARK    6  A    between atoms: S_16  and  C_17
REMARK    7  A    between atoms: C_17  and  C_18
REMARK    8  A    between atoms: C_18  and  C_20
REMARK                            x       y       z     vdW  Elec       q    Type
REMARK                         _______ _______ _______ _____ _____    ______ ____
ROOT
ATOM      1  C   UNL     1       2.038   0.777  -0.013  0.00  0.00    +0.125 A 
ATOM      2  N   UNL     1       1.186   1.763   0.000  0.00  0.00    -0.135 NA
ATOM      3  N   UNL     1      -0.016   1.309   0.009  0.00  0.00    -0.122 NA
ATOM      4  C   UNL     1       0.002  -0.004   0.002  0.00  0.00    +0.196 A 
ATOM      5  N   UNL     1       1.315  -0.386  -0.013  0.00  0.00    -0.275 N 
ENDROOT
BRANCH   5   6
ATOM      6  C   UNL     1       1.817  -1.697  -0.025  0.00  0.00    +0.050 A 
ATOM      7  C   UNL     1       2.555  -2.168   1.052  0.00  0.00    +0.029 A 
ATOM      8  C   UNL     1       3.045  -3.459   1.040  0.00  0.00    +0.040 A 
ATOM      9  C   UNL     1       2.808  -4.281  -0.050  0.00  0.00    +0.124 A 
ATOM     10  C   UNL     1       2.076  -3.810  -1.127  0.00  0.00    +0.040 A 
ATOM     11  C   UNL     1       1.581  -2.521  -1.116  0.00  0.00    +0.029 A 
ATOM     12  F   UNL     1       3.291  -5.542  -0.061  0.00  0.00    -0.205 F 
ENDBRANCH   5   6
BRANCH   1  14
ATOM     13  C   UNL     1       4.033   1.300   1.365  0.00  0.00    -0.005 C 
ATOM     14  C   UNL     1       3.541   0.895  -0.026  0.00  0.00    -0.002 C 
BRANCH  14  20
ATOM     15  C   UNL     1       3.402   1.610  -2.335  0.00  0.00    -0.078 C 
ATOM     16  C   UNL     1       3.718   2.763  -3.291  0.00  0.00    -0.019 C 
ATOM     17  C   UNL     1       5.235   2.955  -3.368  0.00  0.00    -0.004 C 
ATOM     18  C   UNL     1       5.779   3.223  -1.962  0.00  0.00    -0.019 C 
ATOM     19  C   UNL     1       5.404   2.057  -1.045  0.00  0.00    -0.078 C 
ATOM     20  N   UNL     1       3.931   1.940  -0.995  0.00  0.00    +0.386 N 
ATOM     21  H   UNL     1       3.536   2.838  -0.693  0.00  0.00    -0.081 HD
ENDBRANCH  14  20
ENDBRANCH   1  14
BRANCH   4  22
ATOM     22  S   UNL     1      -1.400  -1.071   0.009  0.00  0.00    -0.078 S 
BRANCH  22  23
ATOM     23  C   UNL     1      -2.730   0.157   0.029  0.00  0.00    +0.157 C 
BRANCH  23  24
ATOM     24  C   UNL     1      -4.062  -0.546   0.037  0.00  0.00    +0.175 C 
ATOM     25  O   UNL     1      -4.109  -1.760   0.031  0.00  0.00    -0.291 OA
BRANCH  24  26
ATOM     26  C   UNL     1      -5.262   0.209   0.053  0.00  0.00    +0.043 A 
ATOM     27  C   UNL     1      -5.375   1.583   0.068  0.00  0.00    +0.095 A 
ATOM     28  N   UNL     1      -6.676   1.929   0.077  0.00  0.00    -0.360 N 
ATOM     29  H   UNL     1      -7.004   2.842   0.086  0.00  0.00    +0.165 HD
ATOM     30  C   UNL     1      -7.480   0.807   0.078  0.00  0.00    +0.047 A 
ATOM     31  C   UNL     1      -6.641  -0.318   0.063  0.00  0.00    +0.010 A 
ATOM     32  C   UNL     1      -7.187  -1.598   0.060  0.00  0.00    +0.011 A 
ATOM     33  C   UNL     1      -8.556  -1.756   0.071  0.00  0.00    +0.001 A 
ATOM     34  C   UNL     1      -9.388  -0.646   0.086  0.00  0.00    +0.002 A 
ATOM     35  C   UNL     1      -8.860   0.627   0.089  0.00  0.00    +0.026 A 
ENDBRANCH  24  26
ENDBRANCH  23  24
ENDBRANCH  22  23
ENDBRANCH   4  22
TORSDOF 7
