REMARK  Name = ZINC07737385
REMARK  7 active torsions:
REMARK  status: ('A' for Active; 'I' for Inactive)
REMARK    1  A    between atoms: C_1  and  C_2
REMARK    2  A    between atoms: C_2  and  C_3
REMARK    3  A    between atoms: C_2  and  C_4
REMARK    4  A    between atoms: C_4  and  C_6
REMARK    5  A    between atoms: C_4  and  O_12
REMARK    6  A    between atoms: O_12  and  C_13
REMARK    7  A    between atoms: C_13  and  C_15
REMARK                            x       y       z     vdW  Elec       q    Type
REMARK                         _______ _______ _______ _____ _____    ______ ____
ROOT
ATOM      1  C   UNL     1      -2.812   4.002  -0.889  0.00  0.00    +0.340 C 
ATOM      2  O   UNL     1      -3.788   3.287  -0.996  0.00  0.00    -0.245 OA
ENDROOT
BRANCH   1   3
ATOM      3  C   UNL     1      -2.902   5.430  -1.248  0.00  0.00    +0.060 A 
ATOM      4  C   UNL     1      -1.774   6.256  -1.124  0.00  0.00    +0.017 A 
ATOM      5  C   UNL     1      -1.842   7.577  -1.452  0.00  0.00    +0.027 A 
ATOM      6  C   UNL     1      -3.036   8.126  -1.915  0.00  0.00    +0.047 A 
ATOM      7  C   UNL     1      -4.177   7.308  -2.044  0.00  0.00    +0.004 A 
ATOM      8  C   UNL     1      -4.103   5.957  -1.713  0.00  0.00    +0.025 A 
ATOM      9  C   UNL     1      -5.238   8.178  -2.543  0.00  0.00    -0.019 A 
ATOM     10  C   UNL     1      -4.712   9.410  -2.684  0.00  0.00    +0.020 A 
ATOM     11  N   UNL     1      -3.397   9.392  -2.313  0.00  0.00    -0.358 N 
ATOM     12  H   UNL     1      -2.805  10.160  -2.327  0.00  0.00    +0.166 HD
ATOM     13  C   UNL     1      -5.495  10.602  -3.182  0.00  0.00    +0.053 C 
ATOM     14  C   UNL     1      -6.769  10.097  -3.868  0.00  0.00    +0.006 C 
ATOM     15  C   UNL     1      -7.487   9.106  -2.947  0.00  0.00    +0.005 C 
ATOM     16  C   UNL     1      -6.666   7.814  -2.854  0.00  0.00    +0.037 C 
ENDBRANCH   1   3
BRANCH   1  17
ATOM     17  O   UNL     1      -1.648   3.491  -0.444  0.00  0.00    -0.448 OA
BRANCH  17  18
ATOM     18  C   UNL     1      -1.633   2.078  -0.111  0.00  0.00    +0.265 C 
BRANCH  18  19
ATOM     19  C   UNL     1      -0.254   1.520  -0.350  0.00  0.00    +0.261 C 
ATOM     20  O   UNL     1      -0.068   0.322  -0.305  0.00  0.00    -0.271 OA
ATOM     21  N   UNL     1       0.774   2.351  -0.610  0.00  0.00    -0.237 N 
ATOM     22  C   UNL     1       2.025   1.862  -0.725  0.00  0.00    +0.303 C 
ATOM     23  O   UNL     1       2.225   0.670  -0.595  0.00  0.00    -0.253 OA
ATOM     24  N   UNL     1       3.053   2.694  -0.985  0.00  0.00    -0.313 N 
ATOM     25  H   UNL     1       0.614   3.302  -0.714  0.00  0.00    +0.159 HD
ATOM     26  H   UNL     1       2.893   3.645  -1.089  0.00  0.00    +0.146 HD
ATOM     27  H   UNL     1       3.953   2.342  -1.068  0.00  0.00    +0.146 HD
ENDBRANCH  18  19
BRANCH  18  29
ATOM     28  C   UNL     1      -3.341   2.594   1.638  0.00  0.00    +0.011 C 
ATOM     29  C   UNL     1      -2.007   1.897   1.362  0.00  0.00    +0.033 C 
ATOM     30  C   UNL     1      -2.136   0.406   1.676  0.00  0.00    +0.011 C 
ENDBRANCH  18  29
ENDBRANCH  17  18
ENDBRANCH   1  17
TORSDOF 5
