REMARK  Name = ZINC08432833
REMARK  7 active torsions:
REMARK  status: ('A' for Active; 'I' for Inactive)
REMARK    1  A    between atoms: C_1  and  C_2
REMARK    2  A    between atoms: C_5  and  S_8
REMARK    3  A    between atoms: S_8  and  N_11
REMARK    4  A    between atoms: C_16  and  C_17
REMARK    5  A    between atoms: C_16  and  N_64
REMARK    6  A    between atoms: N_19  and  N_20
REMARK    7  A    between atoms: C_21  and  C_22
REMARK                            x       y       z     vdW  Elec       q    Type
REMARK                         _______ _______ _______ _____ _____    ______ ____
ROOT
ATOM      1  C   UNL     1      -2.162   4.946  -1.866  0.00  0.00    +0.216 C 
ATOM      2  O   UNL     1      -1.597   5.664  -1.068  0.00  0.00    -0.276 OA
ATOM      3  N   UNL     1      -3.172   5.433  -2.614  0.00  0.00    -0.209 N 
ATOM      4  H   UNL     1      -3.672   4.843  -3.199  0.00  0.00    +0.177 HD
ENDROOT
BRANCH   3   5
ATOM      5  N   UNL     1      -3.500   6.794  -2.546  0.00  0.00    -0.188 NA
ATOM      6  C   UNL     1      -4.440   7.275  -3.307  0.00  0.00    +0.139 C 
BRANCH   6   7
ATOM      7  C   UNL     1      -5.230   6.377  -4.154  0.00  0.00    +0.010 A 
ATOM      8  C   UNL     1      -5.323   6.603  -5.542  0.00  0.00    -0.009 A 
ATOM      9  C   UNL     1      -4.666   7.689  -6.146  0.00  0.00    +0.009 A 
ATOM     10  C   UNL     1      -4.777   7.880  -7.488  0.00  0.00    +0.001 A 
ATOM     11  C   UNL     1      -5.529   7.022  -8.289  0.00  0.00    +0.001 A 
ATOM     12  C   UNL     1      -6.178   5.948  -7.770  0.00  0.00    +0.008 A 
ATOM     13  C   UNL     1      -6.110   5.697  -6.382  0.00  0.00    -0.017 A 
ATOM     14  C   UNL     1      -6.780   4.613  -5.814  0.00  0.00    +0.017 A 
ATOM     15  C   UNL     1      -6.697   4.385  -4.440  0.00  0.00    -0.017 A 
ATOM     16  C   UNL     1      -5.910   5.279  -3.588  0.00  0.00    -0.009 A 
ATOM     17  C   UNL     1      -5.849   5.020  -2.208  0.00  0.00    +0.009 A 
ATOM     18  C   UNL     1      -6.517   3.953  -1.693  0.00  0.00    +0.001 A 
ATOM     19  C   UNL     1      -7.267   3.101  -2.502  0.00  0.00    +0.001 A 
ATOM     20  C   UNL     1      -7.367   3.295  -3.843  0.00  0.00    +0.008 A 
ENDBRANCH   6   7
ENDBRANCH   3   5
BRANCH   1  21
ATOM     21  C   UNL     1      -1.735   3.509  -2.022  0.00  0.00    +0.020 C 
BRANCH  21  27
ATOM     22  N   UNL     1       0.531   1.921   1.137  0.00  0.00    -0.180 NA
ATOM     23  C   UNL     1       0.957   1.583  -0.229  0.00  0.00    +0.091 C 
ATOM     24  C   UNL     1      -0.220   1.817  -1.182  0.00  0.00    -0.061 C 
ATOM     25  C   UNL     1      -1.246   3.396   0.347  0.00  0.00    -0.061 C 
ATOM     26  C   UNL     1      -0.111   3.226   1.362  0.00  0.00    +0.091 C 
ATOM     27  N   UNL     1      -0.698   3.207  -1.014  0.00  0.00    +0.387 N 
ATOM     28  H   UNL     1       0.093   3.849  -1.146  0.00  0.00    -0.081 HD
BRANCH  22  29
ATOM     29  S   UNL     1       0.764   0.860   2.387  0.00  0.00    +0.061 S 
ATOM     30  O   UNL     1      -0.197   1.187   3.381  0.00  0.00    -0.153 OA
ATOM     31  O   UNL     1       0.851  -0.435   1.809  0.00  0.00    -0.153 OA
BRANCH  29  36
ATOM     32  C   UNL     1       6.179   2.058   4.762  0.00  0.00    +0.044 C 
ATOM     33  C   UNL     1       4.827   1.758   4.169  0.00  0.00    -0.050 A 
ATOM     34  C   UNL     1       3.702   2.401   4.652  0.00  0.00    +0.005 A 
ATOM     35  C   UNL     1       2.462   2.127   4.108  0.00  0.00    +0.029 A 
ATOM     36  C   UNL     1       2.345   1.210   3.081  0.00  0.00    +0.105 A 
ATOM     37  C   UNL     1       3.469   0.563   2.601  0.00  0.00    +0.029 A 
ATOM     38  C   UNL     1       4.710   0.841   3.142  0.00  0.00    +0.005 A 
ENDBRANCH  29  36
ENDBRANCH  22  29
ENDBRANCH  21  27
ENDBRANCH   1  21
TORSDOF 6
