REMARK  Name = ZINC14745476
REMARK  9 active torsions:
REMARK  status: ('A' for Active; 'I' for Inactive)
REMARK    1  A    between atoms: C_1  and  C_2
REMARK    2  A    between atoms: C_2  and  C_3
REMARK    3  A    between atoms: C_3  and  N_64
REMARK    4  A    between atoms: C_4  and  C_5
REMARK    5  A    between atoms: C_4  and  N_64
REMARK    6  A    between atoms: C_8  and  N_64
REMARK    7  A    between atoms: C_14  and  C_20
REMARK    8  A    between atoms: N_16  and  C_17
REMARK    9  A    between atoms: C_17  and  C_18
REMARK                            x       y       z     vdW  Elec       q    Type
REMARK                         _______ _______ _______ _____ _____    ______ ____
ROOT
ATOM      1  C   UNL     1       5.448  -1.538   1.306  0.00  0.00    -0.064 C 
ATOM      2  C   UNL     1       4.454  -1.860   0.187  0.00  0.00    -0.009 C 
ATOM      3  C   UNL     1       3.830  -0.560  -0.338  0.00  0.00    +0.054 C 
ATOM      4  C   UNL     1       3.335   0.238   0.840  0.00  0.00    +0.043 A 
ATOM      5  C   UNL     1       3.716   0.011   2.121  0.00  0.00    +0.004 A 
ATOM      6  C   UNL     1       3.031   0.957   2.902  0.00  0.00    +0.151 A 
ATOM      7  N   UNL     1       2.304   1.681   2.067  0.00  0.00    -0.166 NA
ATOM      8  N   UNL     1       2.470   1.266   0.859  0.00  0.00    -0.264 N 
ATOM      9  C   UNL     1       4.685  -1.057   2.547  0.00  0.00    +0.024 C 
ENDROOT
BRANCH   6  10
ATOM     10  C   UNL     1       3.111   1.116   4.368  0.00  0.00    +0.267 C 
ATOM     11  O   UNL     1       3.901   0.450   5.009  0.00  0.00    -0.268 OA
ATOM     12  N   UNL     1       2.309   1.999   4.995  0.00  0.00    -0.296 N 
ATOM     13  C   UNL     1       1.264   2.719   4.254  0.00  0.00    +0.108 C 
ATOM     14  C   UNL     1      -0.079   2.505   4.970  0.00  0.00    +0.019 C 
ATOM     15  C   UNL     1       0.058   2.928   6.434  0.00  0.00    +0.003 C 
ATOM     16  C   UNL     1       1.114   2.060   7.122  0.00  0.00    +0.019 C 
ATOM     17  C   UNL     1       2.466   2.265   6.431  0.00  0.00    +0.108 C 
ENDBRANCH   6  10
BRANCH   1  18
ATOM     18  N   UNL     1       6.197  -2.765   1.650  0.00  0.00    +0.382 N 
ATOM     19  H   UNL     1       5.536  -3.477   1.982  0.00  0.00    -0.081 HD
BRANCH  18  20
ATOM     20  C   UNL     1       7.173  -2.477   2.722  0.00  0.00    -0.079 C 
BRANCH  20  22
ATOM     21  C   UNL     1       8.755  -3.529   4.345  0.00  0.00    +0.002 C 
ATOM     22  C   UNL     1       7.856  -3.783   3.133  0.00  0.00    -0.022 C 
ENDBRANCH  20  22
ENDBRANCH  18  20
BRANCH  18  23
ATOM     23  C   UNL     1       6.897  -3.281   0.455  0.00  0.00    -0.075 C 
BRANCH  23  24
ATOM     24  C   UNL     1       7.897  -2.248  -0.069  0.00  0.00    -0.028 C 
ATOM     25  C   UNL     1       7.653  -1.673  -1.466  0.00  0.00    +0.002 C 
ATOM     26  C   UNL     1       8.796  -2.663  -1.235  0.00  0.00    +0.002 C 
ENDBRANCH  23  24
ENDBRANCH  18  23
ENDBRANCH   1  18
BRANCH   8  27
ATOM     27  C   UNL     1       1.817   1.836  -0.322  0.00  0.00    +0.170 C 
BRANCH  27  28
ATOM     28  C   UNL     1       0.514   1.121  -0.569  0.00  0.00    -0.012 C 
ATOM     29  C   UNL     1      -0.601   1.803  -0.661  0.00  0.00    +0.006 C 
ENDBRANCH  27  28
ENDBRANCH   8  27
TORSDOF 8
