REMARK  Name = ZINC67446797
REMARK  7 active torsions:
REMARK  status: ('A' for Active; 'I' for Inactive)
REMARK    1  A    between atoms: C_1  and  C_2
REMARK    2  A    between atoms: C_9  and  C_12
REMARK    3  A    between atoms: C_12  and  C_13
REMARK    4  A    between atoms: C_13  and  N_14
REMARK    5  A    between atoms: C_15  and  C_17
REMARK    6  A    between atoms: C_17  and  C_18
REMARK    7  A    between atoms: C_21  and  C_27
REMARK                            x       y       z     vdW  Elec       q    Type
REMARK                         _______ _______ _______ _____ _____    ______ ____
ROOT
ATOM      1  N   UNL     1       1.253  -0.503   6.731  0.00  0.00    -0.315 N 
ATOM      2  C   UNL     1       2.205   0.188   7.388  0.00  0.00    +0.215 C 
ATOM      3  O   UNL     1       3.051   0.795   6.766  0.00  0.00    -0.276 OA
ATOM      4  H   UNL     1       0.576  -0.989   7.229  0.00  0.00    +0.149 HD
ENDROOT
BRANCH   1   5
ATOM      5  C   UNL     1       1.240  -0.522   5.266  0.00  0.00    +0.112 C 
BRANCH   5   6
ATOM      6  C   UNL     1       0.066  -1.373   4.778  0.00  0.00    +0.093 C 
BRANCH   6  15
ATOM      7  C   UNL     1      -0.018   1.503   0.010  0.00  0.00    +0.046 C 
ATOM      8  C   UNL     1       0.002  -0.004   0.002  0.00  0.00    -0.023 A 
ATOM      9  C   UNL     1       0.006  -0.682  -1.184  0.00  0.00    +0.005 A 
ATOM     10  C   UNL     1       0.025  -2.069  -1.207  0.00  0.00    +0.002 A 
ATOM     11  C   UNL     1       0.040  -2.787  -0.029  0.00  0.00    +0.028 A 
ATOM     12  C   UNL     1       0.037  -2.115   1.185  0.00  0.00    +0.066 A 
ATOM     13  C   UNL     1       0.023  -0.710   1.207  0.00  0.00    +0.092 A 
ATOM     14  N   UNL     1       0.030  -0.335   2.512  0.00  0.00    -0.232 NA
ATOM     15  C   UNL     1       0.052  -1.392   3.271  0.00  0.00    +0.110 A 
ATOM     16  N   UNL     1       0.048  -2.517   2.506  0.00  0.00    -0.342 N 
ATOM     17  H   UNL     1       0.062  -3.432   2.829  0.00  0.00    +0.167 HD
ENDBRANCH   6  15
ENDBRANCH   5   6
ENDBRANCH   1   5
BRANCH   2  18
ATOM     18  C   UNL     1       2.219   0.208   8.894  0.00  0.00    +0.118 C 
BRANCH  18  19
ATOM     19  C   UNL     1       3.393   1.058   9.383  0.00  0.00    +0.082 C 
ATOM     20  C   UNL     1       3.481   0.980  10.911  0.00  0.00    +0.044 C 
ATOM     21  C   UNL     1       4.588   1.928  11.385  0.00  0.00    +0.071 C 
ATOM     22  N   UNL     1       4.317   3.275  10.877  0.00  0.00    -0.324 N 
ATOM     23  C   UNL     1       3.651   3.466   9.729  0.00  0.00    +0.131 C 
ATOM     24  S   UNL     1       3.384   5.070   9.191  0.00  0.00    -0.019 S 
ATOM     25  N   UNL     1       3.188   2.451   8.983  0.00  0.00    -0.323 N 
ATOM     26  C   UNL     1       5.939   1.443  10.854  0.00  0.00    +0.028 C 
ATOM     27  H   UNL     1       4.625   4.043  11.382  0.00  0.00    +0.148 HD
ATOM     28  H   UNL     1       2.706   2.644   8.164  0.00  0.00    +0.148 HD
ENDBRANCH  18  19
ENDBRANCH   2  18
TORSDOF 5
