REMARK  Name = ZINC02369915
REMARK  10 active torsions:
REMARK  status: ('A' for Active; 'I' for Inactive)
REMARK    1  A    between atoms: C_1  and  C_2
REMARK    2  A    between atoms: C_2  and  C_3
REMARK    3  A    between atoms: C_3  and  C_4
REMARK    4  A    between atoms: C_4  and  O_5
REMARK    5  A    between atoms: O_5  and  C_6
REMARK    6  A    between atoms: C_9  and  C_12
REMARK    7  A    between atoms: C_15  and  O_33
REMARK    8  A    between atoms: N_17  and  C_24
REMARK    9  A    between atoms: C_29  and  C_31
REMARK   10  A    between atoms: C_29  and  C_32
REMARK                            x       y       z     vdW  Elec       q    Type
REMARK                         _______ _______ _______ _____ _____    ______ ____
ROOT
ATOM      1  C   UNL     1       1.846  -8.063  -3.114  0.00  0.00    +0.115 C 
ATOM      2  C   UNL     1       1.126  -8.454  -4.367  0.00  0.00    +0.072 A 
ATOM      3  C   UNL     1       0.072  -7.675  -4.900  0.00  0.00    +0.238 A 
ATOM      4  N   UNL     1      -0.363  -8.249  -5.988  0.00  0.00    -0.131 NA
ATOM      5  N   UNL     1       0.386  -9.407  -6.197  0.00  0.00    -0.243 N 
ATOM      6  C   UNL     1       1.303  -9.518  -5.179  0.00  0.00    +0.132 A 
ATOM      7  N   UNL     1       2.176 -10.578  -5.124  0.00  0.00    -0.270 N 
ATOM      8  C   UNL     1       3.155 -10.921  -4.342  0.00  0.00    +0.228 C 
ATOM      9  O   UNL     1       3.769 -11.906  -4.695  0.00  0.00    -0.275 OA
ATOM     10  C   UNL     1       3.639 -10.304  -3.089  0.00  0.00    +0.166 C 
ATOM     11  S   UNL     1       3.585  -8.506  -3.131  0.00  0.00    -0.138 S 
ATOM     12  H   UNL     1       2.027 -11.220  -5.836  0.00  0.00    +0.156 HD
ENDROOT
BRANCH   5  13
ATOM     13  C   UNL     1       0.222 -10.344  -7.311  0.00  0.00    +0.114 C 
ATOM     14  C   UNL     1      -1.198 -10.918  -7.294  0.00  0.00    +0.055 C 
ATOM     15  C   UNL     1      -1.384 -11.835  -8.506  0.00  0.00    +0.162 C 
ATOM     16  O   UNL     1      -1.129 -11.097  -9.703  0.00  0.00    -0.374 OA
ATOM     17  C   UNL     1       0.199 -10.577  -9.796  0.00  0.00    +0.066 C 
ATOM     18  C   UNL     1       0.451  -9.610  -8.636  0.00  0.00    +0.061 C 
ATOM     19  C   UNL     1       1.204 -11.728  -9.726  0.00  0.00    +0.041 C 
ATOM     20  C   UNL     1       0.365  -9.835 -11.124  0.00  0.00    +0.041 C 
ENDBRANCH   5  13
BRANCH   1  24
ATOM     21  C   UNL     1       1.514  -3.833  -2.603  0.00  0.00    +0.121 A 
ATOM     22  C   UNL     1       0.980  -4.692  -1.654  0.00  0.00    +0.046 A 
ATOM     23  C   UNL     1       1.088  -6.059  -1.821  0.00  0.00    +0.008 A 
ATOM     24  C   UNL     1       1.729  -6.571  -2.934  0.00  0.00    -0.030 A 
ATOM     25  C   UNL     1       2.262  -5.718  -3.882  0.00  0.00    +0.008 A 
ATOM     26  C   UNL     1       2.151  -4.350  -3.722  0.00  0.00    +0.046 A 
BRANCH  21  27
ATOM     27  O   UNL     1       1.408  -2.488  -2.441  0.00  0.00    -0.492 OA
BRANCH  27  28
ATOM     28  C   UNL     1       0.739  -2.027  -1.265  0.00  0.00    +0.229 C 
BRANCH  28  29
ATOM     29  C   UNL     1       0.718  -0.497  -1.257  0.00  0.00    +0.041 C 
BRANCH  29  31
ATOM     30  C   UNL     1      -0.019   1.526   0.010  0.00  0.00    +0.004 C 
ATOM     31  C   UNL     1       0.002  -0.004   0.002  0.00  0.00    -0.000 C 
ENDBRANCH  29  31
ENDBRANCH  28  29
ENDBRANCH  27  28
ENDBRANCH  21  27
ENDBRANCH   1  24
BRANCH   3  32
ATOM     32  O   UNL     1      -0.409  -6.521  -4.366  0.00  0.00    -0.491 OA
ATOM     33  H   UNL     1       0.034  -5.724  -4.688  0.00  0.00    +0.294 HD
ENDBRANCH   3  32
TORSDOF 7
