REMARK  Name = ZINC45896420
REMARK  10 active torsions:
REMARK  status: ('A' for Active; 'I' for Inactive)
REMARK    1  A    between atoms: C_1  and  C_2
REMARK    2  A    between atoms: C_2  and  C_3
REMARK    3  A    between atoms: C_8  and  N_9
REMARK    4  A    between atoms: C_10  and  C_12
REMARK    5  A    between atoms: C_12  and  C_14
REMARK    6  A    between atoms: C_12  and  N_15
REMARK    7  A    between atoms: C_18  and  N_29
REMARK    8  A    between atoms: C_20  and  C_22
REMARK    9  A    between atoms: C_30  and  C_32
REMARK   10  A    between atoms: C_32  and  C_33
REMARK                            x       y       z     vdW  Elec       q    Type
REMARK                         _______ _______ _______ _____ _____    ______ ____
ROOT
ATOM      1  N   UNL     1       6.338  -0.617   0.818  0.00  0.00    -0.216 N 
ATOM      2  C   UNL     1       6.949  -1.573   1.546  0.00  0.00    +0.289 A 
ATOM      3  O   UNL     1       6.300  -2.286   2.294  0.00  0.00    -0.264 OA
ATOM      4  C   UNL     1       8.352  -1.744   1.437  0.00  0.00    +0.102 A 
ATOM      5  C   UNL     1       9.057  -0.935   0.593  0.00  0.00    +0.059 A 
ATOM      6  C   UNL     1       8.382   0.053  -0.152  0.00  0.00    +0.093 A 
ATOM      7  N   UNL     1       7.080   0.197  -0.044  0.00  0.00    -0.167 NA
ENDROOT
BRANCH   6   8
ATOM      8  C   UNL     1       9.147   0.934  -1.069  0.00  0.00    +0.002 A 
ATOM      9  C   UNL     1      10.526   0.780  -1.198  0.00  0.00    +0.011 A 
ATOM     10  C   UNL     1      11.232   1.602  -2.052  0.00  0.00    +0.020 A 
ATOM     11  C   UNL     1      10.573   2.577  -2.781  0.00  0.00    +0.041 A 
ATOM     12  C   UNL     1       9.204   2.734  -2.657  0.00  0.00    +0.020 A 
ATOM     13  C   UNL     1       8.487   1.913  -1.809  0.00  0.00    +0.011 A 
ATOM     14 CL   UNL     1      11.468   3.608  -3.854  0.00  0.00    -0.084 Cl
ENDBRANCH   6   8
BRANCH   4  15
ATOM     15  N   UNL     1       9.005  -2.728   2.183  0.00  0.00    -0.281 N 
ATOM     16  C   UNL     1       8.916  -2.724   3.528  0.00  0.00    +0.217 C 
ATOM     17  O   UNL     1       8.343  -1.818   4.095  0.00  0.00    -0.275 OA
ATOM     18  H   UNL     1       9.521  -3.415   1.733  0.00  0.00    +0.155 HD
BRANCH  16  19
ATOM     19  C   UNL     1       9.530  -3.845   4.327  0.00  0.00    +0.093 C 
ATOM     20  C   UNL     1       9.289  -3.599   5.818  0.00  0.00    +0.013 C 
ENDBRANCH  16  19
ENDBRANCH   4  15
BRANCH   1  21
ATOM     21  C   UNL     1       4.888  -0.434   0.926  0.00  0.00    +0.194 C 
ATOM     22  C   UNL     1       4.588   0.988   1.406  0.00  0.00    +0.043 C 
BRANCH  21  24
ATOM     23  N   UNL     1       2.917  -0.537  -0.566  0.00  0.00    -0.284 N 
ATOM     24  C   UNL     1       4.253  -0.653  -0.423  0.00  0.00    +0.242 C 
ATOM     25  O   UNL     1       4.942  -0.935  -1.380  0.00  0.00    -0.273 OA
ATOM     26  H   UNL     1       2.373  -0.244   0.182  0.00  0.00    +0.155 HD
BRANCH  23  32
ATOM     27  C   UNL     1       1.046  -1.398  -1.826  0.00  0.00    -0.026 A 
ATOM     28  C   UNL     1       0.453  -1.689  -3.039  0.00  0.00    +0.005 A 
ATOM     29  C   UNL     1       1.125  -1.426  -4.219  0.00  0.00    +0.000 A 
ATOM     30  C   UNL     1       2.391  -0.873  -4.189  0.00  0.00    +0.002 A 
ATOM     31  C   UNL     1       2.990  -0.580  -2.980  0.00  0.00    +0.023 A 
ATOM     32  C   UNL     1       2.316  -0.837  -1.793  0.00  0.00    +0.037 A 
BRANCH  27  34
ATOM     33  C   UNL     1      -0.416  -0.422  -0.078  0.00  0.00    +0.009 C 
ATOM     34  C   UNL     1       0.314  -1.685  -0.541  0.00  0.00    +0.033 C 
ENDBRANCH  27  34
ENDBRANCH  23  32
ENDBRANCH  21  24
ENDBRANCH   1  21
TORSDOF 7
