REMARK  Name = ZINC63187604
REMARK  6 active torsions:
REMARK  status: ('A' for Active; 'I' for Inactive)
REMARK    1  A    between atoms: C_1  and  C_2
REMARK    2  A    between atoms: C_7  and  S_12
REMARK    3  A    between atoms: S_12  and  C_13
REMARK    4  A    between atoms: C_13  and  C_15
REMARK    5  A    between atoms: C_13  and  C_24
REMARK    6  A    between atoms: C_15  and  C_16
REMARK                            x       y       z     vdW  Elec       q    Type
REMARK                         _______ _______ _______ _____ _____    ______ ____
ROOT
ATOM      1  S   UNL     1       1.567  -5.231   2.029  0.00  0.00    -0.100 S 
ENDROOT
BRANCH   1   8
ATOM      2  C   UNL     1      -0.018   1.503   0.010  0.00  0.00    +0.044 C 
ATOM      3  C   UNL     1       0.002  -0.004   0.002  0.00  0.00    -0.048 A 
ATOM      4  C   UNL     1       0.005  -0.672  -1.235  0.00  0.00    +0.005 A 
ATOM      5  C   UNL     1       0.022  -2.017  -1.335  0.00  0.00    +0.028 A 
ATOM      6  C   UNL     1       0.040  -2.834  -0.114  0.00  0.00    +0.061 A 
ATOM      7  N   UNL     1       0.057  -4.120   0.090  0.00  0.00    -0.355 N 
ATOM      8  C   UNL     1       0.067  -4.335   1.542  0.00  0.00    +0.236 C 
ATOM      9  N   UNL     1       0.053  -3.002   2.159  0.00  0.00    -0.355 N 
ATOM     10  C   UNL     1       0.037  -2.127   1.195  0.00  0.00    +0.061 A 
ATOM     11  C   UNL     1       0.022  -0.657   1.181  0.00  0.00    +0.030 A 
ATOM     12  H   UNL     1       0.062  -4.809  -0.593  0.00  0.00    +0.162 HD
ATOM     13  H   UNL     1       0.055  -2.810   3.109  0.00  0.00    +0.162 HD
ENDBRANCH   1   8
BRANCH   1  14
ATOM     14  C   UNL     1       2.920  -4.166   1.458  0.00  0.00    +0.167 C 
BRANCH  14  15
ATOM     15  C   UNL     1       2.897  -4.088  -0.047  0.00  0.00    +0.369 C 
ATOM     16  O   UNL     1       3.379  -3.123  -0.615  0.00  0.00    -0.245 OA
ATOM     17  O   UNL     1       2.395  -4.989  -0.697  0.00  0.00    -0.245 OA
ENDBRANCH  14  15
BRANCH  14  18
ATOM     18  C   UNL     1       4.257  -4.749   1.917  0.00  0.00    +0.062 C 
BRANCH  18  19
ATOM     19  C   UNL     1       4.330  -4.713   3.422  0.00  0.00    -0.026 A 
ATOM     20  C   UNL     1       4.944  -3.651   4.060  0.00  0.00    +0.025 A 
ATOM     21  C   UNL     1       5.010  -3.619   5.441  0.00  0.00    +0.041 A 
ATOM     22  C   UNL     1       4.463  -4.649   6.185  0.00  0.00    +0.021 A 
ATOM     23  C   UNL     1       3.849  -5.711   5.548  0.00  0.00    +0.022 A 
ATOM     24  C   UNL     1       3.778  -5.741   4.166  0.00  0.00    +0.044 A 
ATOM     25 CL   UNL     1       3.001  -7.071   3.366  0.00  0.00    -0.083 Cl
ATOM     26 CL   UNL     1       5.781  -2.285   6.242  0.00  0.00    -0.084 Cl
ENDBRANCH  18  19
ENDBRANCH  14  18
ENDBRANCH   1  14
TORSDOF 5
