REMARK  Name = ZINC22712526
REMARK  2 active torsions:
REMARK  status: ('A' for Active; 'I' for Inactive)
REMARK    1  A    between atoms: C_13  and  C_29
REMARK    2  A    between atoms: C_19  and  C_24
REMARK                            x       y       z     vdW  Elec       q    Type
REMARK                         _______ _______ _______ _____ _____    ______ ____
ROOT
ATOM      1  C   UNL     1       1.024  -3.766  10.112  0.00  0.00    +0.002 A 
ATOM      2  C   UNL     1       2.274  -3.549   9.554  0.00  0.00    +0.004 A 
ATOM      3  C   UNL     1       2.408  -2.783   8.414  0.00  0.00    +0.048 A 
ATOM      4  C   UNL     1       1.287  -2.227   7.819  0.00  0.00    +0.157 A 
ATOM      5  C   UNL     1       0.019  -2.445   8.380  0.00  0.00    +0.111 A 
ATOM      6  C   UNL     1      -0.102  -3.221   9.534  0.00  0.00    +0.031 A 
ATOM      7  N   UNL     1      -0.874  -1.787   7.592  0.00  0.00    -0.195 NA
ATOM      8  C   UNL     1      -0.224  -1.204   6.618  0.00  0.00    +0.295 A 
ATOM      9  O   UNL     1       1.092  -1.456   6.725  0.00  0.00    -0.424 OA
ATOM     10  N   UNL     1      -0.806  -0.445   5.622  0.00  0.00    -0.241 N 
ATOM     11  C   UNL     1      -0.021   0.124   4.642  0.00  0.00    +0.188 C 
ATOM     12  N   UNL     1       1.260  -0.059   4.666  0.00  0.00    -0.243 NA
ATOM     13  C   UNL     1       2.155   0.516   3.672  0.00  0.00    +0.173 C 
ATOM     14  C   UNL     1       1.401   0.954   2.442  0.00  0.00    +0.041 C 
ATOM     15  C   UNL     1       0.062   1.127   2.488  0.00  0.00    +0.020 C 
ATOM     16  N   UNL     1      -0.613   0.879   3.655  0.00  0.00    -0.290 N 
ATOM     17  C   UNL     1      -0.709   1.583   1.277  0.00  0.00    +0.060 C 
ATOM     18  C   UNL     1      -0.013   1.086   0.008  0.00  0.00    +0.039 C 
ATOM     19  C   UNL     1       1.423   1.620  -0.003  0.00  0.00    +0.088 C 
ATOM     20  C   UNL     1       2.120   1.181   1.257  0.00  0.00    +0.164 C 
ATOM     21  O   UNL     1       3.325   1.022   1.249  0.00  0.00    -0.292 OA
ATOM     22  H   UNL     1      -1.895  -0.294   5.611  0.00  0.00    +0.159 HD
ATOM     23  H   UNL     1      -1.626   1.282   3.803  0.00  0.00    +0.154 HD
ENDROOT
BRANCH  13  24
ATOM     24  C   UNL     1       2.857   1.708   4.270  0.00  0.00    -0.013 A 
ATOM     25  C   UNL     1       2.152   2.604   5.051  0.00  0.00    +0.044 A 
ATOM     26  C   UNL     1       2.797   3.697   5.605  0.00  0.00    +0.126 A 
ATOM     27  C   UNL     1       4.146   3.897   5.368  0.00  0.00    +0.076 A 
ATOM     28  C   UNL     1       4.850   3.001   4.582  0.00  0.00    +0.126 A 
ATOM     29  C   UNL     1       4.204   1.906   4.033  0.00  0.00    +0.044 A 
ATOM     30  F   UNL     1       6.166   3.196   4.350  0.00  0.00    -0.205 F 
ATOM     31  F   UNL     1       2.108   4.571   6.372  0.00  0.00    -0.205 F 
ENDBRANCH  13  24
BRANCH  18  32
ATOM     32  C   UNL     1      -0.749   1.589  -1.207  0.00  0.00    -0.006 A 
ATOM     33  C   UNL     1      -1.334   0.881  -2.204  0.00  0.00    +0.011 A 
ATOM     34  C   UNL     1      -1.961   1.562  -3.231  0.00  0.00    +0.008 A 
ATOM     35  C   UNL     1      -1.972   2.917  -3.210  0.00  0.00    +0.045 A 
ATOM     36  S   UNL     1      -1.083   3.271  -1.703  0.00  0.00    -0.101 S 
ENDBRANCH  18  32
TORSDOF 2
