REMARK  Name = ZINC52635036
REMARK  6 active torsions:
REMARK  status: ('A' for Active; 'I' for Inactive)
REMARK    1  A    between atoms: N_4  and  C_8
REMARK    2  A    between atoms: C_11  and  S_14
REMARK    3  A    between atoms: S_14  and  C_17
REMARK    4  A    between atoms: C_17  and  C_18
REMARK    5  A    between atoms: C_24  and  N_26
REMARK    6  A    between atoms: C_27  and  C_29
REMARK                            x       y       z     vdW  Elec       q    Type
REMARK                         _______ _______ _______ _____ _____    ______ ____
ROOT
ATOM      1  C   UNL     1       9.410  -3.684   1.753  0.00  0.00    +0.031 C 
ATOM      2  C   UNL     1      10.498  -2.850   1.073  0.00  0.00    +0.007 C 
ATOM      3  C   UNL     1      11.839  -3.580   1.176  0.00  0.00    +0.000 C 
ATOM      4  C   UNL     1      12.197  -3.784   2.650  0.00  0.00    +0.002 C 
ATOM      5  C   UNL     1      11.109  -4.617   3.329  0.00  0.00    +0.022 C 
ATOM      6  C   UNL     1       9.768  -3.887   3.226  0.00  0.00    +0.078 C 
ENDROOT
BRANCH   6   7
ATOM      7  N   UNL     1       9.870  -2.584   3.888  0.00  0.00    -0.308 N 
ATOM      8  C   UNL     1       9.674  -2.486   5.218  0.00  0.00    +0.244 C 
ATOM      9  O   UNL     1       9.413  -3.479   5.868  0.00  0.00    -0.270 OA
ATOM     10  H   UNL     1      10.078  -1.791   3.369  0.00  0.00    +0.149 HD
BRANCH   8  11
ATOM     11  C   UNL     1       9.777  -1.169   5.887  0.00  0.00    +0.039 A 
ATOM     12  C   UNL     1      10.075  -0.031   5.107  0.00  0.00    +0.014 A 
ATOM     13  C   UNL     1      10.183   1.197   5.659  0.00  0.00    +0.012 A 
ATOM     14  C   UNL     1       9.984   1.353   7.104  0.00  0.00    +0.014 A 
ATOM     15  C   UNL     1      10.027   2.435   7.923  0.00  0.00    +0.047 C 
ATOM     16  C   UNL     1       9.731   1.918   9.313  0.00  0.00    +0.161 C 
ATOM     17  N   UNL     1       9.526   0.472   9.169  0.00  0.00    -0.379 N 
ATOM     18  C   UNL     1       9.671   0.152   7.905  0.00  0.00    +0.045 A 
ATOM     19  C   UNL     1       9.574  -1.098   7.231  0.00  0.00    +0.039 A 
ATOM     20 CL   UNL     1      10.355   4.078   7.468  0.00  0.00    -0.086 Cl
ATOM     21  H   UNL     1       9.318  -0.144   9.889  0.00  0.00    +0.160 HD
ENDBRANCH   8  11
ENDBRANCH   6   7
BRANCH   1  22
ATOM     22  C   UNL     1       8.069  -2.954   1.650  0.00  0.00    +0.177 C 
BRANCH  22  23
ATOM     23  S   UNL     1       7.573  -2.844  -0.092  0.00  0.00    -0.003 S 
ATOM     24  O   UNL     1       7.265  -4.136  -0.595  0.00  0.00    -0.169 OA
ATOM     25  O   UNL     1       8.454  -1.982  -0.798  0.00  0.00    -0.169 OA
BRANCH  23  29
ATOM     26  C   UNL     1       3.610  -0.651  -0.037  0.00  0.00    +0.050 A 
ATOM     27  C   UNL     1       4.798   0.060  -0.144  0.00  0.00    +0.028 A 
ATOM     28  C   UNL     1       6.005  -0.611  -0.160  0.00  0.00    +0.029 A 
ATOM     29  C   UNL     1       6.031  -1.991  -0.070  0.00  0.00    +0.088 A 
ATOM     30  C   UNL     1       4.850  -2.702   0.037  0.00  0.00    +0.029 A 
ATOM     31  C   UNL     1       3.640  -2.036   0.059  0.00  0.00    +0.028 A 
BRANCH  26  35
ATOM     32  C   UNL     1      -0.018   1.358   0.015  0.00  0.00    +0.007 A 
ATOM     33  C   UNL     1       0.675   1.091   1.204  0.00  0.00    +0.018 A 
ATOM     34  C   UNL     1       1.857   0.433   1.164  0.00  0.00    +0.095 A 
ATOM     35  N   UNL     1       2.385   0.026  -0.021  0.00  0.00    -0.284 N 
ATOM     36  C   UNL     1       1.743   0.269  -1.179  0.00  0.00    +0.256 A 
ATOM     37  O   UNL     1       2.229  -0.103  -2.236  0.00  0.00    -0.267 OA
ATOM     38  C   UNL     1       0.513   0.949  -1.173  0.00  0.00    +0.071 A 
ENDBRANCH  26  35
ENDBRANCH  23  29
ENDBRANCH  22  23
ENDBRANCH   1  22
TORSDOF 6
