REMARK  Name = ZINC08753475
REMARK  15 active torsions:
REMARK  status: ('A' for Active; 'I' for Inactive)
REMARK    1  A    between atoms: C_1  and  C_2
REMARK    2  A    between atoms: C_2  and  C_3
REMARK    3  A    between atoms: C_2  and  C_4
REMARK    4  A    between atoms: C_2  and  C_5
REMARK    5  A    between atoms: C_8  and  S_11
REMARK    6  A    between atoms: S_11  and  N_14
REMARK    7  A    between atoms: N_14  and  C_15
REMARK    8  A    between atoms: C_15  and  C_16
REMARK    9  A    between atoms: C_16  and  N_74
REMARK   10  A    between atoms: N_19  and  S_22
REMARK   11  A    between atoms: S_22  and  C_25
REMARK   12  A    between atoms: C_28  and  C_31
REMARK   13  A    between atoms: C_31  and  C_32
REMARK   14  A    between atoms: C_31  and  C_33
REMARK   15  A    between atoms: C_31  and  C_34
REMARK                            x       y       z     vdW  Elec       q    Type
REMARK                         _______ _______ _______ _____ _____    ______ ____
ROOT
ATOM      1  C   UNL     1      -2.948   5.436  -2.446  0.00  0.00    -0.061 C 
ATOM      2  C   UNL     1      -3.035   6.957  -2.613  0.00  0.00    +0.091 C 
ATOM      3  N   UNL     1      -3.138   7.264  -4.048  0.00  0.00    -0.180 NA
ATOM      4  C   UNL     1      -2.150   6.667  -4.959  0.00  0.00    +0.091 C 
ATOM      5  C   UNL     1      -2.098   5.158  -4.700  0.00  0.00    -0.061 C 
ATOM      6  N   UNL     1      -1.824   4.932  -3.264  0.00  0.00    +0.382 N 
ATOM      7  H   UNL     1      -0.970   5.439  -3.004  0.00  0.00    -0.082 HD
ENDROOT
BRANCH   3   8
ATOM      8  S   UNL     1      -4.333   8.255  -4.621  0.00  0.00    +0.061 S 
ATOM      9  O   UNL     1      -4.735   9.078  -3.535  0.00  0.00    -0.153 OA
ATOM     10  O   UNL     1      -3.862   8.792  -5.850  0.00  0.00    -0.153 OA
BRANCH   8  11
ATOM     11  C   UNL     1      -5.713   7.233  -5.016  0.00  0.00    +0.105 A 
ATOM     12  C   UNL     1      -5.838   6.699  -6.285  0.00  0.00    +0.029 A 
ATOM     13  C   UNL     1      -6.918   5.893  -6.592  0.00  0.00    +0.006 A 
ATOM     14  C   UNL     1      -7.879   5.629  -5.634  0.00  0.00    -0.042 A 
ATOM     15  C   UNL     1      -7.757   6.167  -4.367  0.00  0.00    +0.006 A 
ATOM     16  C   UNL     1      -6.674   6.970  -4.058  0.00  0.00    +0.029 A 
BRANCH  14  17
ATOM     17  C   UNL     1      -9.059   4.755  -5.971  0.00  0.00    -0.013 C 
ATOM     18  C   UNL     1     -10.353   5.549  -5.781  0.00  0.00    +0.015 C 
ATOM     19  C   UNL     1      -8.953   4.294  -7.426  0.00  0.00    +0.015 C 
ATOM     20  C   UNL     1      -9.069   3.534  -5.049  0.00  0.00    +0.015 C 
ENDBRANCH  14  17
ENDBRANCH   8  11
ENDBRANCH   3   8
BRANCH   6  21
ATOM     21  C   UNL     1      -1.622   3.491  -3.009  0.00  0.00    -0.062 C 
BRANCH  21  22
ATOM     22  C   UNL     1      -1.125   3.309  -1.574  0.00  0.00    +0.087 C 
BRANCH  22  23
ATOM     23  N   UNL     1      -0.897   1.885  -1.312  0.00  0.00    -0.192 NA
ATOM     24  H   UNL     1      -1.263   1.218  -1.913  0.00  0.00    +0.148 HD
BRANCH  23  25
ATOM     25  S   UNL     1      -0.017   1.417   0.010  0.00  0.00    +0.058 S 
ATOM     26  O   UNL     1       0.002  -0.004   0.002  0.00  0.00    -0.153 OA
ATOM     27  O   UNL     1       1.172   2.195   0.003  0.00  0.00    -0.153 OA
BRANCH  25  31
ATOM     28  C   UNL     1      -2.353   2.659   3.683  0.00  0.00    -0.042 A 
ATOM     29  C   UNL     1      -2.559   1.412   3.121  0.00  0.00    +0.006 A 
ATOM     30  C   UNL     1      -1.846   1.033   2.000  0.00  0.00    +0.029 A 
ATOM     31  C   UNL     1      -0.927   1.900   1.439  0.00  0.00    +0.105 A 
ATOM     32  C   UNL     1      -0.717   3.145   2.004  0.00  0.00    +0.029 A 
ATOM     33  C   UNL     1      -1.434   3.526   3.123  0.00  0.00    +0.006 A 
BRANCH  28  35
ATOM     34  C   UNL     1      -2.839   2.098   6.049  0.00  0.00    +0.015 C 
ATOM     35  C   UNL     1      -3.131   3.072   4.906  0.00  0.00    -0.013 C 
ATOM     36  C   UNL     1      -2.716   4.485   5.320  0.00  0.00    +0.015 C 
ATOM     37  C   UNL     1      -4.628   3.052   4.589  0.00  0.00    +0.015 C 
ENDBRANCH  28  35
ENDBRANCH  25  31
ENDBRANCH  23  25
ENDBRANCH  22  23
ENDBRANCH  21  22
ENDBRANCH   6  21
TORSDOF 9
