REMARK  Name = ZINC40516225
REMARK  8 active torsions:
REMARK  status: ('A' for Active; 'I' for Inactive)
REMARK    1  A    between atoms: C_1  and  C_2
REMARK    2  A    between atoms: C_2  and  C_3
REMARK    3  A    between atoms: C_3  and  C_4
REMARK    4  A    between atoms: C_4  and  C_6
REMARK    5  A    between atoms: C_4  and  N_7
REMARK    6  A    between atoms: C_8  and  C_10
REMARK    7  A    between atoms: C_10  and  C_12
REMARK    8  A    between atoms: C_10  and  N_13
REMARK                            x       y       z     vdW  Elec       q    Type
REMARK                         _______ _______ _______ _____ _____    ______ ____
ROOT
ATOM      1  C   UNL     1       0.343  -4.238  -2.611  0.00  0.00    +0.189 C 
ATOM      2  C   UNL     1       1.446  -3.277  -3.060  0.00  0.00    +0.042 C 
ENDROOT
BRANCH   1   3
ATOM      3  N   UNL     1       0.911  -5.575  -2.416  0.00  0.00    -0.257 N 
ATOM      4  C   UNL     1       2.145  -5.851  -1.943  0.00  0.00    +0.126 A 
ATOM      5  C   UNL     1       2.286  -7.196  -1.914  0.00  0.00    +0.077 A 
ATOM      6  C   UNL     1       1.092  -7.765  -2.387  0.00  0.00    +0.152 A 
ATOM      7  N   UNL     1       0.266  -6.789  -2.683  0.00  0.00    -0.155 NA
ATOM      8  N   UNL     1       0.827  -9.134  -2.516  0.00  0.00    -0.341 N 
ATOM      9 BR   UNL     1       3.818  -8.143  -1.338  0.00  0.00    -0.045 Br
ATOM     10  H   UNL     1       1.503  -9.784  -2.266  0.00  0.00    +0.144 HD
ATOM     11  H   UNL     1      -0.032  -9.432  -2.854  0.00  0.00    +0.144 HD
ENDBRANCH   1   3
BRANCH   1  13
ATOM     12  N   UNL     1      -0.834  -2.537  -1.256  0.00  0.00    -0.311 N 
ATOM     13  C   UNL     1      -0.252  -3.751  -1.315  0.00  0.00    +0.238 C 
ATOM     14  O   UNL     1      -0.206  -4.451  -0.326  0.00  0.00    -0.273 OA
ATOM     15  H   UNL     1      -0.871  -1.977  -2.047  0.00  0.00    +0.149 HD
BRANCH  12  16
ATOM     16  C   UNL     1      -1.413  -2.063   0.004  0.00  0.00    +0.070 C 
ATOM     17  C   UNL     1      -2.841  -2.594   0.141  0.00  0.00    +0.028 C 
BRANCH  16  18
ATOM     18  C   UNL     1      -1.433  -0.534   0.013  0.00  0.00    +0.022 C 
BRANCH  18  20
ATOM     19  C   UNL     1      -0.019   1.526   0.010  0.00  0.00    +0.004 C 
ATOM     20  C   UNL     1       0.002  -0.004   0.002  0.00  0.00    -0.002 C 
ENDBRANCH  18  20
ENDBRANCH  16  18
ENDBRANCH  12  16
ENDBRANCH   1  13
TORSDOF 5
