REMARK  Name = ZINC06553672
REMARK  11 active torsions:
REMARK  status: ('A' for Active; 'I' for Inactive)
REMARK    1  A    between atoms: C_1  and  C_2
REMARK    2  A    between atoms: C_2  and  C_3
REMARK    3  A    between atoms: C_3  and  C_4
REMARK    4  A    between atoms: C_5  and  C_29
REMARK    5  A    between atoms: C_6  and  C_14
REMARK    6  A    between atoms: N_16  and  C_17
REMARK    7  A    between atoms: C_17  and  C_18
REMARK    8  A    between atoms: C_18  and  C_19
REMARK    9  A    between atoms: C_22  and  S_25
REMARK   10  A    between atoms: S_25  and  N_28
REMARK   11  A    between atoms: C_29  and  C_30
REMARK                            x       y       z     vdW  Elec       q    Type
REMARK                         _______ _______ _______ _____ _____    ______ ____
ROOT
ATOM      1  C   UNL     1       3.596   2.129  -0.065  0.00  0.00    +0.245 C 
ATOM      2  O   UNL     1       4.051   2.501  -1.129  0.00  0.00    -0.270 OA
ATOM      3  N   UNL     1       4.248   2.407   1.081  0.00  0.00    -0.311 N 
ATOM      4  H   UNL     1       3.886   2.110   1.930  0.00  0.00    +0.149 HD
ENDROOT
BRANCH   1   7
ATOM      5  C   UNL     1      -0.070   1.274   0.119  0.00  0.00    +0.046 A 
ATOM      6  C   UNL     1       1.105   2.020   0.087  0.00  0.00    -0.014 A 
ATOM      7  C   UNL     1       2.327   1.370  -0.028  0.00  0.00    +0.051 A 
ATOM      8  C   UNL     1       2.317  -0.046  -0.109  0.00  0.00    +0.013 A 
ATOM      9  C   UNL     1       3.506  -0.778  -0.228  0.00  0.00    +0.011 A 
ATOM     10  C   UNL     1       3.455  -2.137  -0.303  0.00  0.00    +0.001 A 
ATOM     11  C   UNL     1       2.235  -2.810  -0.264  0.00  0.00    +0.002 A 
ATOM     12  C   UNL     1       1.062  -2.130  -0.149  0.00  0.00    +0.028 A 
ATOM     13  C   UNL     1       1.075  -0.726  -0.069  0.00  0.00    +0.072 A 
ATOM     14  N   UNL     1      -0.062  -0.034   0.044  0.00  0.00    -0.251 NA
BRANCH   6  15
ATOM     15  C   UNL     1       1.052   3.524   0.177  0.00  0.00    +0.034 C 
ATOM     16  C   UNL     1       0.932   4.115  -1.229  0.00  0.00    +0.009 C 
ENDBRANCH   6  15
BRANCH   5  17
ATOM     17  C   UNL     1      -1.390   1.992   0.239  0.00  0.00    +0.055 C 
BRANCH  17  19
ATOM     18  C   UNL     1      -3.050   2.949   1.842  0.00  0.00    +0.004 C 
ATOM     19  C   UNL     1      -1.765   2.128   1.716  0.00  0.00    +0.003 C 
ENDBRANCH  17  19
ENDBRANCH   5  17
ENDBRANCH   1   7
BRANCH   3  20
ATOM     20  C   UNL     1       5.506   3.159   1.044  0.00  0.00    +0.109 C 
BRANCH  20  21
ATOM     21  C   UNL     1       6.035   3.337   2.468  0.00  0.00    +0.054 C 
BRANCH  21  22
ATOM     22  C   UNL     1       7.328   4.110   2.430  0.00  0.00    -0.046 A 
ATOM     23  C   UNL     1       8.531   3.439   2.320  0.00  0.00    +0.005 A 
ATOM     24  C   UNL     1       9.717   4.148   2.281  0.00  0.00    +0.029 A 
ATOM     25  C   UNL     1       9.700   5.528   2.361  0.00  0.00    +0.105 A 
ATOM     26  C   UNL     1       8.497   6.199   2.476  0.00  0.00    +0.029 A 
ATOM     27  C   UNL     1       7.311   5.490   2.511  0.00  0.00    +0.005 A 
BRANCH  25  28
ATOM     28  S   UNL     1      11.212   6.432   2.315  0.00  0.00    +0.056 S 
ATOM     29  O   UNL     1      12.160   5.605   1.655  0.00  0.00    -0.153 OA
ATOM     30  O   UNL     1      10.891   7.738   1.857  0.00  0.00    -0.153 OA
BRANCH  28  31
ATOM     31  N   UNL     1      11.733   6.594   3.879  0.00  0.00    -0.204 NA
ATOM     32  H   UNL     1      11.213   6.216   4.605  0.00  0.00    +0.144 HD
ATOM     33  H   UNL     1      12.559   7.067   4.069  0.00  0.00    +0.144 HD
ENDBRANCH  28  31
ENDBRANCH  25  28
ENDBRANCH  21  22
ENDBRANCH  20  21
ENDBRANCH   3  20
TORSDOF 9
