REMARK  Name = ZINC13607179
REMARK  9 active torsions:
REMARK  status: ('A' for Active; 'I' for Inactive)
REMARK    1  A    between atoms: C_1  and  C_2
REMARK    2  A    between atoms: C_12  and  C_13
REMARK    3  A    between atoms: C_13  and  C_14
REMARK    4  A    between atoms: C_14  and  C_15
REMARK    5  A    between atoms: N_17  and  C_18
REMARK    6  A    between atoms: C_18  and  C_19
REMARK    7  A    between atoms: C_19  and  C_20
REMARK    8  A    between atoms: C_27  and  O_30
REMARK    9  A    between atoms: O_30  and  C_31
REMARK                            x       y       z     vdW  Elec       q    Type
REMARK                         _______ _______ _______ _____ _____    ______ ____
ROOT
ATOM      1  C   UNL     1      -0.729   1.579   1.267  0.00  0.00    +0.052 C 
ENDROOT
BRANCH   1  13
ATOM      2  C   UNL     1       1.394   3.151   2.453  0.00  0.00    +0.045 C 
ATOM      3  C   UNL     1       0.995   1.821   3.040  0.00  0.00    -0.030 A 
ATOM      4  C   UNL     1       1.668   1.284   4.227  0.00  0.00    +0.022 A 
ATOM      5  C   UNL     1       2.698   1.995   4.842  0.00  0.00    +0.023 A 
ATOM      6  C   UNL     1       3.319   1.464   5.964  0.00  0.00    +0.024 A 
ATOM      7  C   UNL     1       2.909   0.215   6.479  0.00  0.00    +0.139 A 
ATOM      8  C   UNL     1       1.884  -0.485   5.861  0.00  0.00    +0.093 A 
ATOM      9  C   UNL     1       1.258   0.037   4.740  0.00  0.00    +0.143 A 
ATOM     10  O   UNL     1       0.262  -0.653   4.145  0.00  0.00    -0.422 OA
ATOM     11  C   UNL     1      -0.351  -0.156   3.066  0.00  0.00    +0.341 A 
ATOM     12  O   UNL     1      -1.249  -0.803   2.558  0.00  0.00    -0.245 OA
ATOM     13  C   UNL     1       0.000   1.080   2.488  0.00  0.00    +0.041 A 
ATOM     14  O   UNL     1       3.678  -0.045   7.557  0.00  0.00    -0.459 OA
ATOM     15  C   UNL     1       4.557   0.948   7.774  0.00  0.00    +0.109 A 
ATOM     16  C   UNL     1       4.400   1.906   6.846  0.00  0.00    +0.001 A 
ATOM     17  C   UNL     1       5.207   3.174   6.770  0.00  0.00    +0.039 C 
ATOM     18  C   UNL     1       5.920   3.377   8.113  0.00  0.00    +0.005 C 
ATOM     19  C   UNL     1       6.628   2.079   8.511  0.00  0.00    +0.008 C 
ATOM     20  C   UNL     1       5.584   1.020   8.882  0.00  0.00    +0.075 C 
ENDBRANCH   1  13
BRANCH   1  21
ATOM     21  C   UNL     1      -0.013   1.086   0.008  0.00  0.00    +0.100 C 
BRANCH  21  22
ATOM     22  C   UNL     1      -0.742   1.585  -1.213  0.00  0.00    +0.213 C 
ATOM     23  O   UNL     1      -1.736   2.268  -1.088  0.00  0.00    -0.276 OA
ATOM     24  N   UNL     1      -0.288   1.272  -2.443  0.00  0.00    -0.315 N 
ATOM     25  H   UNL     1       0.507   0.726  -2.543  0.00  0.00    +0.149 HD
BRANCH  24  26
ATOM     26  C   UNL     1      -0.997   1.758  -3.630  0.00  0.00    +0.109 C 
BRANCH  26  27
ATOM     27  C   UNL     1      -0.281   1.264  -4.889  0.00  0.00    +0.056 C 
BRANCH  27  28
ATOM     28  C   UNL     1      -1.010   1.763  -6.110  0.00  0.00    -0.021 A 
ATOM     29  C   UNL     1      -1.942   1.099  -6.810  0.00  0.00    +0.087 A 
ATOM     30  N   UNL     1      -2.379   1.868  -7.853  0.00  0.00    -0.360 N 
ATOM     31  H   UNL     1      -3.052   1.602  -8.499  0.00  0.00    +0.165 HD
ATOM     32  C   UNL     1      -1.721   3.080  -7.849  0.00  0.00    +0.047 A 
ATOM     33  C   UNL     1      -0.840   3.068  -6.753  0.00  0.00    +0.006 A 
ATOM     34  C   UNL     1      -0.026   4.175  -6.500  0.00  0.00    +0.056 A 
ATOM     35  C   UNL     1      -0.102   5.280  -7.324  0.00  0.00    +0.121 A 
ATOM     36  C   UNL     1      -0.980   5.291  -8.404  0.00  0.00    +0.047 A 
ATOM     37  C   UNL     1      -1.783   4.203  -8.666  0.00  0.00    +0.030 A 
BRANCH  35  38
ATOM     38  O   UNL     1       0.683   6.363  -7.079  0.00  0.00    -0.495 OA
ATOM     39  C   UNL     1       0.555   7.473  -7.969  0.00  0.00    +0.277 C 
ENDBRANCH  35  38
ENDBRANCH  27  28
ENDBRANCH  26  27
ENDBRANCH  24  26
ENDBRANCH  21  22
ENDBRANCH   1  21
TORSDOF 7
