REMARK  Name = ZINC21711180
REMARK  10 active torsions:
REMARK  status: ('A' for Active; 'I' for Inactive)
REMARK    1  A    between atoms: C_1  and  C_2
REMARK    2  A    between atoms: C_2  and  C_3
REMARK    3  A    between atoms: C_3  and  C_4
REMARK    4  A    between atoms: C_4  and  N_5
REMARK    5  A    between atoms: N_5  and  C_6
REMARK    6  A    between atoms: C_7  and  N_18
REMARK    7  A    between atoms: N_8  and  C_15
REMARK    8  A    between atoms: C_15  and  C_16
REMARK    9  A    between atoms: C_16  and  C_17
REMARK   10  A    between atoms: C_19  and  C_21
REMARK                            x       y       z     vdW  Elec       q    Type
REMARK                         _______ _______ _______ _____ _____    ______ ____
ROOT
ATOM      1  C   UNL     1       1.135   3.034  -0.505  0.00  0.00    +0.140 A 
ATOM      2  C   UNL     1       0.717   2.056   0.375  0.00  0.00    +0.127 A 
ATOM      3  N   UNL     1      -0.450   1.375   0.116  0.00  0.00    -0.280 N 
ATOM      4  C   UNL     1      -1.178   1.663  -0.978  0.00  0.00    +0.331 A 
ATOM      5  O   UNL     1      -2.209   1.054  -1.186  0.00  0.00    -0.246 OA
ATOM      6  N   UNL     1      -0.784   2.609  -1.848  0.00  0.00    -0.273 N 
ATOM      7  H   UNL     1      -1.390   2.823  -2.741  0.00  0.00    +0.173 HD
ATOM      8  C   UNL     1       0.352   3.305  -1.642  0.00  0.00    +0.277 A 
ATOM      9  O   UNL     1       0.697   4.165  -2.435  0.00  0.00    -0.266 OA
ENDROOT
BRANCH   1  10
ATOM     10  N   UNL     1       2.327   3.749  -0.268  0.00  0.00    -0.260 N 
ATOM     11  C   UNL     1       2.294   5.090  -0.137  0.00  0.00    +0.251 C 
ATOM     12  O   UNL     1       3.330   5.715  -0.020  0.00  0.00    -0.270 OA
BRANCH  11  13
ATOM     13  C   UNL     1       0.996   5.802  -0.136  0.00  0.00    +0.042 A 
ATOM     14  C   UNL     1       0.932   7.181  -0.364  0.00  0.00    +0.033 A 
ATOM     15  C   UNL     1      -0.300   7.805  -0.355  0.00  0.00    +0.113 A 
ATOM     16  N   UNL     1      -1.405   7.120  -0.135  0.00  0.00    -0.244 NA
ATOM     17  C   UNL     1      -1.390   5.820   0.084  0.00  0.00    +0.130 A 
ATOM     18  C   UNL     1      -0.201   5.114   0.087  0.00  0.00    +0.053 A 
ATOM     19 CL   UNL     1      -2.884   4.982   0.366  0.00  0.00    -0.062 Cl
ENDBRANCH  11  13
BRANCH  10  20
ATOM     20  C   UNL     1       3.602   3.034  -0.164  0.00  0.00    +0.114 C 
BRANCH  20  21
ATOM     21  C   UNL     1       4.187   2.829  -1.563  0.00  0.00    +0.019 C 
BRANCH  21  23
ATOM     22  C   UNL     1       6.104   1.878  -2.853  0.00  0.00    +0.004 C 
ATOM     23  C   UNL     1       5.518   2.083  -1.455  0.00  0.00    -0.002 C 
ENDBRANCH  21  23
ENDBRANCH  20  21
ENDBRANCH  10  20
ENDBRANCH   1  10
BRANCH   2  24
ATOM     24  N   UNL     1       1.458   1.765   1.495  0.00  0.00    -0.343 N 
ATOM     25  H   UNL     1       1.119   0.984   2.191  0.00  0.00    +0.144 HD
ATOM     26  H   UNL     1       2.391   2.313   1.695  0.00  0.00    +0.144 HD
ENDBRANCH   2  24
BRANCH   3  27
ATOM     27  C   UNL     1      -0.906   0.335   1.041  0.00  0.00    +0.128 C 
BRANCH  27  28
ATOM     28  C   UNL     1      -1.805   0.960   2.109  0.00  0.00    +0.018 C 
ATOM     29  C   UNL     1      -2.282  -0.127   3.075  0.00  0.00    +0.005 C 
ENDBRANCH  27  28
ENDBRANCH   3  27
TORSDOF 8
