REMARK  Name = ZINC41003817
REMARK  14 active torsions:
REMARK  status: ('A' for Active; 'I' for Inactive)
REMARK    1  A    between atoms: C_1  and  C_2
REMARK    2  A    between atoms: C_2  and  C_3
REMARK    3  A    between atoms: C_3  and  C_4
REMARK    4  A    between atoms: C_4  and  O_5
REMARK    5  A    between atoms: O_5  and  C_6
REMARK    6  A    between atoms: C_6  and  C_8
REMARK    7  A    between atoms: C_9  and  C_36
REMARK    8  A    between atoms: C_13  and  S_33
REMARK    9  A    between atoms: C_16  and  C_18
REMARK   10  A    between atoms: C_22  and  O_24
REMARK   11  A    between atoms: O_24  and  C_25
REMARK   12  A    between atoms: C_25  and  C_26
REMARK   13  A    between atoms: S_33  and  C_34
REMARK   14  A    between atoms: C_34  and  C_35
REMARK                            x       y       z     vdW  Elec       q    Type
REMARK                         _______ _______ _______ _____ _____    ______ ____
ROOT
ATOM      1  C   UNL     1      -4.213  -4.488   0.225  0.00  0.00    +0.082 C 
ATOM      2  C   UNL     1      -4.334  -5.788  -0.085  0.00  0.00    +0.020 C 
ATOM      3  N   UNL     1      -5.554  -6.377  -0.307  0.00  0.00    -0.287 N 
ATOM      4  C   UNL     1      -6.650  -5.539  -0.460  0.00  0.00    +0.219 A 
ATOM      5  N   UNL     1      -7.854  -5.801  -0.889  0.00  0.00    -0.187 NA
ATOM      6  C   UNL     1      -8.589  -4.679  -0.876  0.00  0.00    +0.210 A 
ATOM      7  N   UNL     1      -7.848  -3.687  -0.432  0.00  0.00    -0.141 NA
ATOM      8  N   UNL     1      -6.590  -4.220  -0.153  0.00  0.00    -0.220 N 
ATOM      9  C   UNL     1      -5.394  -3.566   0.376  0.00  0.00    +0.179 C 
ATOM     10  C   UNL     1      -3.089  -6.630  -0.194  0.00  0.00    +0.061 C 
ATOM     11  H   UNL     1      -5.647  -7.341  -0.354  0.00  0.00    +0.155 HD
ENDROOT
BRANCH   9  12
ATOM     12  C   UNL     1      -5.596  -3.242   1.834  0.00  0.00    -0.015 A 
ATOM     13  C   UNL     1      -5.841  -4.258   2.740  0.00  0.00    +0.006 A 
ATOM     14  C   UNL     1      -6.027  -3.964   4.077  0.00  0.00    +0.004 A 
ATOM     15  C   UNL     1      -5.968  -2.654   4.513  0.00  0.00    +0.045 A 
ATOM     16  C   UNL     1      -5.722  -1.633   3.606  0.00  0.00    +0.121 A 
ATOM     17  C   UNL     1      -5.530  -1.932   2.265  0.00  0.00    +0.051 A 
BRANCH  16  18
ATOM     18  O   UNL     1      -5.664  -0.344   4.032  0.00  0.00    -0.487 OA
BRANCH  18  19
ATOM     19  C   UNL     1      -5.865  -0.112   5.428  0.00  0.00    +0.264 C 
BRANCH  19  20
ATOM     20  C   UNL     1      -5.766   1.365   5.711  0.00  0.00    -0.010 A 
ATOM     21  C   UNL     1      -4.542   1.927   6.024  0.00  0.00    +0.008 A 
ATOM     22  C   UNL     1      -4.450   3.281   6.284  0.00  0.00    +0.020 A 
ATOM     23  C   UNL     1      -5.583   4.074   6.230  0.00  0.00    +0.041 A 
ATOM     24  C   UNL     1      -6.807   3.511   5.917  0.00  0.00    +0.020 A 
ATOM     25  C   UNL     1      -6.896   2.157   5.651  0.00  0.00    +0.008 A 
ATOM     26 CL   UNL     1      -5.468   5.776   6.557  0.00  0.00    -0.084 Cl
ENDBRANCH  19  20
ENDBRANCH  18  19
ENDBRANCH  16  18
ENDBRANCH   9  12
BRANCH   1  27
ATOM     27  C   UNL     1      -2.918  -3.962   0.426  0.00  0.00    +0.339 C 
ATOM     28  O   UNL     1      -2.414  -3.247  -0.421  0.00  0.00    -0.245 OA
BRANCH  27  29
ATOM     29  O   UNL     1      -2.239  -4.251   1.556  0.00  0.00    -0.461 OA
BRANCH  29  30
ATOM     30  C   UNL     1      -0.935  -3.684   1.692  0.00  0.00    +0.232 C 
BRANCH  30  31
ATOM     31  C   UNL     1      -0.326  -4.120   3.027  0.00  0.00    +0.041 C 
BRANCH  31  33
ATOM     32  C   UNL     1       1.679  -3.949   4.507  0.00  0.00    +0.004 C 
ATOM     33  C   UNL     1       1.071  -3.513   3.173  0.00  0.00    -0.000 C 
ENDBRANCH  31  33
ENDBRANCH  30  31
ENDBRANCH  29  30
ENDBRANCH  27  29
ENDBRANCH   1  27
BRANCH   6  34
ATOM     34  S   UNL     1     -10.274  -4.553  -1.374  0.00  0.00    -0.085 S 
BRANCH  34  35
ATOM     35  C   UNL     1     -10.711  -6.242  -1.874  0.00  0.00    +0.074 C 
ATOM     36  C   UNL     1     -12.169  -6.276  -2.336  0.00  0.00    +0.016 C 
ENDBRANCH  34  35
ENDBRANCH   6  34
TORSDOF 11
