REMARK  Name = ZINC12586009
REMARK  11 active torsions:
REMARK  status: ('A' for Active; 'I' for Inactive)
REMARK    1  A    between atoms: C_1  and  C_2
REMARK    2  A    between atoms: C_3  and  C_9
REMARK    3  A    between atoms: C_4  and  C_8
REMARK    4  A    between atoms: C_9  and  C_10
REMARK    5  A    between atoms: C_10  and  N_62
REMARK    6  A    between atoms: C_11  and  N_62
REMARK    7  A    between atoms: C_12  and  C_13
REMARK    8  A    between atoms: C_12  and  N_62
REMARK    9  A    between atoms: N_15  and  C_27
REMARK   10  A    between atoms: C_17  and  C_18
REMARK   11  A    between atoms: C_27  and  C_28
REMARK                            x       y       z     vdW  Elec       q    Type
REMARK                         _______ _______ _______ _____ _____    ______ ____
ROOT
ATOM      1  C   UNL     1       3.621  -5.368  -2.832  0.00  0.00    -0.016 A 
ATOM      2  C   UNL     1       4.968  -5.451  -2.787  0.00  0.00    +0.111 A 
ATOM      3  N   UNL     1       5.306  -6.759  -2.803  0.00  0.00    -0.266 N 
ATOM      4  N   UNL     1       4.128  -7.514  -2.860  0.00  0.00    -0.168 NA
ATOM      5  C   UNL     1       3.108  -6.681  -2.872  0.00  0.00    +0.129 A 
ENDROOT
BRANCH   5   6
ATOM      6  C   UNL     1       1.678  -7.056  -2.923  0.00  0.00    +0.156 A 
ATOM      7  C   UNL     1       1.164  -8.065  -3.665  0.00  0.00    +0.060 A 
ATOM      8  C   UNL     1      -0.277  -8.067  -3.404  0.00  0.00    +0.021 A 
ATOM      9  C   UNL     1      -1.346  -8.844  -3.853  0.00  0.00    +0.011 A 
ATOM     10  C   UNL     1      -2.611  -8.580  -3.405  0.00  0.00    +0.001 A 
ATOM     11  C   UNL     1      -2.837  -7.546  -2.508  0.00  0.00    +0.004 A 
ATOM     12  C   UNL     1      -1.793  -6.768  -2.053  0.00  0.00    +0.047 A 
ATOM     13  C   UNL     1      -0.500  -7.018  -2.495  0.00  0.00    +0.136 A 
ATOM     14  O   UNL     1       0.693  -6.447  -2.233  0.00  0.00    -0.453 OA
ENDBRANCH   5   6
BRANCH   1  15
ATOM     15  C   UNL     1       2.810  -4.098  -2.834  0.00  0.00    -0.040 C 
BRANCH  15  17
ATOM     16  C   UNL     1       3.411  -3.403  -5.074  0.00  0.00    -0.096 C 
ATOM     17  N   UNL     1       2.307  -3.857  -4.203  0.00  0.00    +0.381 N 
ATOM     18  H   UNL     1       1.926  -4.734  -4.577  0.00  0.00    -0.082 HD
BRANCH  17  19
ATOM     19  C   UNL     1       1.234  -2.841  -4.175  0.00  0.00    -0.074 C 
BRANCH  19  20
ATOM     20  C   UNL     1       0.582  -2.775  -5.558  0.00  0.00    +0.020 C 
BRANCH  20  23
ATOM     21  C   UNL     1       0.860   0.269  -6.223  0.00  0.00    +0.065 C 
ATOM     22  C   UNL     1      -0.409  -0.441  -5.828  0.00  0.00    +0.036 A 
ATOM     23  C   UNL     1      -0.530  -1.757  -5.540  0.00  0.00    -0.006 A 
ATOM     24  C   UNL     1      -1.869  -2.007  -5.224  0.00  0.00    +0.063 A 
ATOM     25  N   UNL     1      -2.529  -0.881  -5.318  0.00  0.00    -0.179 NA
ATOM     26  N   UNL     1      -1.628   0.123  -5.698  0.00  0.00    -0.281 N 
ATOM     27  H   UNL     1      -1.850   1.086  -5.847  0.00  0.00    +0.189 HD
ATOM     28  C   UNL     1      -2.453  -3.343  -4.841  0.00  0.00    +0.068 C 
ENDBRANCH  20  23
ENDBRANCH  19  20
ENDBRANCH  17  19
ENDBRANCH  15  17
ENDBRANCH   1  15
BRANCH   3  29
ATOM     29  C   UNL     1       6.670  -7.294  -2.765  0.00  0.00    +0.178 C 
BRANCH  29  30
ATOM     30  C   UNL     1       6.799  -8.260  -1.617  0.00  0.00    -0.026 A 
ATOM     31  C   UNL     1       7.197  -7.806  -0.373  0.00  0.00    +0.005 A 
ATOM     32  C   UNL     1       7.310  -8.693   0.682  0.00  0.00    +0.000 A 
ATOM     33  C   UNL     1       7.037 -10.034   0.491  0.00  0.00    +0.000 A 
ATOM     34  C   UNL     1       6.644 -10.489  -0.754  0.00  0.00    +0.000 A 
ATOM     35  C   UNL     1       6.525  -9.602  -1.808  0.00  0.00    +0.005 A 
ENDBRANCH  29  30
ENDBRANCH   3  29
TORSDOF 8
