REMARK  Name = ZINC09310094
REMARK  5 active torsions:
REMARK  status: ('A' for Active; 'I' for Inactive)
REMARK    1  A    between atoms: C_4  and  C_7
REMARK    2  A    between atoms: C_7  and  N_54
REMARK    3  A    between atoms: C_10  and  N_13
REMARK    4  A    between atoms: C_14  and  C_15
REMARK    5  A    between atoms: N_21  and  C_24
REMARK                            x       y       z     vdW  Elec       q    Type
REMARK                         _______ _______ _______ _____ _____    ______ ____
ROOT
ATOM      1  C   UNL     1       1.657  -2.244   7.500  0.00  0.00    +0.202 C 
ATOM      2  C   UNL     1       0.535  -3.174   7.722  0.00  0.00    +0.236 C 
ATOM      3  O   UNL     1      -0.479  -3.099   7.054  0.00  0.00    -0.274 OA
ATOM      4  N   UNL     1       0.664  -4.112   8.683  0.00  0.00    -0.266 N 
ATOM      5  C   UNL     1       1.773  -4.200   9.430  0.00  0.00    +0.150 C 
ATOM      6  S   UNL     1       1.846  -5.418  10.632  0.00  0.00    -0.018 S 
ATOM      7  N   UNL     1       2.829  -3.387   9.286  0.00  0.00    -0.221 N 
ATOM      8  C   UNL     1       2.842  -2.405   8.361  0.00  0.00    +0.243 C 
ATOM      9  O   UNL     1       3.806  -1.673   8.241  0.00  0.00    -0.274 OA
ATOM     10  H   UNL     1      -0.064  -4.733   8.839  0.00  0.00    +0.157 HD
ENDROOT
BRANCH   7  11
ATOM     11  C   UNL     1       3.944  -3.559  10.117  0.00  0.00    +0.043 A 
ATOM     12  C   UNL     1       4.092  -2.776  11.254  0.00  0.00    +0.025 A 
ATOM     13  C   UNL     1       5.190  -2.952  12.074  0.00  0.00    +0.022 A 
ATOM     14  C   UNL     1       6.147  -3.899  11.757  0.00  0.00    +0.041 A 
ATOM     15  C   UNL     1       6.005  -4.677  10.622  0.00  0.00    +0.022 A 
ATOM     16  C   UNL     1       4.906  -4.510   9.802  0.00  0.00    +0.025 A 
ATOM     17 CL   UNL     1       7.529  -4.113  12.786  0.00  0.00    -0.084 Cl
ENDBRANCH   7  11
BRANCH   1  19
ATOM     18  N   UNL     1       0.567  -1.231   5.661  0.00  0.00    -0.291 NA
ATOM     19  C   UNL     1       1.599  -1.262   6.529  0.00  0.00    +0.100 C 
BRANCH  18  22
ATOM     20  C   UNL     1      -0.481   2.177   4.379  0.00  0.00    -0.076 C 
ATOM     21  C   UNL     1      -0.296   1.043   5.390  0.00  0.00    +0.008 C 
ATOM     22  C   UNL     1       0.438  -0.120   4.716  0.00  0.00    +0.101 C 
ATOM     23  C   UNL     1      -0.362  -0.578   3.494  0.00  0.00    +0.008 C 
ATOM     24  C   UNL     1      -0.545   0.603   2.538  0.00  0.00    -0.076 C 
ATOM     25  N   UNL     1      -1.279   1.678   3.238  0.00  0.00    +0.382 N 
ATOM     26  H   UNL     1      -2.165   1.300   3.592  0.00  0.00    -0.081 HD
BRANCH  25  27
ATOM     27  C   UNL     1      -1.568   2.784   2.303  0.00  0.00    -0.043 C 
BRANCH  27  31
ATOM     28  C   UNL     1      -4.205   5.549   4.213  0.00  0.00    +0.000 A 
ATOM     29  C   UNL     1      -2.836   5.718   4.312  0.00  0.00    +0.000 A 
ATOM     30  C   UNL     1      -1.983   4.823   3.694  0.00  0.00    +0.002 A 
ATOM     31  C   UNL     1      -2.498   3.760   2.977  0.00  0.00    -0.064 A 
ATOM     32  C   UNL     1      -3.867   3.594   2.873  0.00  0.00    +0.002 A 
ATOM     33  C   UNL     1      -4.720   4.486   3.496  0.00  0.00    +0.000 A 
ENDBRANCH  27  31
ENDBRANCH  25  27
ENDBRANCH  18  22
ENDBRANCH   1  19
TORSDOF 5
