REMARK  Name = ZINC10342442
REMARK  2 active torsions:
REMARK  status: ('A' for Active; 'I' for Inactive)
REMARK    1  A    between atoms: C_3  and  N_8
REMARK    2  A    between atoms: C_18  and  C_28
REMARK                            x       y       z     vdW  Elec       q    Type
REMARK                         _______ _______ _______ _____ _____    ______ ____
ROOT
ATOM      1  N   UNL     1       4.888  -4.190  -0.716  0.00  0.00    -0.327 N 
ATOM      2  C   UNL     1       5.886  -3.361  -0.027  0.00  0.00    +0.124 C 
ATOM      3  C   UNL     1       5.205  -2.581   1.103  0.00  0.00    +0.126 C 
ATOM      4  N   UNL     1       4.065  -1.842   0.539  0.00  0.00    -0.302 N 
ATOM      5  C   UNL     1       3.090  -2.583  -0.276  0.00  0.00    +0.126 C 
ATOM      6  C   UNL     1       3.858  -3.362  -1.356  0.00  0.00    +0.124 C 
ATOM      7  C   UNL     1       3.914  -0.508   0.770  0.00  0.00    +0.175 C 
ATOM      8  N   UNL     1       4.800   0.138   1.510  0.00  0.00    -0.150 NA
ATOM      9  C   UNL     1       4.710   1.439   1.750  0.00  0.00    +0.258 C 
ATOM     10  O   UNL     1       5.542   1.972   2.458  0.00  0.00    -0.272 OA
ATOM     11  C   UNL     1       3.598   2.270   1.165  0.00  0.00    +0.202 C 
ATOM     12  C   UNL     1       2.375   1.369   0.932  0.00  0.00    +0.058 C 
ATOM     13  N   UNL     1       2.847   0.158   0.236  0.00  0.00    -0.312 N 
ATOM     14  C   UNL     1       1.397   2.111   0.000  0.00  0.00    +0.027 C 
ATOM     15  C   UNL     1      -0.018   1.500   0.010  0.00  0.00    +0.002 C 
ATOM     16  C   UNL     1       0.002  -0.004   0.002  0.00  0.00    +0.000 C 
ATOM     17  C   UNL     1      -0.083  -0.504   1.459  0.00  0.00    +0.000 C 
ATOM     18  C   UNL     1       1.201  -0.442   2.141  0.00  0.00    +0.002 C 
ATOM     19  C   UNL     1       1.743   0.997   2.247  0.00  0.00    +0.027 C 
ATOM     20  H   UNL     1       2.414  -0.155  -0.573  0.00  0.00    +0.149 HD
ENDROOT
BRANCH   1  23
ATOM     21  C   UNL     1       5.328  -6.745  -3.321  0.00  0.00    +0.003 A 
ATOM     22  C   UNL     1       4.724  -5.907  -2.404  0.00  0.00    +0.023 A 
ATOM     23  C   UNL     1       5.497  -5.038  -1.644  0.00  0.00    +0.031 A 
ATOM     24  C   UNL     1       6.875  -5.010  -1.813  0.00  0.00    +0.043 A 
ATOM     25  C   UNL     1       7.474  -5.855  -2.729  0.00  0.00    +0.043 A 
ATOM     26  C   UNL     1       6.701  -6.720  -3.484  0.00  0.00    +0.020 A 
ATOM     27 CL   UNL     1       9.197  -5.826  -2.937  0.00  0.00    -0.083 Cl
ENDBRANCH   1  23
BRANCH  11  28
ATOM     28  C   UNL     1       4.036   2.848  -0.116  0.00  0.00    +0.077 C 
ATOM     29  N   UNL     1       4.374   3.293  -1.105  0.00  0.00    -0.196 NA
ENDBRANCH  11  28
TORSDOF 2
