REMARK  Name = ZINC22689691
REMARK  5 active torsions:
REMARK  status: ('A' for Active; 'I' for Inactive)
REMARK    1  A    between atoms: C_4  and  C_7
REMARK    2  A    between atoms: C_7  and  C_8
REMARK    3  A    between atoms: C_8  and  C_9
REMARK    4  A    between atoms: C_9  and  C_10
REMARK    5  A    between atoms: N_12  and  N_13
REMARK                            x       y       z     vdW  Elec       q    Type
REMARK                         _______ _______ _______ _____ _____    ______ ____
ROOT
ATOM      1  C   UNL     1      -0.765   1.598  -3.711  0.00  0.00    +0.230 C 
ATOM      2  O   UNL     1      -1.760   2.282  -3.587  0.00  0.00    -0.274 OA
ATOM      3  N   UNL     1      -0.312   1.286  -4.941  0.00  0.00    -0.224 N 
ATOM      4  H   UNL     1       0.590   0.666  -5.054  0.00  0.00    +0.174 HD
ENDROOT
BRANCH   3   5
ATOM      5  N   UNL     1      -0.990   1.750  -6.076  0.00  0.00    -0.137 N 
ATOM      6  C   UNL     1      -0.554   2.757  -6.861  0.00  0.00    +0.263 C 
ATOM      7  O   UNL     1       0.460   3.407  -6.724  0.00  0.00    -0.271 OA
ATOM      8  C   UNL     1      -1.595   2.903  -7.947  0.00  0.00    +0.114 C 
ATOM      9  C   UNL     1      -0.976   2.642  -9.316  0.00  0.00    +0.035 C 
ATOM     10  C   UNL     1      -2.051   2.766 -10.398  0.00  0.00    +0.003 C 
ATOM     11  C   UNL     1      -2.657   4.171 -10.353  0.00  0.00    +0.000 C 
ATOM     12  C   UNL     1      -3.296   4.408  -8.983  0.00  0.00    +0.003 C 
ATOM     13  C   UNL     1      -2.225   4.290  -7.895  0.00  0.00    +0.035 C 
ATOM     14  N   UNL     1      -2.591   1.872  -7.627  0.00  0.00    -0.284 N 
ATOM     15  C   UNL     1      -2.148   1.245  -6.520  0.00  0.00    +0.326 C 
ATOM     16  O   UNL     1      -2.735   0.327  -5.983  0.00  0.00    -0.251 OA
ATOM     17  H   UNL     1      -3.480   1.751  -8.262  0.00  0.00    +0.151 HD
ENDBRANCH   3   5
BRANCH   1  18
ATOM     18  C   UNL     1      -0.037   1.099  -2.490  0.00  0.00    +0.097 C 
BRANCH  18  19
ATOM     19  C   UNL     1      -0.753   1.593  -1.232  0.00  0.00    +0.009 C 
BRANCH  19  20
ATOM     20  C   UNL     1      -0.013   1.086   0.008  0.00  0.00    +0.004 C 
BRANCH  20  24
ATOM     21  C   UNL     1      -0.692   2.990   3.834  0.00  0.00    +0.000 C 
ATOM     22  C   UNL     1      -0.780   1.465   3.762  0.00  0.00    +0.000 C 
ATOM     23  C   UNL     1      -0.064   0.971   2.503  0.00  0.00    +0.003 C 
ATOM     24  C   UNL     1      -0.729   1.579   1.267  0.00  0.00    -0.011 C 
ATOM     25  C   UNL     1      -0.641   3.105   1.339  0.00  0.00    +0.003 C 
ATOM     26  C   UNL     1      -1.357   3.598   2.597  0.00  0.00    +0.000 C 
ENDBRANCH  20  24
ENDBRANCH  19  20
ENDBRANCH  18  19
ENDBRANCH   1  18
TORSDOF 5
