REMARK  Name = ZINC08738710
REMARK  9 active torsions:
REMARK  status: ('A' for Active; 'I' for Inactive)
REMARK    1  A    between atoms: C_1  and  C_2
REMARK    2  A    between atoms: C_2  and  C_3
REMARK    3  A    between atoms: C_6  and  N_9
REMARK    4  A    between atoms: C_10  and  C_12
REMARK    5  A    between atoms: C_12  and  C_14
REMARK    6  A    between atoms: C_12  and  N_17
REMARK    7  A    between atoms: C_14  and  C_15
REMARK    8  A    between atoms: C_14  and  C_16
REMARK    9  A    between atoms: C_18  and  C_20
REMARK                            x       y       z     vdW  Elec       q    Type
REMARK                         _______ _______ _______ _____ _____    ______ ____
ROOT
ATOM      1  C   UNL     1      -6.651  -0.549   0.886  0.00  0.00    +0.162 C 
ENDROOT
BRANCH   1   3
ATOM      2  N   UNL     1      -8.366  -1.706   2.242  0.00  0.00    -0.284 N 
ATOM      3  C   UNL     1      -7.205  -1.021   2.205  0.00  0.00    +0.238 C 
ATOM      4  O   UNL     1      -6.608  -0.785   3.234  0.00  0.00    -0.273 OA
ATOM      5  H   UNL     1      -8.878  -1.837   1.429  0.00  0.00    +0.155 HD
BRANCH   2   9
ATOM      6  C   UNL     1      -9.754  -3.261   5.850  0.00  0.00    -0.048 A 
ATOM      7  C   UNL     1      -9.079  -2.054   5.833  0.00  0.00    +0.005 A 
ATOM      8  C   UNL     1      -8.617  -1.536   4.638  0.00  0.00    +0.023 A 
ATOM      9  C   UNL     1      -8.832  -2.229   3.454  0.00  0.00    +0.033 A 
ATOM     10  C   UNL     1      -9.514  -3.438   3.474  0.00  0.00    +0.023 A 
ATOM     11  C   UNL     1      -9.969  -3.953   4.672  0.00  0.00    +0.005 A 
BRANCH   6  13
ATOM     12  C   UNL     1     -11.677  -3.317   7.414  0.00  0.00    +0.009 C 
ATOM     13  C   UNL     1     -10.257  -3.823   7.154  0.00  0.00    +0.032 C 
ENDBRANCH   6  13
ENDBRANCH   2   9
ENDBRANCH   1   3
BRANCH   1  14
ATOM     14  N   UNL     1      -5.392   0.165   1.113  0.00  0.00    -0.305 N 
ATOM     15  C   UNL     1      -4.970   1.086   0.225  0.00  0.00    +0.200 C 
ATOM     16  O   UNL     1      -5.632   1.324  -0.763  0.00  0.00    -0.278 OA
ATOM     17  H   UNL     1      -4.862  -0.026   1.903  0.00  0.00    +0.149 HD
BRANCH  15  18
ATOM     18  C   UNL     1      -3.674   1.820   0.458  0.00  0.00    +0.021 C 
ATOM     19  C   UNL     1      -2.501   0.945   0.015  0.00  0.00    +0.028 C 
ATOM     20  C   UNL     1      -1.228   1.752   0.011  0.00  0.00    -0.047 A 
ATOM     21  C   UNL     1      -0.017   1.077  -0.007  0.00  0.00    +0.004 A 
ATOM     22  C   UNL     1       1.172   1.778  -0.015  0.00  0.00    +0.000 A 
ATOM     23  C   UNL     1       1.155   3.160   0.001  0.00  0.00    +0.000 A 
ATOM     24  C   UNL     1      -0.050   3.833   0.028  0.00  0.00    +0.002 A 
ATOM     25  C   UNL     1      -1.245   3.130   0.037  0.00  0.00    -0.061 A 
ATOM     26  C   UNL     1      -2.534   3.908   0.072  0.00  0.00    -0.045 C 
ATOM     27  N   UNL     1      -3.662   3.061  -0.339  0.00  0.00    +0.389 N 
ATOM     28  H   UNL     1      -4.542   3.569  -0.191  0.00  0.00    -0.084 HD
ATOM     29  H   UNL     1      -3.566   2.825  -1.334  0.00  0.00    -0.084 HD
ENDBRANCH  15  18
ENDBRANCH   1  14
BRANCH   1  30
ATOM     30  C   UNL     1      -6.398  -1.754  -0.022  0.00  0.00    +0.012 C 
ATOM     31  C   UNL     1      -5.835  -1.274  -1.361  0.00  0.00    +0.009 C 
ATOM     32  C   UNL     1      -5.393  -2.694   0.647  0.00  0.00    +0.009 C 
ENDBRANCH   1  30
TORSDOF 6
