REMARK  Name = ZINC50996291
REMARK  5 active torsions:
REMARK  status: ('A' for Active; 'I' for Inactive)
REMARK    1  A    between atoms: C_1  and  C_2
REMARK    2  A    between atoms: C_2  and  C_3
REMARK    3  A    between atoms: C_3  and  C_4
REMARK    4  A    between atoms: C_6  and  C_11
REMARK    5  A    between atoms: N_8  and  C_9
REMARK                            x       y       z     vdW  Elec       q    Type
REMARK                         _______ _______ _______ _____ _____    ______ ____
ROOT
ATOM      1  C   UNL     1       0.762  -2.018   1.233  0.00  0.00    +0.076 C 
ATOM      2  N   UNL     1      -0.153  -2.740   1.775  0.00  0.00    -0.363 N 
ATOM      3  C   UNL     1       0.197  -4.154   1.572  0.00  0.00    +0.178 C 
ATOM      4  C   UNL     1       1.502  -4.098   0.802  0.00  0.00    +0.100 C 
ATOM      5  N   UNL     1       1.753  -2.752   0.644  0.00  0.00    -0.282 N 
ATOM      6  C   UNL     1       2.914  -2.190  -0.050  0.00  0.00    +0.138 C 
ATOM      7  N   UNL     1       2.217  -5.090   0.384  0.00  0.00    -0.388 N 
ATOM      8  H   UNL     1       1.931  -6.001   0.556  0.00  0.00    +0.157 HD
ATOM      9  H   UNL     1       3.041  -4.924  -0.102  0.00  0.00    +0.157 HD
ATOM     10  H   UNL     1      -0.939  -2.409   2.238  0.00  0.00    +0.162 HD
ENDROOT
BRANCH   3  11
ATOM     11  C   UNL     1       0.393  -4.846   2.897  0.00  0.00    +0.052 A 
ATOM     12  C   UNL     1       1.101  -4.219   3.907  0.00  0.00    +0.132 A 
ATOM     13  C   UNL     1       1.280  -4.855   5.124  0.00  0.00    +0.039 A 
ATOM     14  C   UNL     1       0.753  -6.116   5.329  0.00  0.00    +0.006 A 
ATOM     15  C   UNL     1       0.047  -6.744   4.320  0.00  0.00    +0.039 A 
ATOM     16  C   UNL     1      -0.139  -6.106   3.105  0.00  0.00    +0.132 A 
ATOM     17  F   UNL     1      -0.835  -6.717   2.121  0.00  0.00    -0.205 F 
ATOM     18  F   UNL     1       1.616  -2.986   3.707  0.00  0.00    -0.205 F 
ENDBRANCH   3  11
BRANCH   1  19
ATOM     19  C   UNL     1       0.742  -0.511   1.242  0.00  0.00    +0.069 C 
BRANCH  19  21
ATOM     20  C   UNL     1      -0.019   1.526   0.010  0.00  0.00    +0.004 C 
ATOM     21  C   UNL     1       0.002  -0.004   0.002  0.00  0.00    +0.004 C 
ENDBRANCH  19  21
ENDBRANCH   1  19
TORSDOF 3
