REMARK  Name = ZINC25148436
REMARK  8 active torsions:
REMARK  status: ('A' for Active; 'I' for Inactive)
REMARK    1  A    between atoms: C_1  and  C_2
REMARK    2  A    between atoms: C_2  and  C_23
REMARK    3  A    between atoms: C_3  and  C_4
REMARK    4  A    between atoms: C_6  and  C_11
REMARK    5  A    between atoms: C_8  and  C_9
REMARK    6  A    between atoms: C_8  and  C_10
REMARK    7  A    between atoms: C_16  and  C_19
REMARK    8  A    between atoms: C_19  and  C_20
REMARK                            x       y       z     vdW  Elec       q    Type
REMARK                         _______ _______ _______ _____ _____    ______ ____
ROOT
ATOM      1  C   UNL     1       2.523   5.696   1.711  0.00  0.00    +0.223 C 
ATOM      2  O   UNL     1       3.393   5.196   2.392  0.00  0.00    -0.275 OA
ATOM      3  N   UNL     1       1.294   5.144   1.675  0.00  0.00    -0.264 N 
ATOM      4  C   UNL     1       1.023   4.001   2.419  0.00  0.00    +0.165 A 
ATOM      5  N   UNL     1      -0.103   3.322   2.514  0.00  0.00    -0.229 NA
ATOM      6  C   UNL     1      -0.189   2.244   3.269  0.00  0.00    +0.059 A 
ATOM      7  C   UNL     1       0.908   1.851   3.961  0.00  0.00    +0.072 A 
ATOM      8  S   UNL     1       2.082   3.102   3.462  0.00  0.00    -0.060 S 
ATOM      9  H   UNL     1       0.505   5.598   1.057  0.00  0.00    +0.157 HD
ENDROOT
BRANCH   1  11
ATOM     10  C   UNL     1       2.800   6.806  -0.620  0.00  0.00    +0.030 C 
ATOM     11  C   UNL     1       2.816   6.935   0.904  0.00  0.00    +0.089 C 
ATOM     12  C   UNL     1       4.129   6.973   0.119  0.00  0.00    -0.016 C 
ATOM     13  C   UNL     1       4.841   8.321  -0.002  0.00  0.00    +0.012 C 
ATOM     14  C   UNL     1       5.043   5.750   0.213  0.00  0.00    +0.012 C 
BRANCH  10  17
ATOM     15  C   UNL     1       2.384   6.521  -3.392  0.00  0.00    +0.038 C 
ATOM     16  C   UNL     1       2.298   5.317  -2.489  0.00  0.00    -0.079 C 
ATOM     17  C   UNL     1       2.492   5.450  -1.200  0.00  0.00    -0.023 C 
ATOM     18  C   UNL     1       1.990   3.961  -3.070  0.00  0.00    +0.038 C 
ENDBRANCH  10  17
ENDBRANCH   1  11
BRANCH   6  19
ATOM     19  C   UNL     1      -1.479   1.470   3.364  0.00  0.00    +0.151 C 
BRANCH  19  20
ATOM     20  C   UNL     1      -2.591   2.398   3.779  0.00  0.00    +0.216 C 
ATOM     21  O   UNL     1      -2.360   3.571   3.979  0.00  0.00    -0.276 OA
ATOM     22  N   UNL     1      -3.844   1.923   3.929  0.00  0.00    -0.329 N 
ATOM     23  H   UNL     1      -4.656   2.600   4.233  0.00  0.00    +0.145 HD
ATOM     24  H   UNL     1      -4.054   0.859   3.748  0.00  0.00    +0.145 HD
ENDBRANCH  19  20
ENDBRANCH   6  19
TORSDOF 4
