REMARK  Name = ZINC20532242
REMARK  8 active torsions:
REMARK  status: ('A' for Active; 'I' for Inactive)
REMARK    1  A    between atoms: C_1  and  C_2
REMARK    2  A    between atoms: C_2  and  N_3
REMARK    3  A    between atoms: C_9  and  N_28
REMARK    4  A    between atoms: C_10  and  C_11
REMARK    5  A    between atoms: C_11  and  C_13
REMARK    6  A    between atoms: C_11  and  N_14
REMARK    7  A    between atoms: N_17  and  C_18
REMARK    8  A    between atoms: C_23  and  C_24
REMARK                            x       y       z     vdW  Elec       q    Type
REMARK                         _______ _______ _______ _____ _____    ______ ____
ROOT
ATOM      1  C   UNL     1      -3.603   3.569   0.334  0.00  0.00    +0.104 C 
ATOM      2  C   UNL     1      -3.584   4.405  -0.947  0.00  0.00    +0.033 C 
ENDROOT
BRANCH   1  10
ATOM      3  N   UNL     1      -6.574  -0.652   0.552  0.00  0.00    +0.383 N 
ATOM      4  C   UNL     1      -6.990   0.679   0.090  0.00  0.00    -0.074 C 
ATOM      5  C   UNL     1      -5.968   1.733   0.526  0.00  0.00    +0.018 C 
ATOM      6  C   UNL     1      -4.585   1.269   0.079  0.00  0.00    -0.034 A 
ATOM      7  C   UNL     1      -4.391  -0.039  -0.248  0.00  0.00    -0.021 A 
ATOM      8  S   UNL     1      -2.680  -0.115  -0.699  0.00  0.00    -0.077 S 
ATOM      9  C   UNL     1      -2.284   1.607  -0.433  0.00  0.00    +0.090 A 
ATOM     10  C   UNL     1      -3.478   2.109  -0.018  0.00  0.00    +0.007 A 
ATOM     11  C   UNL     1      -5.410  -1.130  -0.219  0.00  0.00    -0.035 C 
ATOM     12  H   UNL     1      -6.282  -0.571   1.609  0.00  0.00    -0.081 HD
BRANCH   9  13
ATOM     13  N   UNL     1      -1.061   2.267  -0.603  0.00  0.00    -0.317 N 
ATOM     14  C   UNL     1      -0.865   3.615  -0.512  0.00  0.00    +0.092 A 
ATOM     15  C   UNL     1       0.442   3.867  -0.731  0.00  0.00    +0.019 A 
ATOM     16  C   UNL     1       1.076   2.631  -0.972  0.00  0.00    +0.019 A 
ATOM     17  C   UNL     1       0.133   1.670  -0.890  0.00  0.00    +0.092 A 
ENDBRANCH   9  13
BRANCH   3  19
ATOM     18  C   UNL     1      -8.203  -1.670  -0.967  0.00  0.00    -0.017 C 
ATOM     19  C   UNL     1      -7.687  -1.608   0.472  0.00  0.00    -0.082 C 
ENDBRANCH   3  19
ENDBRANCH   1  10
BRANCH   1  20
ATOM     20  N   UNL     1      -2.483   3.963   1.191  0.00  0.00    -0.292 N 
ATOM     21  C   UNL     1      -2.563   5.086   1.931  0.00  0.00    +0.304 C 
ATOM     22  O   UNL     1      -3.565   5.773   1.887  0.00  0.00    -0.252 OA
ATOM     23  N   UNL     1      -1.532   5.449   2.720  0.00  0.00    -0.269 N 
ATOM     24  H   UNL     1      -1.576   3.342   1.231  0.00  0.00    +0.151 HD
ATOM     25  H   UNL     1      -0.654   4.792   2.814  0.00  0.00    +0.156 HD
BRANCH  23  26
ATOM     26  C   UNL     1      -1.578   6.661   3.418  0.00  0.00    +0.046 A 
ATOM     27  C   UNL     1      -2.791   7.149   3.885  0.00  0.00    +0.024 A 
ATOM     28  C   UNL     1      -2.832   8.343   4.578  0.00  0.00    +0.002 A 
ATOM     29  C   UNL     1      -1.668   9.057   4.798  0.00  0.00    +0.001 A 
ATOM     30  C   UNL     1      -0.460   8.576   4.330  0.00  0.00    +0.014 A 
ATOM     31  C   UNL     1      -0.411   7.380   3.640  0.00  0.00    +0.076 A 
BRANCH  31  32
ATOM     32  C   UNL     1       0.907   6.857   3.130  0.00  0.00    +0.419 C 
ATOM     33  F   UNL     1       1.928   7.749   3.474  0.00  0.00    -0.166 F 
ATOM     34  F   UNL     1       1.166   5.607   3.704  0.00  0.00    -0.166 F 
ATOM     35  F   UNL     1       0.850   6.728   1.738  0.00  0.00    -0.166 F 
ENDBRANCH  31  32
ENDBRANCH  23  26
ENDBRANCH   1  20
TORSDOF 6
