REMARK  Name = ZINC67612158
REMARK  7 active torsions:
REMARK  status: ('A' for Active; 'I' for Inactive)
REMARK    1  A    between atoms: C_1  and  N_2
REMARK    2  A    between atoms: N_2  and  S_3
REMARK    3  A    between atoms: S_3  and  C_6
REMARK    4  A    between atoms: C_9  and  C_11
REMARK    5  A    between atoms: C_11  and  N_12
REMARK    6  A    between atoms: C_18  and  N_21
REMARK    7  A    between atoms: N_21  and  C_22
REMARK                            x       y       z     vdW  Elec       q    Type
REMARK                         _______ _______ _______ _____ _____    ______ ____
ROOT
ATOM      1  N   UNL     1      -0.960   0.487   7.413  0.00  0.00    -0.295 N 
ATOM      2  C   UNL     1      -1.183   0.943   8.662  0.00  0.00    +0.303 C 
ATOM      3  O   UNL     1      -1.991   1.831   8.850  0.00  0.00    -0.253 OA
ATOM      4  N   UNL     1      -0.510   0.412   9.702  0.00  0.00    -0.284 N 
ATOM      5  C   UNL     1       0.495  -0.657   9.617  0.00  0.00    +0.111 C 
ATOM      6  C   UNL     1       1.012  -0.915  11.048  0.00  0.00    +0.043 C 
ATOM      7  C   UNL     1       0.681   0.411  11.782  0.00  0.00    +0.089 C 
ATOM      8  C   UNL     1      -0.654   0.814  11.113  0.00  0.00    +0.131 C 
ATOM      9  H   UNL     1      -0.316  -0.222   7.263  0.00  0.00    +0.151 HD
ENDROOT
BRANCH   7  10
ATOM     10  N   UNL     1       0.506   0.187  13.219  0.00  0.00    -0.339 N 
ATOM     11  H   UNL     1       0.241  -0.687  13.545  0.00  0.00    +0.146 HD
BRANCH  10  12
ATOM     12  C   UNL     1       0.722   1.233  14.120  0.00  0.00    +0.027 A 
ATOM     13  C   UNL     1       1.097   2.487  13.654  0.00  0.00    +0.023 A 
ATOM     14  C   UNL     1       1.309   3.518  14.548  0.00  0.00    +0.002 A 
ATOM     15  C   UNL     1       1.149   3.304  15.905  0.00  0.00    +0.000 A 
ATOM     16  C   UNL     1       0.776   2.057  16.371  0.00  0.00    +0.002 A 
ATOM     17  C   UNL     1       0.557   1.022  15.483  0.00  0.00    +0.023 A 
ENDBRANCH  10  12
ENDBRANCH   7  10
BRANCH   1  18
ATOM     18  C   UNL     1      -1.692   1.063   6.282  0.00  0.00    +0.148 C 
BRANCH  18  22
ATOM     19  C   UNL     1      -0.166  -0.494   2.705  0.00  0.00    +0.143 A 
ATOM     20  C   UNL     1      -1.217  -1.168   3.231  0.00  0.00    +0.037 A 
ATOM     21  C   UNL     1      -1.779  -0.719   4.412  0.00  0.00    +0.015 A 
ATOM     22  C   UNL     1      -1.262   0.384   5.007  0.00  0.00    +0.009 A 
ATOM     23  S   UNL     1       0.064   0.818   3.894  0.00  0.00    -0.072 S 
BRANCH  19  24
ATOM     24  S   UNL     1       0.742  -0.829   1.233  0.00  0.00    +0.064 S 
ATOM     25  O   UNL     1       0.570  -2.212   0.955  0.00  0.00    -0.153 OA
ATOM     26  O   UNL     1       2.024  -0.240   1.403  0.00  0.00    -0.153 OA
BRANCH  24  28
ATOM     27  C   UNL     1      -0.018   1.461   0.010  0.00  0.00    +0.127 C 
ATOM     28  N   UNL     1       0.002  -0.004   0.002  0.00  0.00    -0.193 NA
ATOM     29  H   UNL     1      -0.418  -0.491  -0.724  0.00  0.00    +0.148 HD
ENDBRANCH  24  28
ENDBRANCH  19  24
ENDBRANCH  18  22
ENDBRANCH   1  18
TORSDOF 6
