REMARK  Name = ZINC39520702
REMARK  8 active torsions:
REMARK  status: ('A' for Active; 'I' for Inactive)
REMARK    1  A    between atoms: C_1  and  C_2
REMARK    2  A    between atoms: C_2  and  C_3
REMARK    3  A    between atoms: C_2  and  S_4
REMARK    4  A    between atoms: S_4  and  C_7
REMARK    5  A    between atoms: C_17  and  C_27
REMARK    6  A    between atoms: N_19  and  C_20
REMARK    7  A    between atoms: C_20  and  C_21
REMARK    8  A    between atoms: C_32  and  O_33
REMARK                            x       y       z     vdW  Elec       q    Type
REMARK                         _______ _______ _______ _____ _____    ______ ____
ROOT
ATOM      1  C   UNL     1       0.663  -3.134   0.863  0.00  0.00    +0.129 C 
ATOM      2  C   UNL     1       2.062  -3.754   0.822  0.00  0.00    +0.026 C 
ATOM      3  C   UNL     1       2.008  -4.989  -0.077  0.00  0.00    +0.001 C 
ATOM      4  C   UNL     1       1.046  -6.019   0.481  0.00  0.00    -0.012 C 
ATOM      5  C   UNL     1      -0.328  -5.493   0.874  0.00  0.00    -0.063 C 
ATOM      6  C   UNL     1      -0.308  -4.115   1.503  0.00  0.00    +0.014 C 
ATOM      7  C   UNL     1      -0.835  -6.468   1.976  0.00  0.00    -0.012 C 
ATOM      8  C   UNL     1      -2.215  -6.012   2.445  0.00  0.00    -0.003 C 
ATOM      9  C   UNL     1      -3.179  -6.035   1.255  0.00  0.00    -0.011 C 
ATOM     10  C   UNL     1      -2.620  -5.156   0.136  0.00  0.00    -0.033 C 
ATOM     11  N   UNL     1      -1.273  -5.601  -0.237  0.00  0.00    +0.391 N 
ATOM     12  H   UNL     1      -1.340  -6.591  -0.492  0.00  0.00    -0.080 HD
ENDROOT
BRANCH  10  13
ATOM     13  C   UNL     1      -3.520  -5.268  -1.068  0.00  0.00    -0.019 A 
ATOM     14  C   UNL     1      -3.365  -6.319  -1.951  0.00  0.00    +0.005 A 
ATOM     15  C   UNL     1      -4.190  -6.421  -3.056  0.00  0.00    +0.000 A 
ATOM     16  C   UNL     1      -5.172  -5.473  -3.279  0.00  0.00    +0.004 A 
ATOM     17  C   UNL     1      -5.331  -4.421  -2.398  0.00  0.00    +0.045 A 
ATOM     18  C   UNL     1      -4.508  -4.318  -1.286  0.00  0.00    +0.118 A 
BRANCH  18  19
ATOM     19  O   UNL     1      -4.665  -3.287  -0.415  0.00  0.00    -0.507 OA
ATOM     20  H   UNL     1      -4.141  -2.504  -0.634  0.00  0.00    +0.292 HD
ENDBRANCH  18  19
ENDBRANCH  10  13
BRANCH   1  21
ATOM     21  S   UNL     1       0.722  -1.610   1.852  0.00  0.00    -0.026 S 
ATOM     22  O   UNL     1       1.305  -1.914   3.112  0.00  0.00    -0.174 OA
ATOM     23  O   UNL     1      -0.561  -1.000   1.814  0.00  0.00    -0.174 OA
BRANCH  21  25
ATOM     24  C   UNL     1       1.319  -0.314  -0.481  0.00  0.00    +0.031 C 
ATOM     25  C   UNL     1       1.879  -0.571   0.919  0.00  0.00    +0.125 C 
ATOM     26  C   UNL     1       2.068   0.761   1.647  0.00  0.00    +0.031 C 
ENDBRANCH  21  25
ENDBRANCH   1  21
BRANCH  11  27
ATOM     27  C   UNL     1      -0.842  -4.867  -1.427  0.00  0.00    -0.041 C 
BRANCH  27  28
ATOM     28  C   UNL     1      -0.759  -5.812  -2.598  0.00  0.00    -0.064 A 
ATOM     29  C   UNL     1      -0.345  -7.117  -2.405  0.00  0.00    +0.002 A 
ATOM     30  C   UNL     1      -0.268  -7.984  -3.478  0.00  0.00    +0.000 A 
ATOM     31  C   UNL     1      -0.605  -7.546  -4.746  0.00  0.00    +0.000 A 
ATOM     32  C   UNL     1      -1.020  -6.242  -4.939  0.00  0.00    +0.000 A 
ATOM     33  C   UNL     1      -1.101  -5.376  -3.864  0.00  0.00    +0.002 A 
ENDBRANCH  27  28
ENDBRANCH  11  27
TORSDOF 6
