REMARK  Name = ZINC43526819
REMARK  11 active torsions:
REMARK  status: ('A' for Active; 'I' for Inactive)
REMARK    1  A    between atoms: C_1  and  N_2
REMARK    2  A    between atoms: N_2  and  C_3
REMARK    3  A    between atoms: N_2  and  C_10
REMARK    4  A    between atoms: C_3  and  C_4
REMARK    5  A    between atoms: C_10  and  C_11
REMARK    6  A    between atoms: C_20  and  C_22
REMARK    7  A    between atoms: C_22  and  N_23
REMARK    8  A    between atoms: N_23  and  C_24
REMARK    9  A    between atoms: C_24  and  N_26
REMARK   10  A    between atoms: N_26  and  C_27
REMARK   11  A    between atoms: C_27  and  C_28
REMARK                            x       y       z     vdW  Elec       q    Type
REMARK                         _______ _______ _______ _____ _____    ______ ____
ROOT
ATOM      1  C   UNL     1      -2.078  -0.110  -1.286  0.00  0.00    -0.041 C 
ATOM      2  C   UNL     1      -1.405  -0.808  -2.470  0.00  0.00    -0.076 C 
ATOM      3  N   UNL     1      -2.374  -1.657  -3.168  0.00  0.00    +0.383 N 
ATOM      4  C   UNL     1      -2.882  -2.701  -2.274  0.00  0.00    -0.078 C 
ATOM      5  C   UNL     1      -3.603  -2.066  -1.084  0.00  0.00    -0.015 C 
ATOM      6  C   UNL     1      -3.551  -0.537  -1.228  0.00  0.00    -0.015 C 
ATOM      7  C   UNL     1      -4.218  -0.154  -2.556  0.00  0.00    -0.010 C 
ATOM      8  C   UNL     1      -3.476  -0.853  -3.701  0.00  0.00    -0.051 C 
ATOM      9  H   UNL     1      -1.905  -2.108  -3.939  0.00  0.00    -0.081 HD
ENDROOT
BRANCH   1  10
ATOM     10  C   UNL     1      -1.376  -0.512   0.012  0.00  0.00    -0.077 C 
BRANCH  10  12
ATOM     11  C   UNL     1      -0.018   1.465   0.010  0.00  0.00    -0.096 C 
ATOM     12  N   UNL     1       0.002  -0.004   0.002  0.00  0.00    +0.381 N 
ATOM     13  H   UNL     1       0.474  -0.330  -0.828  0.00  0.00    -0.082 HD
BRANCH  12  14
ATOM     14  C   UNL     1       0.713  -0.491   1.192  0.00  0.00    -0.043 C 
BRANCH  14  15
ATOM     15  C   UNL     1       2.158  -0.072   1.120  0.00  0.00    -0.064 A 
ATOM     16  C   UNL     1       3.086  -0.894   0.508  0.00  0.00    +0.002 A 
ATOM     17  C   UNL     1       4.413  -0.510   0.442  0.00  0.00    +0.000 A 
ATOM     18  C   UNL     1       4.811   0.696   0.988  0.00  0.00    +0.000 A 
ATOM     19  C   UNL     1       3.883   1.518   1.599  0.00  0.00    +0.000 A 
ATOM     20  C   UNL     1       2.556   1.136   1.661  0.00  0.00    +0.002 A 
ENDBRANCH  14  15
ENDBRANCH  12  14
ENDBRANCH  10  12
ENDBRANCH   1  10
BRANCH   8  21
ATOM     21  C   UNL     1      -4.447  -1.761  -4.457  0.00  0.00    +0.088 C 
BRANCH  21  22
ATOM     22  N   UNL     1      -3.718  -2.508  -5.485  0.00  0.00    -0.328 N 
ATOM     23  H   UNL     1      -2.763  -2.378  -5.593  0.00  0.00    +0.148 HD
BRANCH  22  24
ATOM     24  C   UNL     1      -4.374  -3.376  -6.281  0.00  0.00    +0.131 C 
ATOM     25  S   UNL     1      -6.060  -3.605  -6.090  0.00  0.00    -0.019 S 
BRANCH  24  26
ATOM     26  N   UNL     1      -3.703  -4.063  -7.226  0.00  0.00    -0.319 N 
ATOM     27  H   UNL     1      -2.748  -3.933  -7.334  0.00  0.00    +0.148 HD
BRANCH  26  28
ATOM     28  C   UNL     1      -4.416  -5.006  -8.091  0.00  0.00    +0.177 C 
BRANCH  28  29
ATOM     29  C   UNL     1      -3.445  -5.638  -9.054  0.00  0.00    +0.122 A 
ATOM     30  C   UNL     1      -2.752  -6.771  -8.842  0.00  0.00    +0.046 A 
ATOM     31  C   UNL     1      -1.968  -6.994  -9.997  0.00  0.00    +0.041 A 
ATOM     32  C   UNL     1      -2.228  -5.984 -10.846  0.00  0.00    +0.195 A 
ATOM     33  O   UNL     1      -3.128  -5.168 -10.272  0.00  0.00    -0.466 OA
ENDBRANCH  28  29
ENDBRANCH  26  28
ENDBRANCH  24  26
ENDBRANCH  22  24
ENDBRANCH  21  22
ENDBRANCH   8  21
TORSDOF 10
