REMARK  Name = ZINC38684670
REMARK  14 active torsions:
REMARK  status: ('A' for Active; 'I' for Inactive)
REMARK    1  A    between atoms: C_1  and  C_2
REMARK    2  A    between atoms: C_2  and  C_3
REMARK    3  A    between atoms: C_2  and  C_4
REMARK    4  A    between atoms: C_4  and  C_5
REMARK    5  A    between atoms: C_5  and  O_6
REMARK    6  A    between atoms: O_6  and  C_7
REMARK    7  A    between atoms: C_11  and  C_13
REMARK    8  A    between atoms: C_18  and  O_27
REMARK    9  A    between atoms: C_22  and  N_26
REMARK   10  A    between atoms: C_23  and  C_24
REMARK   11  A    between atoms: O_27  and  C_28
REMARK   12  A    between atoms: C_28  and  C_30
REMARK   13  A    between atoms: C_30  and  O_31
REMARK   14  A    between atoms: O_31  and  C_32
REMARK                            x       y       z     vdW  Elec       q    Type
REMARK                         _______ _______ _______ _____ _____    ______ ____
ROOT
ATOM      1  C   UNL     1       0.737  -0.951   8.541  0.00  0.00    +0.098 C 
ATOM      2  C   UNL     1       1.073   0.243   9.394  0.00  0.00    +0.008 A 
ATOM      3  C   UNL     1       2.210   0.981   9.113  0.00  0.00    +0.012 A 
ATOM      4  C   UNL     1       2.535   2.079   9.884  0.00  0.00    +0.047 A 
ATOM      5  C   UNL     1       1.719   2.448  10.945  0.00  0.00    +0.135 A 
ATOM      6  C   UNL     1       0.581   1.712  11.228  0.00  0.00    +0.093 A 
ATOM      7  C   UNL     1       0.255   0.607  10.452  0.00  0.00    +0.138 A 
ATOM      8  O   UNL     1      -0.863  -0.103  10.742  0.00  0.00    -0.441 OA
ATOM      9  C   UNL     1      -0.997  -1.359  10.284  0.00  0.00    +0.199 C 
ATOM     10  C   UNL     1      -0.269  -1.820   9.244  0.00  0.00    +0.098 C 
ENDROOT
BRANCH   1  15
ATOM     11  C   UNL     1       0.263  -0.377   4.837  0.00  0.00    +0.121 A 
ATOM     12  C   UNL     1      -0.899   0.382   4.823  0.00  0.00    +0.045 A 
ATOM     13  C   UNL     1      -1.526   0.704   6.011  0.00  0.00    +0.004 A 
ATOM     14  C   UNL     1      -0.996   0.272   7.213  0.00  0.00    +0.005 A 
ATOM     15  C   UNL     1       0.162  -0.483   7.230  0.00  0.00    -0.031 A 
ATOM     16  C   UNL     1       0.789  -0.813   6.044  0.00  0.00    +0.050 A 
BRANCH  11  17
ATOM     17  O   UNL     1       0.881  -0.696   3.670  0.00  0.00    -0.492 OA
BRANCH  17  18
ATOM     18  C   UNL     1       0.283  -0.212   2.465  0.00  0.00    +0.229 C 
BRANCH  18  19
ATOM     19  C   UNL     1       1.113  -0.668   1.264  0.00  0.00    +0.044 C 
BRANCH  19  21
ATOM     20  C   UNL     1       0.535   1.378  -0.047  0.00  0.00    +0.007 C 
ATOM     21  C   UNL     1       0.473  -0.150  -0.025  0.00  0.00    -0.014 C 
ATOM     22  C   UNL     1       1.231  -0.709  -1.231  0.00  0.00    +0.007 C 
ENDBRANCH  19  21
ENDBRANCH  18  19
ENDBRANCH  17  18
ENDBRANCH  11  17
ENDBRANCH   1  15
BRANCH   9  23
ATOM     23  N   UNL     1      -1.901  -2.196  10.890  0.00  0.00    -0.328 N 
ATOM     24  H   UNL     1      -2.431  -1.878  11.637  0.00  0.00    +0.145 HD
ATOM     25  H   UNL     1      -2.009  -3.105  10.570  0.00  0.00    +0.145 HD
ENDBRANCH   9  23
BRANCH  10  26
ATOM     26  C   UNL     1      -0.461  -3.168   8.802  0.00  0.00    +0.101 C 
ATOM     27  N   UNL     1      -0.614  -4.238   8.452  0.00  0.00    -0.191 NA
ENDBRANCH  10  26
BRANCH   5  28
ATOM     28  O   UNL     1       2.038   3.529  11.705  0.00  0.00    -0.423 OA
BRANCH  28  29
ATOM     29  C   UNL     1       2.432   3.316  12.970  0.00  0.00    +0.350 C 
ATOM     30  O   UNL     1       2.595   2.187  13.370  0.00  0.00    -0.247 OA
BRANCH  29  31
ATOM     31  C   UNL     1       2.671   4.484  13.892  0.00  0.00    +0.349 C 
BRANCH  31  32
ATOM     32  O   UNL     1       3.079   4.003  15.174  0.00  0.00    -0.479 OA
BRANCH  32  33
ATOM     33  C   UNL     1       3.337   4.935  16.130  0.00  0.00    +0.140 A 
ATOM     34  C   UNL     1       3.194   6.284  15.840  0.00  0.00    +0.047 A 
ATOM     35  C   UNL     1       3.456   7.229  16.813  0.00  0.00    +0.004 A 
ATOM     36  C   UNL     1       3.861   6.833  18.074  0.00  0.00    +0.002 A 
ATOM     37  C   UNL     1       4.005   5.489  18.366  0.00  0.00    +0.023 A 
ATOM     38  C   UNL     1       3.738   4.538  17.398  0.00  0.00    +0.083 A 
ATOM     39 CL   UNL     1       3.912   2.851  17.766  0.00  0.00    -0.080 Cl
ENDBRANCH  32  33
ENDBRANCH  31  32
ENDBRANCH  29  31
ENDBRANCH  28  29
ENDBRANCH   5  28
TORSDOF 12
