REMARK  Name = ZINC03493735
REMARK  7 active torsions:
REMARK  status: ('A' for Active; 'I' for Inactive)
REMARK    1  A    between atoms: C_1  and  C_2
REMARK    2  A    between atoms: C_2  and  C_4
REMARK    3  A    between atoms: C_2  and  S_10
REMARK    4  A    between atoms: S_10  and  C_11
REMARK    5  A    between atoms: N_24  and  C_25
REMARK    6  A    between atoms: C_30  and  O_31
REMARK    7  A    between atoms: O_31  and  C_32
REMARK                            x       y       z     vdW  Elec       q    Type
REMARK                         _______ _______ _______ _____ _____    ______ ____
ROOT
ATOM      1  C   UNL     1       2.947   4.228   1.188  0.00  0.00    +0.178 A 
ATOM      2  N   UNL     1       4.082   4.898   1.215  0.00  0.00    -0.215 NA
ATOM      3  C   UNL     1       4.680   5.268   0.089  0.00  0.00    +0.117 A 
ATOM      4  C   UNL     1       4.148   4.964  -1.175  0.00  0.00    +0.076 A 
ATOM      5  C   UNL     1       4.921   5.438  -2.325  0.00  0.00    -0.023 A 
ATOM      6  C   UNL     1       6.058   6.114  -2.061  0.00  0.00    -0.004 A 
ATOM      7  S   UNL     1       6.166   6.160  -0.292  0.00  0.00    -0.073 S 
ATOM      8  C   UNL     1       7.017   6.698  -3.053  0.00  0.00    +0.043 C 
ATOM      9  C   UNL     1       6.714   6.096  -4.432  0.00  0.00    +0.005 C 
ATOM     10  C   UNL     1       5.205   6.172  -4.681  0.00  0.00    +0.005 C 
ATOM     11  C   UNL     1       4.477   5.189  -3.764  0.00  0.00    +0.037 C 
ATOM     12  C   UNL     1       2.920   4.231  -1.175  0.00  0.00    +0.268 A 
ATOM     13  O   UNL     1       2.385   3.922  -2.226  0.00  0.00    -0.267 OA
ATOM     14  N   UNL     1       2.363   3.886   0.001  0.00  0.00    -0.252 N 
ENDROOT
BRANCH  14  15
ATOM     15  C   UNL     1       1.159   3.168   0.008  0.00  0.00    +0.093 A 
ATOM     16  C   UNL     1       1.176   1.781   0.000  0.00  0.00    +0.030 A 
ATOM     17  C   UNL     1      -0.013   1.076   0.008  0.00  0.00    +0.002 A 
ATOM     18  C   UNL     1      -1.220   1.749   0.017  0.00  0.00    +0.004 A 
ATOM     19  C   UNL     1      -1.246   3.131   0.031  0.00  0.00    +0.048 A 
ATOM     20  C   UNL     1      -0.058   3.846   0.023  0.00  0.00    +0.144 A 
BRANCH  20  21
ATOM     21  O   UNL     1      -0.081   5.205   0.031  0.00  0.00    -0.493 OA
ATOM     22  C   UNL     1      -1.365   5.832   0.047  0.00  0.00    +0.277 C 
ENDBRANCH  20  21
ENDBRANCH  14  15
BRANCH   1  23
ATOM     23  S   UNL     1       2.177   3.761   2.702  0.00  0.00    -0.075 S 
BRANCH  23  25
ATOM     24  C   UNL     1       3.361   5.983   3.761  0.00  0.00    +0.029 C 
ATOM     25  C   UNL     1       3.357   4.458   3.884  0.00  0.00    +0.137 C 
BRANCH  25  26
ATOM     26  C   UNL     1       2.957   4.068   5.283  0.00  0.00    +0.233 C 
ATOM     27  O   UNL     1       1.821   3.714   5.513  0.00  0.00    -0.274 OA
ATOM     28  N   UNL     1       3.863   4.112   6.280  0.00  0.00    -0.239 N 
ATOM     29  C   UNL     1       3.505   3.763   7.532  0.00  0.00    +0.303 C 
ATOM     30  O   UNL     1       2.366   3.408   7.762  0.00  0.00    -0.253 OA
ATOM     31  N   UNL     1       4.411   3.807   8.529  0.00  0.00    -0.313 N 
ATOM     32  H   UNL     1       4.894   4.433   6.073  0.00  0.00    +0.159 HD
ATOM     33  H   UNL     1       4.119   3.522   9.550  0.00  0.00    +0.146 HD
ATOM     34  H   UNL     1       5.442   4.128   8.321  0.00  0.00    +0.146 HD
ENDBRANCH  25  26
ENDBRANCH  23  25
ENDBRANCH   1  23
TORSDOF 5
