REMARK  Name = ZINC08939355
REMARK  8 active torsions:
REMARK  status: ('A' for Active; 'I' for Inactive)
REMARK    1  A    between atoms: C_1  and  C_2
REMARK    2  A    between atoms: C_4  and  C_11
REMARK    3  A    between atoms: C_5  and  C_10
REMARK    4  A    between atoms: C_6  and  C_9
REMARK    5  A    between atoms: C_7  and  C_8
REMARK    6  A    between atoms: C_11  and  C_13
REMARK    7  A    between atoms: C_13  and  N_14
REMARK    8  A    between atoms: C_22  and  C_24
REMARK                            x       y       z     vdW  Elec       q    Type
REMARK                         _______ _______ _______ _____ _____    ______ ____
ROOT
ATOM      1  N   UNL     1      -0.226   5.589  -0.826  0.00  0.00    -0.217 N 
ATOM      2  C   UNL     1      -0.185   6.510   0.160  0.00  0.00    +0.247 C 
ATOM      3  O   UNL     1      -0.266   6.311   1.353  0.00  0.00    -0.273 OA
ATOM      4  C   UNL     1      -0.013   7.840  -0.537  0.00  0.00    +0.115 C 
ATOM      5  C   UNL     1      -1.198   8.751  -0.235  0.00  0.00    +0.035 C 
ATOM      6  C   UNL     1      -1.025  10.078  -0.979  0.00  0.00    +0.003 C 
ATOM      7  C   UNL     1       0.279  10.744  -0.534  0.00  0.00    +0.000 C 
ATOM      8  C   UNL     1       1.459   9.828  -0.862  0.00  0.00    +0.006 C 
ATOM      9  C   UNL     1       1.296   8.500  -0.118  0.00  0.00    +0.018 C 
ATOM     10  C   UNL     1       2.465   7.576  -0.462  0.00  0.00    +0.010 C 
ATOM     11  N   UNL     1       0.019   7.494  -1.964  0.00  0.00    -0.285 N 
ATOM     12  C   UNL     1      -0.113   6.155  -2.034  0.00  0.00    +0.310 C 
ATOM     13  O   UNL     1      -0.126   5.531  -3.076  0.00  0.00    -0.252 OA
ATOM     14  H   UNL     1       0.115   8.108  -2.708  0.00  0.00    +0.151 HD
ENDROOT
BRANCH   1  15
ATOM     15  C   UNL     1      -0.382   4.150  -0.602  0.00  0.00    +0.197 C 
BRANCH  15  16
ATOM     16  C   UNL     1       0.977   3.514  -0.459  0.00  0.00    +0.181 C 
ATOM     17  O   UNL     1       1.976   4.195  -0.537  0.00  0.00    -0.290 OA
BRANCH  16  21
ATOM     18  C   UNL     1      -1.164  -0.973  -0.075  0.00  0.00    +0.044 C 
ATOM     19  C   UNL     1       0.064  -0.100  -0.040  0.00  0.00    -0.047 A 
ATOM     20  C   UNL     1      -0.051   1.257  -0.259  0.00  0.00    +0.015 A 
ATOM     21  C   UNL     1       1.090   2.065  -0.226  0.00  0.00    +0.022 A 
ATOM     22  C   UNL     1       2.339   1.490   0.029  0.00  0.00    -0.037 A 
ATOM     23  C   UNL     1       2.437   0.132   0.246  0.00  0.00    -0.044 A 
ATOM     24  C   UNL     1       1.303  -0.662   0.212  0.00  0.00    -0.044 A 
ATOM     25  C   UNL     1       1.419  -2.145   0.450  0.00  0.00    +0.044 C 
ATOM     26  C   UNL     1       3.782  -0.490   0.522  0.00  0.00    +0.044 C 
ATOM     27  C   UNL     1       3.575   2.352   0.067  0.00  0.00    +0.045 C 
ENDBRANCH  16  21
ENDBRANCH  15  16
ENDBRANCH   1  15
TORSDOF 3
