REMARK  Name = ZINC06149188
REMARK  14 active torsions:
REMARK  status: ('A' for Active; 'I' for Inactive)
REMARK    1  A    between atoms: C_1  and  C_2
REMARK    2  A    between atoms: C_2  and  C_3
REMARK    3  A    between atoms: C_3  and  C_4
REMARK    4  A    between atoms: C_3  and  C_5
REMARK    5  A    between atoms: C_3  and  N_6
REMARK    6  A    between atoms: C_7  and  C_11
REMARK    7  A    between atoms: C_11  and  C_13
REMARK    8  A    between atoms: C_11  and  N_71
REMARK    9  A    between atoms: C_17  and  O_25
REMARK   10  A    between atoms: O_25  and  C_26
REMARK   11  A    between atoms: C_27  and  C_28
REMARK   12  A    between atoms: C_27  and  N_71
REMARK   13  A    between atoms: C_33  and  C_34
REMARK   14  A    between atoms: C_33  and  N_71
REMARK                            x       y       z     vdW  Elec       q    Type
REMARK                         _______ _______ _______ _____ _____    ______ ____
ROOT
ATOM      1  C   UNL     1       4.296  -2.820   0.298  0.00  0.00    +0.039 C 
ENDROOT
BRANCH   1   2
ATOM      2  C   UNL     1       3.104  -2.642   1.203  0.00  0.00    +0.011 A 
ATOM      3  C   UNL     1       2.789  -1.409   1.671  0.00  0.00    +0.017 A 
ATOM      4  C   UNL     1       1.625  -1.270   2.548  0.00  0.00    +0.002 A 
ATOM      5  C   UNL     1       1.253  -0.022   3.060  0.00  0.00    +0.055 A 
ATOM      6  C   UNL     1       0.149   0.074   3.883  0.00  0.00    +0.121 A 
ATOM      7  C   UNL     1      -0.591  -1.062   4.204  0.00  0.00    +0.047 A 
ATOM      8  C   UNL     1      -0.234  -2.296   3.705  0.00  0.00    +0.030 A 
ATOM      9  C   UNL     1       0.875  -2.415   2.874  0.00  0.00    +0.049 A 
ATOM     10  N   UNL     1       1.248  -3.642   2.364  0.00  0.00    -0.322 N 
ATOM     11  H   UNL     1       0.715  -4.455   2.596  0.00  0.00    +0.169 HD
ATOM     12  C   UNL     1       2.319  -3.759   1.559  0.00  0.00    +0.251 A 
ATOM     13  O   UNL     1       2.619  -4.859   1.127  0.00  0.00    -0.268 OA
BRANCH   6  14
ATOM     14  O   UNL     1      -0.218   1.284   4.384  0.00  0.00    -0.495 OA
ATOM     15  C   UNL     1      -1.370   1.313   5.229  0.00  0.00    +0.277 C 
ENDBRANCH   6  14
ENDBRANCH   1   2
BRANCH   1  17
ATOM     16  N   UNL     1       3.869  -2.554  -2.202  0.00  0.00    -0.225 N 
ATOM     17  C   UNL     1       3.832  -3.270  -1.063  0.00  0.00    +0.143 A 
ATOM     18  N   UNL     1       3.307  -4.432  -1.366  0.00  0.00    -0.115 NA
ATOM     19  N   UNL     1       3.041  -4.432  -2.627  0.00  0.00    -0.023 NA
ATOM     20  N   UNL     1       3.382  -3.299  -3.136  0.00  0.00    -0.043 NA
BRANCH  16  21
ATOM     21  C   UNL     1       4.371  -1.186  -2.353  0.00  0.00    +0.061 C 
ATOM     22  C   UNL     1       3.611  -0.255  -1.406  0.00  0.00    +0.036 C 
ATOM     23  C   UNL     1       5.863  -1.150  -2.016  0.00  0.00    +0.036 C 
BRANCH  21  25
ATOM     24  C   UNL     1       4.688   0.705  -3.956  0.00  0.00    +0.006 C 
ATOM     25  C   UNL     1       4.164  -0.724  -3.797  0.00  0.00    +0.026 C 
ENDBRANCH  21  25
ENDBRANCH  16  21
ENDBRANCH   1  17
BRANCH   1  26
ATOM     26  N   UNL     1       5.182  -3.857   0.869  0.00  0.00    +0.394 N 
ATOM     27  H   UNL     1       4.669  -4.745   0.914  0.00  0.00    -0.080 HD
BRANCH  26  28
ATOM     28  C   UNL     1       6.372  -4.033   0.011  0.00  0.00    -0.034 C 
BRANCH  28  29
ATOM     29  C   UNL     1       7.092  -5.288   0.431  0.00  0.00    -0.027 A 
ATOM     30  C   UNL     1       6.849  -6.572   0.070  0.00  0.00    +0.009 A 
ATOM     31  C   UNL     1       7.650  -7.575   0.583  0.00  0.00    +0.008 A 
ATOM     32  C   UNL     1       8.647  -7.247   1.440  0.00  0.00    +0.045 A 
ATOM     33  S   UNL     1       8.479  -5.472   1.539  0.00  0.00    -0.103 S 
ENDBRANCH  28  29
ENDBRANCH  26  28
BRANCH  26  34
ATOM     34  C   UNL     1       5.596  -3.472   2.235  0.00  0.00    -0.045 C 
BRANCH  34  35
ATOM     35  C   UNL     1       6.443  -2.199   2.200  0.00  0.00    +0.102 C 
ATOM     36  C   UNL     1       7.004  -1.887   3.605  0.00  0.00    +0.032 C 
ATOM     37  C   UNL     1       6.949  -0.346   3.698  0.00  0.00    +0.030 C 
ATOM     38  C   UNL     1       6.360   0.091   2.338  0.00  0.00    +0.160 C 
ATOM     39  O   UNL     1       5.622  -1.058   1.869  0.00  0.00    -0.378 OA
ENDBRANCH  34  35
ENDBRANCH  26  34
ENDBRANCH   1  26
TORSDOF 10
