REMARK  Name = ZINC20590441
REMARK  7 active torsions:
REMARK  status: ('A' for Active; 'I' for Inactive)
REMARK    1  A    between atoms: C_1  and  C_2
REMARK    2  A    between atoms: C_2  and  C_3
REMARK    3  A    between atoms: N_15  and  C_18
REMARK    4  A    between atoms: C_20  and  C_26
REMARK    5  A    between atoms: C_20  and  C_27
REMARK    6  A    between atoms: C_22  and  C_24
REMARK    7  A    between atoms: C_22  and  C_25
REMARK                            x       y       z     vdW  Elec       q    Type
REMARK                         _______ _______ _______ _____ _____    ______ ____
ROOT
ATOM      1  C   UNL     1       0.866  -0.152  -1.271  0.00  0.00    -0.030 A 
ATOM      2  C   UNL     1       2.206  -0.373  -1.249  0.00  0.00    +0.096 A 
ATOM      3  C   UNL     1       2.868  -0.790  -2.422  0.00  0.00    +0.337 A 
ATOM      4  O   UNL     1       4.069  -0.985  -2.389  0.00  0.00    -0.245 OA
ATOM      5  O   UNL     1       2.207  -0.979  -3.575  0.00  0.00    -0.422 OA
ATOM      6  C   UNL     1       0.875  -0.774  -3.666  0.00  0.00    +0.147 A 
ATOM      7  C   UNL     1       0.151  -0.363  -2.531  0.00  0.00    +0.021 A 
ATOM      8  C   UNL     1      -1.230  -0.158  -2.621  0.00  0.00    +0.015 A 
ATOM      9  C   UNL     1      -1.869  -0.362  -3.808  0.00  0.00    +0.047 A 
ATOM     10  C   UNL     1      -1.158  -0.773  -4.937  0.00  0.00    +0.130 A 
ATOM     11  C   UNL     1       0.210  -0.968  -4.869  0.00  0.00    +0.051 A 
ATOM     12  C   UNL     1       0.991  -1.404  -6.082  0.00  0.00    +0.130 C 
ATOM     13  N   UNL     1       0.070  -1.937  -7.096  0.00  0.00    -0.263 NA
ATOM     14  C   UNL     1      -1.049  -1.003  -7.306  0.00  0.00    +0.319 C 
ATOM     15  O   UNL     1      -1.830  -0.968  -6.102  0.00  0.00    -0.476 OA
ENDROOT
BRANCH  13  16
ATOM     16  C   UNL     1       0.775  -2.208  -8.360  0.00  0.00    +0.058 C 
ATOM     17  C   UNL     1       1.241  -0.884  -8.968  0.00  0.00    +0.006 C 
ATOM     18  C   UNL     1       1.965  -1.148 -10.288  0.00  0.00    -0.072 C 
ATOM     19  N   UNL     1       1.157  -1.932 -11.210  0.00  0.00    +0.386 N 
ATOM     20  C   UNL     1       0.490  -3.113 -10.687  0.00  0.00    -0.072 C 
ATOM     21  C   UNL     1      -0.188  -2.875  -9.341  0.00  0.00    +0.006 C 
ATOM     22  C   UNL     1       1.445  -4.305 -10.586  0.00  0.00    -0.010 C 
ATOM     23  C   UNL     1      -0.617  -3.506 -11.694  0.00  0.00    -0.010 C 
ATOM     24  C   UNL     1       3.326  -1.791 -10.025  0.00  0.00    -0.010 C 
ATOM     25  C   UNL     1       2.228   0.225 -10.949  0.00  0.00    -0.010 C 
ATOM     26  H   UNL     1       0.449  -1.317 -11.618  0.00  0.00    -0.084 HD
ATOM     27  H   UNL     1       1.749  -2.217 -11.994  0.00  0.00    -0.084 HD
ENDBRANCH  13  16
BRANCH   1  29
ATOM     28  C   UNL     1       0.006   1.819  -0.035  0.00  0.00    +0.009 C 
ATOM     29  C   UNL     1       0.135   0.294  -0.031  0.00  0.00    +0.033 C 
ENDBRANCH   1  29
TORSDOF 2
