REMARK  Name = ZINC39855457
REMARK  6 active torsions:
REMARK  status: ('A' for Active; 'I' for Inactive)
REMARK    1  A    between atoms: C_1  and  C_2
REMARK    2  A    between atoms: C_6  and  C_7
REMARK    3  A    between atoms: C_18  and  C_20
REMARK    4  A    between atoms: C_23  and  C_28
REMARK    5  A    between atoms: C_23  and  C_29
REMARK    6  A    between atoms: C_25  and  O_27
REMARK                            x       y       z     vdW  Elec       q    Type
REMARK                         _______ _______ _______ _____ _____    ______ ____
ROOT
ATOM      1  C   UNL     1       0.658   0.722   0.701  0.00  0.00    +0.048 C 
ATOM      2  C   UNL     1      -0.237  -0.491   0.718  0.00  0.00    +0.006 A 
ATOM      3  C   UNL     1      -0.668  -1.227  -0.388  0.00  0.00    +0.025 A 
ATOM      4  C   UNL     1      -1.452  -2.232   0.074  0.00  0.00    +0.112 A 
ATOM      5  O   UNL     1      -1.520  -2.143   1.404  0.00  0.00    -0.454 OA
ATOM      6  C   UNL     1      -0.780  -1.091   1.821  0.00  0.00    +0.193 A 
ATOM      7  C   UNL     1      -2.113  -3.258  -0.815  0.00  0.00    +0.081 C 
ATOM      8  C   UNL     1      -1.428  -3.224  -2.187  0.00  0.00    -0.025 C 
ATOM      9  C   UNL     1      -1.360  -1.779  -2.689  0.00  0.00    +0.043 C 
ATOM     10  C   UNL     1      -0.353  -0.991  -1.843  0.00  0.00    +0.149 C 
ATOM     11  C   UNL     1      -0.011  -3.788  -2.063  0.00  0.00    +0.011 C 
ATOM     12  C   UNL     1      -2.229  -4.071  -3.177  0.00  0.00    +0.011 C 
ENDROOT
BRANCH   6  13
ATOM     13  C   UNL     1      -0.596  -0.665   3.211  0.00  0.00    +0.287 C 
ATOM     14  O   UNL     1      -0.678   0.513   3.503  0.00  0.00    -0.266 OA
ATOM     15  N   UNL     1      -0.334  -1.579   4.167  0.00  0.00    -0.262 N 
ATOM     16  C   UNL     1      -0.058  -2.910   3.823  0.00  0.00    +0.040 A 
ATOM     17  C   UNL     1       0.222  -3.223   2.498  0.00  0.00    +0.026 A 
ATOM     18  C   UNL     1       0.493  -4.527   2.137  0.00  0.00    +0.040 A 
ATOM     19  C   UNL     1       0.485  -5.525   3.098  0.00  0.00    +0.124 A 
ATOM     20  C   UNL     1       0.208  -5.215   4.417  0.00  0.00    +0.043 A 
ATOM     21  C   UNL     1      -0.062  -3.907   4.786  0.00  0.00    -0.023 A 
ATOM     22  C   UNL     1      -0.350  -3.603   6.232  0.00  0.00    +0.039 C 
ATOM     23  C   UNL     1      -1.099  -2.277   6.362  0.00  0.00    +0.027 C 
ATOM     24  C   UNL     1      -0.328  -1.196   5.585  0.00  0.00    +0.079 C 
ATOM     25  C   UNL     1      -1.017   0.159   5.759  0.00  0.00    +0.028 C 
ATOM     26  F   UNL     1       0.747  -6.803   2.746  0.00  0.00    -0.205 F 
ENDBRANCH   6  13
BRANCH  10  27
ATOM     27  O   UNL     1      -0.462   0.403  -2.139  0.00  0.00    -0.387 OA
ATOM     28  H   UNL     1       0.254   0.940  -1.772  0.00  0.00    +0.210 HD
ENDBRANCH  10  27
TORSDOF 2
