REMARK  Name = ZINC13503136
REMARK  12 active torsions:
REMARK  status: ('A' for Active; 'I' for Inactive)
REMARK    1  A    between atoms: C_1  and  C_2
REMARK    2  A    between atoms: C_2  and  C_3
REMARK    3  A    between atoms: C_2  and  C_4
REMARK    4  A    between atoms: C_4  and  C_6
REMARK    5  A    between atoms: C_4  and  N_15
REMARK    6  A    between atoms: N_8  and  C_9
REMARK    7  A    between atoms: C_9  and  C_10
REMARK    8  A    between atoms: N_15  and  C_16
REMARK    9  A    between atoms: C_22  and  C_24
REMARK   10  A    between atoms: C_24  and  N_25
REMARK   11  A    between atoms: N_25  and  S_26
REMARK   12  A    between atoms: S_26  and  C_29
REMARK                            x       y       z     vdW  Elec       q    Type
REMARK                         _______ _______ _______ _____ _____    ______ ____
ROOT
ATOM      1  N   UNL     1      -1.937   4.461  -3.498  0.00  0.00    -0.258 N 
ATOM      2  C   UNL     1      -1.220   3.323  -3.588  0.00  0.00    +0.236 C 
ATOM      3  O   UNL     1      -1.297   2.635  -4.584  0.00  0.00    -0.274 OA
ENDROOT
BRANCH   1   4
ATOM      4  C   UNL     1      -1.778   5.302  -2.391  0.00  0.00    +0.037 A 
ATOM      5  C   UNL     1      -2.291   4.930  -1.155  0.00  0.00    +0.023 A 
ATOM      6  C   UNL     1      -2.129   5.761  -0.064  0.00  0.00    +0.002 A 
ATOM      7  C   UNL     1      -1.466   6.966  -0.203  0.00  0.00    +0.000 A 
ATOM      8  C   UNL     1      -0.958   7.341  -1.433  0.00  0.00    +0.002 A 
ATOM      9  C   UNL     1      -1.113   6.513  -2.527  0.00  0.00    +0.023 A 
ENDBRANCH   1   4
BRANCH   1  10
ATOM     10  C   UNL     1      -2.882   4.817  -4.559  0.00  0.00    +0.170 C 
BRANCH  10  11
ATOM     11  C   UNL     1      -4.251   5.024  -3.964  0.00  0.00    +0.235 C 
ATOM     12  O   UNL     1      -4.380   5.133  -2.763  0.00  0.00    -0.274 OA
ATOM     13  N   UNL     1      -5.332   5.088  -4.766  0.00  0.00    -0.307 N 
ATOM     14  H   UNL     1      -5.240   4.924  -5.718  0.00  0.00    +0.149 HD
BRANCH  13  15
ATOM     15  C   UNL     1      -6.646   5.406  -4.201  0.00  0.00    +0.178 C 
BRANCH  15  16
ATOM     16  C   UNL     1      -7.677   5.415  -5.301  0.00  0.00    +0.122 A 
ATOM     17  C   UNL     1      -8.400   4.357  -5.709  0.00  0.00    +0.046 A 
ATOM     18  C   UNL     1      -9.237   4.812  -6.754  0.00  0.00    +0.041 A 
ATOM     19  C   UNL     1      -8.974   6.121  -6.922  0.00  0.00    +0.195 A 
ATOM     20  O   UNL     1      -8.032   6.482  -6.035  0.00  0.00    -0.466 OA
ENDBRANCH  15  16
ENDBRANCH  13  15
ENDBRANCH  10  11
BRANCH  10  22
ATOM     21  C   UNL     1      -1.066   5.874  -5.911  0.00  0.00    +0.009 C 
ATOM     22  C   UNL     1      -2.422   6.107  -5.240  0.00  0.00    +0.013 C 
ATOM     23  C   UNL     1      -3.449   6.521  -6.296  0.00  0.00    +0.009 C 
ENDBRANCH  10  22
ENDBRANCH   1  10
BRANCH   2  24
ATOM     24  C   UNL     1      -0.324   2.905  -2.451  0.00  0.00    +0.202 C 
BRANCH  24  25
ATOM     25  N   UNL     1       0.263   1.596  -2.747  0.00  0.00    -0.181 NA
ATOM     26  H   UNL     1      -0.108   1.047  -3.455  0.00  0.00    +0.149 HD
BRANCH  25  27
ATOM     27  S   UNL     1       1.561   1.053  -1.873  0.00  0.00    +0.059 S 
ATOM     28  O   UNL     1       1.876  -0.238  -2.373  0.00  0.00    -0.153 OA
ATOM     29  O   UNL     1       2.507   2.113  -1.849  0.00  0.00    -0.153 OA
BRANCH  27  30
ATOM     30  C   UNL     1       1.014   0.831  -0.213  0.00  0.00    +0.105 A 
ATOM     31  C   UNL     1       1.108   1.872   0.691  0.00  0.00    +0.031 A 
ATOM     32  C   UNL     1       0.674   1.700   1.992  0.00  0.00    +0.040 A 
ATOM     33  C   UNL     1       0.156   0.480   2.393  0.00  0.00    +0.124 A 
ATOM     34  C   UNL     1       0.067  -0.564   1.488  0.00  0.00    +0.040 A 
ATOM     35  C   UNL     1       0.496  -0.388   0.186  0.00  0.00    +0.031 A 
ATOM     36  F   UNL     1      -0.264   0.309   3.666  0.00  0.00    -0.205 F 
ENDBRANCH  27  30
ENDBRANCH  25  27
ENDBRANCH  24  25
ENDBRANCH   2  24
TORSDOF 10
