REMARK  Name = ZINC42954258
REMARK  9 active torsions:
REMARK  status: ('A' for Active; 'I' for Inactive)
REMARK    1  A    between atoms: C_1  and  C_2
REMARK    2  A    between atoms: C_2  and  N_3
REMARK    3  A    between atoms: N_3  and  C_4
REMARK    4  A    between atoms: N_3  and  C_10
REMARK    5  A    between atoms: C_4  and  C_5
REMARK    6  A    between atoms: C_10  and  C_12
REMARK    7  A    between atoms: C_10  and  C_19
REMARK    8  A    between atoms: C_19  and  C_21
REMARK    9  A    between atoms: C_19  and  N_22
REMARK                            x       y       z     vdW  Elec       q    Type
REMARK                         _______ _______ _______ _____ _____    ______ ____
ROOT
ATOM      1  C   UNL     1       0.828  -1.945   1.548  0.00  0.00    -0.052 C 
ENDROOT
BRANCH   1   2
ATOM      2  C   UNL     1       1.273  -2.667   0.302  0.00  0.00    -0.062 A 
ATOM      3  C   UNL     1       2.304  -2.154  -0.463  0.00  0.00    +0.003 A 
ATOM      4  C   UNL     1       2.713  -2.817  -1.605  0.00  0.00    +0.015 A 
ATOM      5  C   UNL     1       2.091  -3.993  -1.982  0.00  0.00    +0.018 A 
ATOM      6  C   UNL     1       1.059  -4.506  -1.216  0.00  0.00    +0.015 A 
ATOM      7  C   UNL     1       0.654  -3.845  -0.071  0.00  0.00    +0.003 A 
ATOM      8 BR   UNL     1       2.649  -4.899  -3.545  0.00  0.00    -0.050 Br
ENDBRANCH   1   2
BRANCH   1   9
ATOM      9  N   UNL     1       0.158  -0.692   1.175  0.00  0.00    +0.388 N 
ATOM     10  H   UNL     1      -0.170  -0.225   2.007  0.00  0.00    -0.080 HD
BRANCH   9  12
ATOM     11  C   UNL     1       0.455   1.537   0.204  0.00  0.00    -0.017 C 
ATOM     12  C   UNL     1       1.107   0.178   0.466  0.00  0.00    -0.081 C 
ENDBRANCH   9  12
BRANCH   9  13
ATOM     13  C   UNL     1      -0.982  -0.989   0.298  0.00  0.00    -0.002 C 
BRANCH  13  14
ATOM     14  C   UNL     1      -1.996  -1.810   1.053  0.00  0.00    +0.089 A 
ATOM     15  C   UNL     1      -3.039  -1.325   1.749  0.00  0.00    +0.042 A 
ATOM     16  C   UNL     1      -3.722  -2.438   2.292  0.00  0.00    +0.041 A 
ATOM     17  C   UNL     1      -3.054  -3.537   1.895  0.00  0.00    +0.195 A 
ATOM     18  O   UNL     1      -2.013  -3.150   1.139  0.00  0.00    -0.470 OA
ENDBRANCH  13  14
ENDBRANCH   9  13
ENDBRANCH   1   9
BRANCH   1  19
ATOM     19  C   UNL     1       2.046  -1.632   2.419  0.00  0.00    -0.088 C 
ATOM     20  C   UNL     1       1.596  -0.886   3.677  0.00  0.00    -0.016 C 
BRANCH  19  21
ATOM     21  N   UNL     1       2.708  -2.886   2.804  0.00  0.00    +0.379 N 
ATOM     22  H   UNL     1       3.005  -3.377   1.974  0.00  0.00    -0.090 HD
ATOM     23  H   UNL     1       3.512  -2.679   3.378  0.00  0.00    -0.090 HD
ATOM     24  H   UNL     1       2.063  -3.462   3.323  0.00  0.00    -0.090 HD
ENDBRANCH  19  21
ENDBRANCH   1  19
TORSDOF 7
