REMARK  Name = ZINC01202427
REMARK  7 active torsions:
REMARK  status: ('A' for Active; 'I' for Inactive)
REMARK    1  A    between atoms: C_1  and  C_2
REMARK    2  A    between atoms: C_3  and  C_30
REMARK    3  A    between atoms: C_4  and  C_21
REMARK    4  A    between atoms: C_10  and  C_15
REMARK    5  A    between atoms: C_25  and  N_27
REMARK    6  A    between atoms: C_30  and  O_32
REMARK    7  A    between atoms: O_32  and  C_33
REMARK                            x       y       z     vdW  Elec       q    Type
REMARK                         _______ _______ _______ _____ _____    ______ ____
ROOT
ATOM      1  C   UNL     1      -2.698   6.764  -2.429  0.00  0.00    +0.061 C 
ATOM      2  C   UNL     1      -2.030   6.287  -1.165  0.00  0.00    +0.016 C 
ATOM      3  C   UNL     1      -0.765   5.836  -1.207  0.00  0.00    +0.065 C 
ATOM      4  C   UNL     1      -0.070   5.347   0.030  0.00  0.00    +0.092 C 
ATOM      5  C   UNL     1      -0.778   5.827   1.272  0.00  0.00    +0.024 C 
ATOM      6  C   UNL     1      -2.049   6.276   1.212  0.00  0.00    +0.016 C 
ATOM      7  N   UNL     1      -2.716   6.316   0.017  0.00  0.00    -0.321 N 
ATOM      8  C   UNL     1      -2.769   6.739   2.454  0.00  0.00    +0.059 C 
ATOM      9  C   UNL     1      -1.761   7.334   3.440  0.00  0.00    +0.032 C 
ATOM     10  C   UNL     1      -0.713   6.266   3.769  0.00  0.00    +0.088 C 
ATOM     11  C   UNL     1      -0.076   5.794   2.490  0.00  0.00    +0.162 C 
ATOM     12  O   UNL     1       1.065   5.378   2.511  0.00  0.00    -0.292 OA
ATOM     13  H   UNL     1      -3.815   6.371   0.015  0.00  0.00    +0.152 HD
ENDROOT
BRANCH   9  14
ATOM     14  C   UNL     1      -2.472   7.751   4.702  0.00  0.00    -0.044 A 
ATOM     15  C   UNL     1      -3.160   6.814   5.449  0.00  0.00    +0.004 A 
ATOM     16  C   UNL     1      -3.809   7.195   6.609  0.00  0.00    +0.000 A 
ATOM     17  C   UNL     1      -3.777   8.516   7.016  0.00  0.00    +0.000 A 
ATOM     18  C   UNL     1      -3.093   9.454   6.266  0.00  0.00    +0.000 A 
ATOM     19  C   UNL     1      -2.441   9.072   5.109  0.00  0.00    +0.004 A 
ENDBRANCH   9  14
BRANCH   4  20
ATOM     20  C   UNL     1      -0.050   3.840   0.022  0.00  0.00    -0.033 A 
ATOM     21  C   UNL     1      -1.238   3.133   0.030  0.00  0.00    +0.005 A 
ATOM     22  C   UNL     1      -1.219   1.751   0.017  0.00  0.00    +0.003 A 
ATOM     23  C   UNL     1      -0.013   1.076   0.008  0.00  0.00    +0.033 A 
ATOM     24  C   UNL     1       1.175   1.783   0.000  0.00  0.00    +0.126 A 
ATOM     25  C   UNL     1       1.156   3.166   0.008  0.00  0.00    +0.037 A 
BRANCH  24  26
ATOM     26  N   UNL     1       2.467   1.060  -0.016  0.00  0.00    +0.056 N 
ATOM     27  O   UNL     1       2.483  -0.157  -0.023  0.00  0.00    -0.126 OA
ATOM     28  O   UNL     1       3.513   1.684  -0.022  0.00  0.00    -0.126 OA
ENDBRANCH  24  26
ENDBRANCH   4  20
BRANCH   3  29
ATOM     29  C   UNL     1      -0.074   5.824  -2.442  0.00  0.00    +0.338 C 
ATOM     30  O   UNL     1      -0.626   6.218  -3.452  0.00  0.00    -0.245 OA
BRANCH  29  31
ATOM     31  O   UNL     1       1.197   5.375  -2.499  0.00  0.00    -0.458 OA
BRANCH  31  32
ATOM     32  C   UNL     1       1.834   5.391  -3.778  0.00  0.00    +0.177 C 
ATOM     33  C   UNL     1       1.629   4.037  -4.487  0.00  0.00    +0.044 C 
ATOM     34  C   UNL     1       2.968   3.788  -5.226  0.00  0.00    +0.004 C 
ATOM     35  C   UNL     1       4.018   4.324  -4.221  0.00  0.00    +0.004 C 
ATOM     36  C   UNL     1       3.353   5.574  -3.609  0.00  0.00    +0.044 C 
ENDBRANCH  31  32
ENDBRANCH  29  31
ENDBRANCH   3  29
TORSDOF 6
