REMARK  Name = ZINC63579756
REMARK  7 active torsions:
REMARK  status: ('A' for Active; 'I' for Inactive)
REMARK    1  A    between atoms: C_1  and  C_2
REMARK    2  A    between atoms: C_5  and  N_9
REMARK    3  A    between atoms: C_6  and  C_8
REMARK    4  A    between atoms: C_10  and  C_12
REMARK    5  A    between atoms: C_13  and  C_24
REMARK    6  A    between atoms: C_18  and  S_22
REMARK    7  A    between atoms: S_22  and  C_23
REMARK                            x       y       z     vdW  Elec       q    Type
REMARK                         _______ _______ _______ _____ _____    ______ ____
ROOT
ATOM      1  C   UNL     1      -0.133  -6.300  -1.187  0.00  0.00    +0.080 A 
ATOM      2  C   UNL     1      -0.233  -7.148  -2.252  0.00  0.00    -0.017 A 
ATOM      3  C   UNL     1      -0.306  -8.518  -1.973  0.00  0.00    +0.076 A 
ATOM      4  C   UNL     1      -0.419  -9.656  -2.922  0.00  0.00    +0.282 A 
ATOM      5  O   UNL     1      -0.459  -9.454  -4.125  0.00  0.00    -0.265 OA
ATOM      6  N   UNL     1      -0.475 -10.902  -2.444  0.00  0.00    -0.185 NA
ATOM      7  C   UNL     1      -0.435 -11.163  -1.155  0.00  0.00    +0.171 A 
ATOM      8  N   UNL     1      -0.334 -10.169  -0.227  0.00  0.00    -0.328 N 
ATOM      9  C   UNL     1      -0.269  -8.865  -0.616  0.00  0.00    +0.093 A 
ATOM     10  S   UNL     1      -0.134  -7.415   0.202  0.00  0.00    -0.066 S 
ATOM     11  C   UNL     1      -0.263  -6.632  -3.668  0.00  0.00    +0.046 C 
ATOM     12  H   UNL     1      -0.306 -10.393   0.717  0.00  0.00    +0.168 HD
ENDROOT
BRANCH   1  14
ATOM     13  N   UNL     1       0.057  -4.169  -0.021  0.00  0.00    -0.281 N 
ATOM     14  C   UNL     1      -0.042  -4.838  -1.187  0.00  0.00    +0.255 C 
ATOM     15  O   UNL     1      -0.055  -4.227  -2.240  0.00  0.00    -0.269 OA
ATOM     16  H   UNL     1       0.134  -4.658   0.814  0.00  0.00    +0.155 HD
BRANCH  13  21
ATOM     17  C   UNL     1       0.024   1.503   0.005  0.00  0.00    +0.044 C 
ATOM     18  C   UNL     1       0.033  -0.004  -0.002  0.00  0.00    -0.050 A 
ATOM     19  C   UNL     1       0.631  -0.685  -1.046  0.00  0.00    +0.005 A 
ATOM     20  C   UNL     1       0.641  -2.066  -1.055  0.00  0.00    +0.024 A 
ATOM     21  C   UNL     1       0.050  -2.771  -0.014  0.00  0.00    +0.037 A 
ATOM     22  C   UNL     1      -0.550  -2.083   1.033  0.00  0.00    -0.029 A 
ATOM     23  C   UNL     1      -0.551  -0.702   1.039  0.00  0.00    +0.008 A 
ATOM     24  C   UNL     1      -1.193  -2.843   2.164  0.00  0.00    +0.045 C 
ENDBRANCH  13  21
ENDBRANCH   1  14
BRANCH   7  25
ATOM     25  S   UNL     1      -0.516 -12.838  -0.614  0.00  0.00    -0.091 S 
ATOM     26  C   UNL     1      -0.643 -13.790  -2.153  0.00  0.00    +0.093 C 
ENDBRANCH   7  25
TORSDOF 3
