REMARK  Name = ZINC24897988
REMARK  9 active torsions:
REMARK  status: ('A' for Active; 'I' for Inactive)
REMARK    1  A    between atoms: C_4  and  S_7
REMARK    2  A    between atoms: S_7  and  C_10
REMARK    3  A    between atoms: C_10  and  C_11
REMARK    4  A    between atoms: C_11  and  N_12
REMARK    5  A    between atoms: C_15  and  N_18
REMARK    6  A    between atoms: C_27  and  C_29
REMARK    7  A    between atoms: C_29  and  C_30
REMARK    8  A    between atoms: N_32  and  C_33
REMARK    9  A    between atoms: C_33  and  C_34
REMARK                            x       y       z     vdW  Elec       q    Type
REMARK                         _______ _______ _______ _____ _____    ______ ____
ROOT
ATOM      1  N   UNL     1       3.063   8.545   2.400  0.00  0.00    -0.292 NA
ATOM      2  C   UNL     1       4.008   9.674   2.419  0.00  0.00    +0.090 C 
ATOM      3  C   UNL     1       4.135  10.176   3.857  0.00  0.00    +0.051 C 
ATOM      4  C   UNL     1       4.418   9.020   4.782  0.00  0.00    -0.041 A 
ATOM      5  C   UNL     1       4.910   9.293   6.050  0.00  0.00    +0.004 A 
ATOM      6  C   UNL     1       5.175   8.264   6.932  0.00  0.00    +0.000 A 
ATOM      7  C   UNL     1       4.948   6.955   6.549  0.00  0.00    +0.000 A 
ATOM      8  C   UNL     1       4.460   6.683   5.287  0.00  0.00    +0.005 A 
ATOM      9  C   UNL     1       4.195   7.715   4.399  0.00  0.00    -0.027 A 
ATOM     10  C   UNL     1       3.667   7.367   3.032  0.00  0.00    +0.096 C 
ENDROOT
BRANCH   1  14
ATOM     11  N   UNL     1       2.607   8.937  -1.774  0.00  0.00    +0.381 N 
ATOM     12  C   UNL     1       1.398   9.112  -0.960  0.00  0.00    -0.077 C 
ATOM     13  C   UNL     1       1.794   9.405   0.489  0.00  0.00    +0.000 C 
ATOM     14  C   UNL     1       2.631   8.243   1.029  0.00  0.00    +0.054 C 
ATOM     15  C   UNL     1       3.860   8.051   0.136  0.00  0.00    +0.000 C 
ATOM     16  C   UNL     1       3.404   7.797  -1.303  0.00  0.00    -0.077 C 
ATOM     17  H   UNL     1       3.221   9.844  -1.662  0.00  0.00    -0.082 HD
BRANCH  11  18
ATOM     18  C   UNL     1       2.269   8.792  -3.196  0.00  0.00    -0.056 C 
BRANCH  18  19
ATOM     19  C   UNL     1       3.547   8.862  -4.034  0.00  0.00    +0.153 C 
BRANCH  19  20
ATOM     20  S   UNL     1       3.129   8.682  -5.790  0.00  0.00    -0.005 S 
ATOM     21  O   UNL     1       2.656   7.367  -6.048  0.00  0.00    -0.169 OA
ATOM     22  O   UNL     1       2.398   9.815  -6.238  0.00  0.00    -0.169 OA
BRANCH  20  26
ATOM     23  C   UNL     1       7.092   8.933  -7.962  0.00  0.00    +0.000 A 
ATOM     24  C   UNL     1       6.613   7.708  -7.538  0.00  0.00    +0.002 A 
ATOM     25  C   UNL     1       5.402   7.631  -6.875  0.00  0.00    +0.027 A 
ATOM     26  C   UNL     1       4.672   8.780  -6.635  0.00  0.00    +0.088 A 
ATOM     27  C   UNL     1       5.149  10.005  -7.064  0.00  0.00    +0.027 A 
ATOM     28  C   UNL     1       6.362  10.082  -7.722  0.00  0.00    +0.002 A 
ENDBRANCH  20  26
ENDBRANCH  19  20
ENDBRANCH  18  19
ENDBRANCH  11  18
ENDBRANCH   1  14
BRANCH  10  29
ATOM     29  C   UNL     1       2.612   6.268   3.163  0.00  0.00    +0.119 C 
BRANCH  29  30
ATOM     30  C   UNL     1       1.460   6.773   3.993  0.00  0.00    +0.215 C 
ATOM     31  O   UNL     1       1.432   7.932   4.350  0.00  0.00    -0.276 OA
ATOM     32  N   UNL     1       0.461   5.938   4.339  0.00  0.00    -0.308 N 
ATOM     33  H   UNL     1       0.486   4.886   4.015  0.00  0.00    +0.149 HD
BRANCH  32  34
ATOM     34  C   UNL     1      -0.659   6.429   5.146  0.00  0.00    +0.178 C 
BRANCH  34  35
ATOM     35  C   UNL     1      -1.633   5.305   5.391  0.00  0.00    +0.122 A 
ATOM     36  C   UNL     1      -1.602   4.451   6.430  0.00  0.00    +0.046 A 
ATOM     37  C   UNL     1      -2.695   3.569   6.268  0.00  0.00    +0.041 A 
ATOM     38  C   UNL     1      -3.324   3.932   5.135  0.00  0.00    +0.195 A 
ATOM     39  O   UNL     1      -2.677   4.986   4.610  0.00  0.00    -0.466 OA
ENDBRANCH  34  35
ENDBRANCH  32  34
ENDBRANCH  29  30
ENDBRANCH  10  29
TORSDOF 9
