REMARK  Name = ZINC37470414
REMARK  9 active torsions:
REMARK  status: ('A' for Active; 'I' for Inactive)
REMARK    1  A    between atoms: C_1  and  C_2
REMARK    2  A    between atoms: C_2  and  C_3
REMARK    3  A    between atoms: C_3  and  N_4
REMARK    4  A    between atoms: C_14  and  C_27
REMARK    5  A    between atoms: N_18  and  C_19
REMARK    6  A    between atoms: C_19  and  C_20
REMARK    7  A    between atoms: C_27  and  C_28
REMARK    8  A    between atoms: C_28  and  C_29
REMARK    9  A    between atoms: C_28  and  C_30
REMARK                            x       y       z     vdW  Elec       q    Type
REMARK                         _______ _______ _______ _____ _____    ______ ____
ROOT
ATOM      1  N   UNL     1      -4.588  -2.771   0.648  0.00  0.00    -0.299 N 
ATOM      2  C   UNL     1      -5.195  -3.920   0.288  0.00  0.00    +0.302 C 
ATOM      3  O   UNL     1      -6.395  -3.938   0.095  0.00  0.00    -0.253 OA
ATOM      4  N   UNL     1      -4.471  -5.047   0.142  0.00  0.00    -0.286 N 
ATOM      5  C   UNL     1      -3.042  -5.069   0.484  0.00  0.00    +0.109 C 
ATOM      6  C   UNL     1      -2.790  -6.212   1.473  0.00  0.00    +0.025 C 
ATOM      7  C   UNL     1      -3.324  -7.517   0.886  0.00  0.00    +0.006 C 
ATOM      8  C   UNL     1      -4.827  -7.411   0.634  0.00  0.00    +0.025 C 
ATOM      9  C   UNL     1      -5.097  -6.279  -0.357  0.00  0.00    +0.109 C 
ATOM     10  N   UNL     1      -3.051  -8.632   1.817  0.00  0.00    +0.401 N 
ATOM     11  C   UNL     1      -1.747  -9.155   1.343  0.00  0.00    +0.019 C 
ATOM     12  C   UNL     1      -1.694  -8.787  -0.124  0.00  0.00    +0.201 C 
ATOM     13  O   UNL     1      -0.942  -9.265  -0.947  0.00  0.00    -0.277 OA
ATOM     14  N   UNL     1      -2.622  -7.837  -0.360  0.00  0.00    -0.309 N 
ATOM     15  H   UNL     1      -3.644  -2.771   0.872  0.00  0.00    +0.150 HD
ATOM     16  H   UNL     1      -2.977  -8.294   2.765  0.00  0.00    -0.082 HD
ATOM     17  H   UNL     1      -3.767  -9.340   1.745  0.00  0.00    -0.082 HD
ENDROOT
BRANCH   1  18
ATOM     18  C   UNL     1      -5.354  -1.524   0.702  0.00  0.00    +0.105 C 
BRANCH  18  20
ATOM     19  C   UNL     1      -5.235   0.924   1.191  0.00  0.00    +0.005 C 
ATOM     20  C   UNL     1      -4.435  -0.379   1.135  0.00  0.00    +0.015 C 
ENDBRANCH  18  20
ENDBRANCH   1  18
BRANCH  14  21
ATOM     21  C   UNL     1      -2.888  -7.220  -1.663  0.00  0.00    +0.141 C 
BRANCH  21  22
ATOM     22  C   UNL     1      -3.691  -8.169  -2.513  0.00  0.00    -0.030 A 
ATOM     23  C   UNL     1      -3.055  -9.178  -3.213  0.00  0.00    +0.008 A 
ATOM     24  C   UNL     1      -3.791 -10.049  -3.993  0.00  0.00    +0.038 A 
ATOM     25  C   UNL     1      -5.167  -9.912  -4.074  0.00  0.00    +0.123 A 
ATOM     26  C   UNL     1      -5.803  -8.902  -3.372  0.00  0.00    +0.038 A 
ATOM     27  C   UNL     1      -5.065  -8.035  -2.589  0.00  0.00    +0.008 A 
ATOM     28  F   UNL     1      -5.888 -10.763  -4.836  0.00  0.00    -0.205 F 
ENDBRANCH  21  22
ENDBRANCH  14  21
BRANCH  11  29
ATOM     29  C   UNL     1      -1.688 -10.674   1.516  0.00  0.00    -0.004 C 
BRANCH  29  30
ATOM     30  C   UNL     1      -1.783 -11.023   3.003  0.00  0.00    -0.018 C 
ATOM     31  C   UNL     1      -1.882 -12.541   3.166  0.00  0.00    +0.007 C 
ATOM     32  C   UNL     1      -0.535 -10.513   3.727  0.00  0.00    +0.007 C 
ENDBRANCH  29  30
ENDBRANCH  11  29
TORSDOF 6
