REMARK  Name = ZINC02503168
REMARK  4 active torsions:
REMARK  status: ('A' for Active; 'I' for Inactive)
REMARK    1  A    between atoms: C_1  and  C_2
REMARK    2  A    between atoms: C_9  and  N_13
REMARK    3  A    between atoms: C_10  and  C_11
REMARK    4  A    between atoms: C_14  and  C_16
REMARK                            x       y       z     vdW  Elec       q    Type
REMARK                         _______ _______ _______ _____ _____    ______ ____
ROOT
ATOM      1  N   UNL     1      -2.303  -5.916   0.765  0.00  0.00    -0.272 N 
ATOM      2  C   UNL     1      -3.568  -6.205   0.399  0.00  0.00    +0.284 C 
ATOM      3  O   UNL     1      -4.298  -5.323  -0.012  0.00  0.00    -0.266 OA
ATOM      4  H   UNL     1      -1.721  -6.619   1.093  0.00  0.00    +0.156 HD
ENDROOT
BRANCH   2   5
ATOM      5  C   UNL     1      -4.065  -7.587   0.497  0.00  0.00    +0.194 A 
ATOM      6  C   UNL     1      -5.341  -7.848   0.122  0.00  0.00    +0.060 A 
ATOM      7  C   UNL     1      -5.846  -9.220   0.214  0.00  0.00    -0.007 A 
ATOM      8  C   UNL     1      -7.148  -9.556  -0.156  0.00  0.00    +0.009 A 
ATOM      9  C   UNL     1      -7.568 -10.865  -0.048  0.00  0.00    +0.001 A 
ATOM     10  C   UNL     1      -6.710 -11.848   0.424  0.00  0.00    +0.001 A 
ATOM     11  C   UNL     1      -5.418 -11.537   0.796  0.00  0.00    +0.015 A 
ATOM     12  C   UNL     1      -4.972 -10.222   0.695  0.00  0.00    +0.067 A 
ATOM     13  C   UNL     1      -3.607  -9.830   1.075  0.00  0.00    +0.345 A 
ATOM     14  O   UNL     1      -2.823 -10.660   1.494  0.00  0.00    -0.245 OA
ATOM     15  O   UNL     1      -3.233  -8.545   0.950  0.00  0.00    -0.417 OA
ENDBRANCH   2   5
BRANCH   1  23
ATOM     16  C   UNL     1      -0.019   1.526   0.010  0.00  0.00    +0.008 C 
ATOM     17  C   UNL     1       0.002  -0.004   0.002  0.00  0.00    -0.009 C 
ATOM     18  C   UNL     1       0.742  -0.514   1.242  0.00  0.00    +0.008 C 
ATOM     19  C   UNL     1       0.985  -2.020   1.120  0.00  0.00    +0.037 C 
ATOM     20  C   UNL     1      -0.339  -2.706   0.809  0.00  0.00    -0.018 A 
ATOM     21  C   UNL     1      -1.390  -2.006   0.327  0.00  0.00    -0.004 A 
ATOM     22  S   UNL     1      -2.678  -3.204   0.125  0.00  0.00    -0.077 S 
ATOM     23  C   UNL     1      -1.835  -4.615   0.674  0.00  0.00    +0.090 A 
ATOM     24  C   UNL     1      -0.578  -4.126   0.999  0.00  0.00    +0.084 A 
ATOM     25  C   UNL     1      -1.437  -0.538   0.030  0.00  0.00    +0.046 C 
BRANCH  24  26
ATOM     26  C   UNL     1       0.447  -4.990   1.503  0.00  0.00    +0.102 C 
ATOM     27  N   UNL     1       1.260  -5.676   1.903  0.00  0.00    -0.191 NA
ENDBRANCH  24  26
ENDBRANCH   1  23
TORSDOF 3
