REMARK  Name = ZINC66442855
REMARK  7 active torsions:
REMARK  status: ('A' for Active; 'I' for Inactive)
REMARK    1  A    between atoms: C_1  and  C_2
REMARK    2  A    between atoms: C_2  and  C_7
REMARK    3  A    between atoms: C_7  and  N_8
REMARK    4  A    between atoms: C_9  and  C_11
REMARK    5  A    between atoms: C_15  and  N_17
REMARK    6  A    between atoms: N_17  and  S_18
REMARK    7  A    between atoms: S_18  and  C_21
REMARK                            x       y       z     vdW  Elec       q    Type
REMARK                         _______ _______ _______ _____ _____    ______ ____
ROOT
ATOM      1  C   UNL     1      -4.093   0.091  -2.656  0.00  0.00    +0.039 A 
ATOM      2  C   UNL     1      -3.424   0.921  -3.559  0.00  0.00    +0.013 A 
ATOM      3  C   UNL     1      -4.076   1.383  -4.684  0.00  0.00    +0.003 A 
ATOM      4  C   UNL     1      -5.391   1.030  -4.921  0.00  0.00    +0.027 A 
ATOM      5  C   UNL     1      -6.066   0.204  -4.029  0.00  0.00    +0.075 A 
ATOM      6  C   UNL     1      -5.418  -0.271  -2.899  0.00  0.00    +0.039 A 
ENDROOT
BRANCH   1   8
ATOM      7  N   UNL     1      -2.117  -0.054  -1.217  0.00  0.00    -0.311 N 
ATOM      8  C   UNL     1      -3.397  -0.406  -1.450  0.00  0.00    +0.244 C 
ATOM      9  O   UNL     1      -3.980  -1.132  -0.668  0.00  0.00    -0.270 OA
ATOM     10  H   UNL     1      -1.653   0.525  -1.841  0.00  0.00    +0.149 HD
BRANCH   7  11
ATOM     11  C   UNL     1      -1.428  -0.547  -0.022  0.00  0.00    +0.111 C 
BRANCH  11  13
ATOM     12  C   UNL     1      -0.019   1.526   0.010  0.00  0.00    +0.013 C 
ATOM     13  C   UNL     1       0.002  -0.004   0.002  0.00  0.00    -0.017 C 
ATOM     14  C   UNL     1       0.783  -0.515  -1.226  0.00  0.00    +0.008 C 
ATOM     15  C   UNL     1       2.213  -0.768  -0.688  0.00  0.00    +0.001 C 
ATOM     16  C   UNL     1       1.950  -1.339   0.728  0.00  0.00    +0.001 C 
ATOM     17  C   UNL     1       0.744  -0.528   1.244  0.00  0.00    +0.008 C 
ENDBRANCH  11  13
ENDBRANCH   7  11
ENDBRANCH   1   8
BRANCH   5  18
ATOM     18  N   UNL     1      -7.395  -0.150  -4.274  0.00  0.00    -0.097 NA
BRANCH  18  19
ATOM     19  S   UNL     1      -8.166   0.413  -5.627  0.00  0.00    +0.098 S 
ATOM     20  O   UNL     1      -8.282   1.820  -5.473  0.00  0.00    -0.148 OA
ATOM     21  O   UNL     1      -7.514  -0.180  -6.742  0.00  0.00    -0.148 OA
BRANCH  19  22
ATOM     22  C   UNL     1      -9.805  -0.234  -5.599  0.00  0.00    +0.148 A 
ATOM     23  C   UNL     1     -10.924   0.301  -5.054  0.00  0.00    +0.037 A 
ATOM     24  C   UNL     1     -12.116  -0.391  -5.154  0.00  0.00    +0.010 A 
ATOM     25  C   UNL     1     -12.130  -1.586  -5.796  0.00  0.00    +0.047 A 
ATOM     26  S   UNL     1     -10.423  -1.760  -6.289  0.00  0.00    -0.077 S 
ENDBRANCH  19  22
ENDBRANCH  18  19
ENDBRANCH   5  18
TORSDOF 6
