REMARK  Name = ZINC62960543
REMARK  7 active torsions:
REMARK  status: ('A' for Active; 'I' for Inactive)
REMARK    1  A    between atoms: C_1  and  C_2
REMARK    2  A    between atoms: C_2  and  C_3
REMARK    3  A    between atoms: C_3  and  C_18
REMARK    4  A    between atoms: C_9  and  C_11
REMARK    5  A    between atoms: C_11  and  C_13
REMARK    6  A    between atoms: C_11  and  C_14
REMARK    7  A    between atoms: N_15  and  O_16
REMARK                            x       y       z     vdW  Elec       q    Type
REMARK                         _______ _______ _______ _____ _____    ______ ____
ROOT
ATOM      1  C   UNL     1      -0.554  -1.112  -1.202  0.00  0.00    -0.029 C 
ATOM      2  C   UNL     1      -1.412  -0.698  -2.400  0.00  0.00    +0.025 C 
ATOM      3  C   UNL     1      -2.889  -0.708  -1.992  0.00  0.00    +0.108 C 
ATOM      4  N   UNL     1      -3.219  -2.029  -1.441  0.00  0.00    -0.301 N 
ATOM      5  C   UNL     1      -2.399  -2.562  -0.345  0.00  0.00    +0.108 C 
ATOM      6  C   UNL     1      -0.927  -2.532  -0.771  0.00  0.00    +0.025 C 
ATOM      7  C   UNL     1      -4.255  -2.738  -1.931  0.00  0.00    +0.226 C 
ATOM      8  O   UNL     1      -4.471  -3.859  -1.522  0.00  0.00    -0.275 OA
ATOM      9  C   UNL     1      -0.800  -0.146  -0.041  0.00  0.00    +0.011 C 
ENDROOT
BRANCH   1  11
ATOM     10  C   UNL     1       1.297   0.349  -2.026  0.00  0.00    +0.004 C 
ATOM     11  C   UNL     1       0.924  -1.071  -1.595  0.00  0.00    +0.003 C 
ENDBRANCH   1  11
BRANCH   7  12
ATOM     12  C   UNL     1      -5.146  -2.138  -2.988  0.00  0.00    +0.138 C 
ATOM     13  C   UNL     1      -6.159  -1.200  -2.329  0.00  0.00    +0.025 C 
BRANCH  12  14
ATOM     14  C   UNL     1      -5.878  -3.238  -3.712  0.00  0.00    +0.143 C 
ATOM     15  N   UNL     1      -7.068  -3.577  -3.340  0.00  0.00    -0.076 NA
ATOM     16  N   UNL     1      -5.278  -3.883  -4.772  0.00  0.00    -0.343 N 
ATOM     17  H   UNL     1      -4.385  -3.628  -5.051  0.00  0.00    +0.144 HD
ATOM     18  H   UNL     1      -5.749  -4.591  -5.238  0.00  0.00    +0.144 HD
BRANCH  15  19
ATOM     19  O   UNL     1      -7.755  -4.611  -4.021  0.00  0.00    -0.408 OA
ATOM     20  H   UNL     1      -8.638  -4.793  -3.670  0.00  0.00    +0.328 HD
ENDBRANCH  15  19
ENDBRANCH  12  14
ENDBRANCH   7  12
TORSDOF 4
