REMARK  Name = ZINC36510182
REMARK  17 active torsions:
REMARK  status: ('A' for Active; 'I' for Inactive)
REMARK    1  A    between atoms: C_1  and  C_2
REMARK    2  A    between atoms: C_2  and  C_3
REMARK    3  A    between atoms: C_3  and  C_4
REMARK    4  A    between atoms: C_4  and  C_5
REMARK    5  A    between atoms: C_5  and  C_6
REMARK    6  A    between atoms: C_6  and  N_7
REMARK    7  A    between atoms: N_7  and  C_8
REMARK    8  A    between atoms: C_8  and  C_10
REMARK    9  A    between atoms: C_8  and  C_19
REMARK   10  A    between atoms: C_13  and  N_16
REMARK   11  A    between atoms: N_21  and  C_22
REMARK   12  A    between atoms: C_28  and  C_30
REMARK   13  A    between atoms: C_31  and  C_32
REMARK   14  A    between atoms: C_32  and  C_33
REMARK   15  A    between atoms: C_33  and  C_34
REMARK   16  A    between atoms: C_34  and  C_35
REMARK   17  A    between atoms: C_35  and  C_36
REMARK                            x       y       z     vdW  Elec       q    Type
REMARK                         _______ _______ _______ _____ _____    ______ ____
ROOT
ATOM      1  C   UNL     1       3.480  -4.853  -3.866  0.00  0.00    +0.192 C 
ENDROOT
BRANCH   1   2
ATOM      2  C   UNL     1       4.192  -6.031  -4.479  0.00  0.00    -0.018 A 
ATOM      3  C   UNL     1       5.435  -5.862  -5.059  0.00  0.00    +0.008 A 
ATOM      4  C   UNL     1       6.089  -6.942  -5.622  0.00  0.00    +0.033 A 
ATOM      5  C   UNL     1       5.500  -8.192  -5.603  0.00  0.00    +0.126 A 
ATOM      6  C   UNL     1       4.257  -8.362  -5.021  0.00  0.00    +0.033 A 
ATOM      7  C   UNL     1       3.605  -7.282  -4.455  0.00  0.00    +0.008 A 
BRANCH   5   8
ATOM      8  N   UNL     1       6.199  -9.349  -6.205  0.00  0.00    +0.056 N 
ATOM      9  O   UNL     1       7.285  -9.201  -6.714  0.00  0.00    -0.126 OA
ATOM     10  O   UNL     1       5.684 -10.443  -6.189  0.00  0.00    -0.126 OA
ENDBRANCH   5   8
ENDBRANCH   1   2
BRANCH   1  11
ATOM     11  C   UNL     1       3.994  -4.627  -2.467  0.00  0.00    +0.238 C 
ATOM     12  O   UNL     1       3.217  -4.384  -1.568  0.00  0.00    -0.273 OA
ATOM     13  N   UNL     1       5.316  -4.695  -2.216  0.00  0.00    -0.311 N 
ATOM     14  H   UNL     1       5.937  -4.889  -2.935  0.00  0.00    +0.149 HD
BRANCH  13  15
ATOM     15  C   UNL     1       5.815  -4.476  -0.856  0.00  0.00    +0.073 C 
ATOM     16  C   UNL     1       5.996  -2.976  -0.615  0.00  0.00    +0.022 C 
ATOM     17  C   UNL     1       6.517  -2.747   0.805  0.00  0.00    +0.002 C 
ATOM     18  C   UNL     1       7.862  -3.456   0.975  0.00  0.00    +0.000 C 
ATOM     19  C   UNL     1       7.682  -4.956   0.734  0.00  0.00    +0.002 C 
ATOM     20  C   UNL     1       7.160  -5.185  -0.686  0.00  0.00    +0.022 C 
ENDBRANCH  13  15
ENDBRANCH   1  11
BRANCH   1  21
ATOM     21  N   UNL     1       3.727  -3.657  -4.676  0.00  0.00    -0.282 N 
ATOM     22  C   UNL     1       3.546  -3.699  -6.011  0.00  0.00    +0.240 C 
ATOM     23  O   UNL     1       3.178  -4.728  -6.543  0.00  0.00    -0.271 OA
BRANCH  22  24
ATOM     24  C   UNL     1       3.795  -2.498  -6.824  0.00  0.00    +0.063 C 
ATOM     25  C   UNL     1       3.616  -2.539  -8.142  0.00  0.00    -0.022 C 
BRANCH  25  26
ATOM     26  C   UNL     1       3.871  -1.309  -8.975  0.00  0.00    +0.027 C 
BRANCH  26  27
ATOM     27  C   UNL     1       4.874  -1.641 -10.081  0.00  0.00    +0.004 C 
BRANCH  27  28
ATOM     28  C   UNL     1       5.132  -0.393 -10.927  0.00  0.00    +0.000 C 
BRANCH  28  29
ATOM     29  C   UNL     1       6.136  -0.725 -12.033  0.00  0.00    -0.003 C 
ATOM     30  C   UNL     1       6.394   0.524 -12.879  0.00  0.00    +0.004 C 
ENDBRANCH  28  29
ENDBRANCH  27  28
ENDBRANCH  26  27
ENDBRANCH  25  26
ENDBRANCH  22  24
BRANCH  21  31
ATOM     31  C   UNL     1       4.171  -2.417  -4.035  0.00  0.00    +0.109 C 
BRANCH  31  32
ATOM     32  C   UNL     1       5.695  -2.430  -3.900  0.00  0.00    +0.019 C 
BRANCH  32  33
ATOM     33  C   UNL     1       6.172  -1.072  -3.382  0.00  0.00    +0.002 C 
BRANCH  33  34
ATOM     34  C   UNL     1       7.696  -1.084  -3.246  0.00  0.00    -0.000 C 
BRANCH  34  36
ATOM     35  C   UNL     1       9.698   0.261  -2.593  0.00  0.00    +0.004 C 
ATOM     36  C   UNL     1       8.174   0.274  -2.728  0.00  0.00    -0.003 C 
ENDBRANCH  34  36
ENDBRANCH  33  34
ENDBRANCH  32  33
ENDBRANCH  31  32
ENDBRANCH  21  31
ENDBRANCH   1  21
TORSDOF 15
