REMARK  Name = ZINC39995339
REMARK  15 active torsions:
REMARK  status: ('A' for Active; 'I' for Inactive)
REMARK    1  A    between atoms: C_1  and  C_2
REMARK    2  A    between atoms: C_2  and  C_3
REMARK    3  A    between atoms: C_3  and  N_4
REMARK    4  A    between atoms: N_4  and  C_5
REMARK    5  A    between atoms: C_5  and  C_6
REMARK    6  A    between atoms: C_9  and  C_11
REMARK    7  A    between atoms: C_11  and  O_12
REMARK    8  A    between atoms: O_12  and  C_13
REMARK    9  A    between atoms: C_13  and  C_15
REMARK   10  A    between atoms: C_16  and  C_27
REMARK   11  A    between atoms: C_17  and  C_22
REMARK   12  A    between atoms: C_19  and  C_21
REMARK   13  A    between atoms: C_22  and  O_24
REMARK   14  A    between atoms: O_24  and  C_25
REMARK   15  A    between atoms: C_25  and  C_26
REMARK                            x       y       z     vdW  Elec       q    Type
REMARK                         _______ _______ _______ _____ _____    ______ ____
ROOT
ATOM      1  C   UNL     1      -1.455  -2.306  -4.801  0.00  0.00    +0.338 C 
ATOM      2  O   UNL     1      -1.473  -1.101  -4.954  0.00  0.00    -0.245 OA
ENDROOT
BRANCH   1   3
ATOM      3  C   UNL     1      -1.454  -3.195  -5.971  0.00  0.00    +0.066 C 
ATOM      4  C   UNL     1      -1.465  -2.830  -7.269  0.00  0.00    -0.007 C 
ATOM      5  C   UNL     1      -1.459  -4.036  -8.108  0.00  0.00    +0.146 C 
ATOM      6  N   UNL     1      -1.445  -5.107  -7.380  0.00  0.00    -0.269 NA
ATOM      7  C   UNL     1      -1.433  -4.707  -5.967  0.00  0.00    +0.140 C 
ATOM      8  C   UNL     1      -0.164  -5.217  -5.281  0.00  0.00    +0.038 C 
ATOM      9  C   UNL     1      -1.481  -1.411  -7.778  0.00  0.00    +0.047 C 
BRANCH   5  10
ATOM     10  C   UNL     1      -1.468  -4.028  -9.595  0.00  0.00    +0.358 C 
ATOM     11  O   UNL     1      -1.482  -2.974 -10.196  0.00  0.00    -0.243 OA
BRANCH  10  12
ATOM     12  O   UNL     1      -1.462  -5.191 -10.274  0.00  0.00    -0.460 OA
BRANCH  12  13
ATOM     13  C   UNL     1      -1.471  -5.108 -11.700  0.00  0.00    +0.229 C 
ATOM     14  C   UNL     1      -1.462  -6.519 -12.293  0.00  0.00    +0.048 C 
ENDBRANCH  12  13
ENDBRANCH  10  12
ENDBRANCH   5  10
ENDBRANCH   1   3
BRANCH   1  15
ATOM     15  O   UNL     1      -1.436  -2.828  -3.558  0.00  0.00    -0.452 OA
BRANCH  15  16
ATOM     16  C   UNL     1      -1.438  -1.906  -2.467  0.00  0.00    +0.328 C 
BRANCH  16  18
ATOM     17  N   UNL     1      -1.413  -1.998   0.005  0.00  0.00    -0.298 N 
ATOM     18  C   UNL     1      -1.415  -2.666  -1.166  0.00  0.00    +0.253 C 
ATOM     19  O   UNL     1      -1.399  -3.879  -1.173  0.00  0.00    -0.272 OA
BRANCH  17  20
ATOM     20  C   UNL     1      -1.433  -0.534   0.013  0.00  0.00    +0.107 C 
BRANCH  20  22
ATOM     21  C   UNL     1      -0.019   1.526   0.010  0.00  0.00    +0.005 C 
ATOM     22  C   UNL     1       0.002  -0.004   0.002  0.00  0.00    +0.016 C 
ENDBRANCH  20  22
ENDBRANCH  17  20
BRANCH  17  23
ATOM     23  C   UNL     1      -1.391  -2.738   1.269  0.00  0.00    +0.111 C 
BRANCH  23  24
ATOM     24  C   UNL     1      -2.826  -3.015   1.723  0.00  0.00    +0.006 C 
ATOM     25  C   UNL     1      -3.287  -2.377   3.035  0.00  0.00    +0.005 C 
ATOM     26  C   UNL     1      -3.018  -3.882   2.969  0.00  0.00    +0.005 C 
ENDBRANCH  23  24
ENDBRANCH  17  23
ENDBRANCH  16  18
ENDBRANCH  15  16
ENDBRANCH   1  15
TORSDOF 11
