REMARK  Name = ZINC16435349
REMARK  18 active torsions:
REMARK  status: ('A' for Active; 'I' for Inactive)
REMARK    1  A    between atoms: C_1  and  C_2
REMARK    2  A    between atoms: C_2  and  C_3
REMARK    3  A    between atoms: C_3  and  C_4
REMARK    4  A    between atoms: C_4  and  C_5
REMARK    5  A    between atoms: C_5  and  N_6
REMARK    6  A    between atoms: N_6  and  C_7
REMARK    7  A    between atoms: C_7  and  C_8
REMARK    8  A    between atoms: N_10  and  C_11
REMARK    9  A    between atoms: C_13  and  C_24
REMARK   10  A    between atoms: N_15  and  C_16
REMARK   11  A    between atoms: C_19  and  O_22
REMARK   12  A    between atoms: O_22  and  C_23
REMARK   13  A    between atoms: C_24  and  C_25
REMARK   14  A    between atoms: C_24  and  C_26
REMARK   15  A    between atoms: C_24  and  C_27
REMARK   16  A    between atoms: N_30  and  C_31
REMARK   17  A    between atoms: C_36  and  C_37
REMARK   18  A    between atoms: C_37  and  C_38
REMARK                            x       y       z     vdW  Elec       q    Type
REMARK                         _______ _______ _______ _____ _____    ______ ____
ROOT
ATOM      1  C   UNL     1       2.836   0.939  -1.464  0.00  0.00    +0.236 C 
ATOM      2  O   UNL     1       2.133   1.322  -2.374  0.00  0.00    -0.274 OA
ATOM      3  N   UNL     1       3.989   0.292  -1.728  0.00  0.00    -0.269 N 
ATOM      4  H   UNL     1       4.551  -0.014  -1.000  0.00  0.00    +0.156 HD
ENDROOT
BRANCH   3   5
ATOM      5  C   UNL     1       4.372   0.063  -3.049  0.00  0.00    +0.129 A 
ATOM      6  C   UNL     1       3.685   0.435  -4.164  0.00  0.00    +0.069 A 
ATOM      7  C   UNL     1       4.415   0.015  -5.279  0.00  0.00    +0.071 A 
ATOM      8  N   UNL     1       5.500  -0.587  -4.861  0.00  0.00    -0.169 NA
ATOM      9  N   UNL     1       5.505  -0.569  -3.461  0.00  0.00    -0.218 N 
BRANCH   9  10
ATOM     10  C   UNL     1       6.499  -1.107  -2.630  0.00  0.00    +0.068 A 
ATOM     11  C   UNL     1       6.823  -0.478  -1.436  0.00  0.00    +0.031 A 
ATOM     12  C   UNL     1       7.798  -1.012  -0.617  0.00  0.00    +0.048 A 
ATOM     13  C   UNL     1       8.461  -2.171  -0.992  0.00  0.00    +0.120 A 
ATOM     14  C   UNL     1       8.142  -2.798  -2.188  0.00  0.00    +0.048 A 
ATOM     15  C   UNL     1       7.163  -2.268  -3.005  0.00  0.00    +0.031 A 
BRANCH  13  16
ATOM     16  O   UNL     1       9.424  -2.694  -0.187  0.00  0.00    -0.495 OA
ATOM     17  C   UNL     1       9.701  -1.997   1.030  0.00  0.00    +0.277 C 
ENDBRANCH  13  16
ENDBRANCH   9  10
BRANCH   7  18
ATOM     18  C   UNL     1       4.021   0.221  -6.718  0.00  0.00    +0.006 C 
ATOM     19  C   UNL     1       4.257   1.681  -7.108  0.00  0.00    +0.017 C 
ATOM     20  C   UNL     1       4.865  -0.689  -7.613  0.00  0.00    +0.017 C 
ATOM     21  C   UNL     1       2.540  -0.121  -6.896  0.00  0.00    +0.017 C 
ENDBRANCH   7  18
ENDBRANCH   3   5
BRANCH   1  22
ATOM     22  C   UNL     1       2.422   1.187  -0.036  0.00  0.00    +0.205 C 
BRANCH  22  23
ATOM     23  N   UNL     1       1.143   1.902  -0.016  0.00  0.00    -0.277 N 
ATOM     24  C   UNL     1      -0.014   1.212   0.005  0.00  0.00    +0.307 C 
ATOM     25  O   UNL     1       0.003  -0.004   0.007  0.00  0.00    -0.252 OA
ATOM     26  N   UNL     1      -1.191   1.870   0.018  0.00  0.00    -0.269 N 
ATOM     27  H   UNL     1      -1.205   2.836   0.099  0.00  0.00    +0.156 HD
BRANCH  26  28
ATOM     28  C   UNL     1      -2.391   1.158  -0.086  0.00  0.00    +0.038 A 
ATOM     29  C   UNL     1      -2.411  -0.088  -0.699  0.00  0.00    +0.023 A 
ATOM     30  C   UNL     1      -3.596  -0.790  -0.796  0.00  0.00    +0.002 A 
ATOM     31  C   UNL     1      -4.765  -0.248  -0.292  0.00  0.00    +0.000 A 
ATOM     32  C   UNL     1      -4.750   0.994   0.314  0.00  0.00    +0.005 A 
ATOM     33  C   UNL     1      -3.566   1.699   0.418  0.00  0.00    -0.026 A 
BRANCH  33  34
ATOM     34  C   UNL     1      -3.551   3.054   1.078  0.00  0.00    +0.033 C 
ATOM     35  C   UNL     1      -3.680   4.143   0.011  0.00  0.00    +0.009 C 
ENDBRANCH  33  34
ENDBRANCH  26  28
BRANCH  23  36
ATOM     36  C   UNL     1       1.123   3.367  -0.018  0.00  0.00    +0.110 C 
BRANCH  36  37
ATOM     37  C   UNL     1       1.140   3.880   1.423  0.00  0.00    +0.019 C 
BRANCH  37  38
ATOM     38  C   UNL     1       1.119   5.409   1.421  0.00  0.00    +0.001 C 
BRANCH  38  40
ATOM     39  C   UNL     1       1.115   7.452   2.860  0.00  0.00    +0.004 C 
ATOM     40  C   UNL     1       1.136   5.922   2.862  0.00  0.00    -0.003 C 
ENDBRANCH  38  40
ENDBRANCH  37  38
ENDBRANCH  36  37
ENDBRANCH  23  36
ENDBRANCH  22  23
ENDBRANCH   1  22
TORSDOF 12
