REMARK  Name = ZINC22067310
REMARK  8 active torsions:
REMARK  status: ('A' for Active; 'I' for Inactive)
REMARK    1  A    between atoms: C_1  and  C_2
REMARK    2  A    between atoms: C_6  and  C_8
REMARK    3  A    between atoms: N_10  and  C_11
REMARK    4  A    between atoms: C_11  and  C_13
REMARK    5  A    between atoms: C_11  and  C_16
REMARK    6  A    between atoms: C_13  and  C_14
REMARK    7  A    between atoms: C_13  and  C_15
REMARK    8  A    between atoms: C_21  and  C_24
REMARK                            x       y       z     vdW  Elec       q    Type
REMARK                         _______ _______ _______ _____ _____    ______ ____
ROOT
ATOM      1  C   UNL     1       1.068   7.478   0.029  0.00  0.00    +0.162 C 
ENDROOT
BRANCH   1   2
ATOM      2  C   UNL     1       2.342   8.000  -0.582  0.00  0.00    +0.239 C 
ATOM      3  O   UNL     1       3.185   7.225  -0.984  0.00  0.00    -0.273 OA
ATOM      4  N   UNL     1       2.547   9.329  -0.682  0.00  0.00    -0.263 N 
ATOM      5  C   UNL     1       3.722   9.811  -1.245  0.00  0.00    +0.165 A 
ATOM      6  N   UNL     1       4.107  11.059  -1.431  0.00  0.00    -0.223 NA
ATOM      7  C   UNL     1       5.280  11.342  -1.993  0.00  0.00    +0.096 A 
ATOM      8  C   UNL     1       6.098  10.317  -2.383  0.00  0.00    +0.078 A 
ATOM      9  S   UNL     1       5.115   8.903  -1.901  0.00  0.00    -0.060 S 
ATOM     10  H   UNL     1       1.783  10.031  -0.318  0.00  0.00    +0.157 HD
BRANCH   7  11
ATOM     11  C   UNL     1       5.694  12.748  -2.193  0.00  0.00    +0.066 A 
ATOM     12  C   UNL     1       4.974  13.852  -1.850  0.00  0.00    +0.029 A 
ATOM     13  C   UNL     1       5.733  14.977  -2.215  0.00  0.00    +0.019 A 
ATOM     14  C   UNL     1       6.884  14.535  -2.764  0.00  0.00    +0.083 A 
ATOM     15  N   UNL     1       6.873  13.170  -2.750  0.00  0.00    -0.359 N 
ATOM     16  H   UNL     1       7.614  12.433  -3.094  0.00  0.00    +0.165 HD
ENDBRANCH   7  11
ENDBRANCH   1   2
BRANCH   1  19
ATOM     17  C   UNL     1      -0.070   5.323   0.030  0.00  0.00    +0.245 C 
ATOM     18  O   UNL     1      -1.131   5.916   0.043  0.00  0.00    -0.270 OA
ATOM     19  N   UNL     1       1.088   6.013   0.022  0.00  0.00    -0.300 N 
ATOM     20  H   UNL     1       2.048   5.476   0.009  0.00  0.00    +0.150 HD
BRANCH  17  26
ATOM     21  C   UNL     1      -2.514   0.972   0.019  0.00  0.00    +0.044 C 
ATOM     22  C   UNL     1      -1.222   1.748   0.017  0.00  0.00    -0.050 A 
ATOM     23  C   UNL     1      -0.013   1.076   0.008  0.00  0.00    +0.003 A 
ATOM     24  C   UNL     1       1.178   1.781   0.000  0.00  0.00    +0.001 A 
ATOM     25  C   UNL     1       1.166   3.160   0.007  0.00  0.00    +0.013 A 
ATOM     26  C   UNL     1      -0.050   3.845   0.023  0.00  0.00    +0.037 A 
ATOM     27  C   UNL     1      -1.248   3.127   0.031  0.00  0.00    +0.016 A 
ENDBRANCH  17  26
ENDBRANCH   1  19
BRANCH   1  28
ATOM     28  C   UNL     1       0.949   7.979   1.469  0.00  0.00    +0.012 C 
ATOM     29  C   UNL     1      -0.345   7.448   2.089  0.00  0.00    +0.009 C 
ATOM     30  C   UNL     1       2.146   7.481   2.283  0.00  0.00    +0.009 C 
ENDBRANCH   1  28
TORSDOF 5
