REMARK  Name = ZINC10751640
REMARK  10 active torsions:
REMARK  status: ('A' for Active; 'I' for Inactive)
REMARK    1  A    between atoms: C_1  and  C_2
REMARK    2  A    between atoms: C_2  and  C_3
REMARK    3  A    between atoms: N_12  and  C_13
REMARK    4  A    between atoms: C_13  and  C_14
REMARK    5  A    between atoms: C_14  and  N_63
REMARK    6  A    between atoms: C_15  and  N_63
REMARK    7  A    between atoms: C_16  and  N_63
REMARK    8  A    between atoms: C_17  and  C_19
REMARK    9  A    between atoms: N_24  and  S_26
REMARK   10  A    between atoms: S_26  and  C_29
REMARK                            x       y       z     vdW  Elec       q    Type
REMARK                         _______ _______ _______ _____ _____    ______ ____
ROOT
ATOM      1  C   UNL     1       1.285   3.403   0.250  0.00  0.00    -0.021 A 
ATOM      2  C   UNL     1       2.477   4.009   0.554  0.00  0.00    +0.006 A 
ATOM      3  C   UNL     1       3.528   3.299   1.115  0.00  0.00    +0.001 A 
ATOM      4  C   UNL     1       3.373   1.949   1.373  0.00  0.00    +0.017 A 
ATOM      5  C   UNL     1       2.184   1.334   1.071  0.00  0.00    +0.041 A 
ATOM      6  C   UNL     1       1.091   2.026   0.500  0.00  0.00    +0.083 A 
ATOM      7  N   UNL     1      -0.011   1.282   0.261  0.00  0.00    -0.224 NA
ATOM      8  C   UNL     1      -0.071   0.000   0.538  0.00  0.00    +0.168 A 
ATOM      9  S   UNL     1       1.550  -0.319   1.220  0.00  0.00    -0.052 S 
ATOM     10  N   UNL     1      -1.124  -0.881   0.350  0.00  0.00    -0.252 N 
ATOM     11  C   UNL     1      -2.281  -0.444  -0.185  0.00  0.00    +0.226 C 
ATOM     12  O   UNL     1      -2.444   0.739  -0.394  0.00  0.00    -0.275 OA
ENDROOT
BRANCH  11  13
ATOM     13  C   UNL     1      -3.373  -1.426  -0.523  0.00  0.00    +0.091 C 
ATOM     14  C   UNL     1      -2.963  -2.242  -1.752  0.00  0.00    +0.015 C 
ATOM     15  C   UNL     1      -4.056  -3.262  -2.077  0.00  0.00    +0.018 C 
ATOM     16  C   UNL     1      -5.359  -2.523  -2.400  0.00  0.00    +0.109 C 
ATOM     17  N   UNL     1      -5.683  -1.626  -1.282  0.00  0.00    -0.175 NA
ATOM     18  C   UNL     1      -4.667  -0.666  -0.829  0.00  0.00    +0.122 C 
BRANCH  17  19
ATOM     19  S   UNL     1      -7.166  -1.696  -0.547  0.00  0.00    +0.067 S 
ATOM     20  O   UNL     1      -7.383  -0.425   0.051  0.00  0.00    -0.152 OA
ATOM     21  O   UNL     1      -8.064  -2.254  -1.496  0.00  0.00    -0.152 OA
BRANCH  19  22
ATOM     22  C   UNL     1      -7.040  -2.858   0.771  0.00  0.00    +0.143 A 
ATOM     23  C   UNL     1      -6.690  -2.648   2.064  0.00  0.00    +0.036 A 
ATOM     24  C   UNL     1      -6.660  -3.723   2.933  0.00  0.00    +0.010 A 
ATOM     25  C   UNL     1      -6.979  -4.955   2.467  0.00  0.00    +0.047 A 
ATOM     26  S   UNL     1      -7.346  -4.617   0.752  0.00  0.00    -0.077 S 
ENDBRANCH  19  22
ENDBRANCH  17  19
ENDBRANCH  11  13
BRANCH   1  28
ATOM     27  C   UNL     1      -0.772   4.696   0.747  0.00  0.00    +0.009 C 
ATOM     28  C   UNL     1       0.171   4.215  -0.358  0.00  0.00    +0.034 C 
ENDBRANCH   1  28
BRANCH  10  29
ATOM     29  C   UNL     1      -0.979  -2.287   0.734  0.00  0.00    +0.097 C 
BRANCH  29  30
ATOM     30  C   UNL     1      -1.286  -2.444   2.224  0.00  0.00    -0.060 C 
BRANCH  30  33
ATOM     31  C   UNL     1      -1.194  -4.010   4.068  0.00  0.00    -0.097 C 
ATOM     32  C   UNL     1      -2.158  -4.686   1.953  0.00  0.00    -0.097 C 
ATOM     33  N   UNL     1      -1.115  -3.863   2.600  0.00  0.00    +0.377 N 
ATOM     34  H   UNL     1      -0.193  -4.184   2.282  0.00  0.00    -0.083 HD
ENDBRANCH  30  33
ENDBRANCH  29  30
ENDBRANCH  10  29
TORSDOF 7
