REMARK  Name = ZINC22800611
REMARK  6 active torsions:
REMARK  status: ('A' for Active; 'I' for Inactive)
REMARK    1  A    between atoms: C_1  and  C_2
REMARK    2  A    between atoms: C_2  and  C_34
REMARK    3  A    between atoms: C_6  and  C_26
REMARK    4  A    between atoms: C_16  and  C_18
REMARK    5  A    between atoms: C_18  and  N_19
REMARK    6  A    between atoms: N_22  and  C_25
REMARK                            x       y       z     vdW  Elec       q    Type
REMARK                         _______ _______ _______ _____ _____    ______ ____
ROOT
ATOM      1  C   UNL     1      -0.019   1.526   0.010  0.00  0.00    +0.011 C 
ATOM      2  C   UNL     1       0.002  -0.004   0.002  0.00  0.00    -0.023 C 
ATOM      3  C   UNL     1       0.753  -0.505  -1.231  0.00  0.00    +0.058 C 
ATOM      4  C   UNL     1       2.179   0.021  -1.215  0.00  0.00    +0.017 C 
ATOM      5  C   UNL     1       2.823   0.204  -0.051  0.00  0.00    +0.038 C 
ATOM      6  C   UNL     1       4.242   0.696   0.110  0.00  0.00    +0.153 C 
ATOM      7  N   UNL     1       4.831   1.230  -1.100  0.00  0.00    -0.256 N 
ATOM      8  C   UNL     1       5.060   0.415  -2.210  0.00  0.00    +0.058 A 
ATOM      9  C   UNL     1       6.342   0.147  -2.659  0.00  0.00    +0.025 A 
ATOM     10  C   UNL     1       6.522  -0.704  -3.736  0.00  0.00    +0.002 A 
ATOM     11  C   UNL     1       5.432  -1.284  -4.360  0.00  0.00    +0.002 A 
ATOM     12  C   UNL     1       4.148  -1.004  -3.924  0.00  0.00    +0.025 A 
ATOM     13  C   UNL     1       3.967  -0.138  -2.860  0.00  0.00    +0.053 A 
ATOM     14  N   UNL     1       2.705   0.269  -2.441  0.00  0.00    -0.316 N 
ATOM     15  C   UNL     1       5.164   2.535  -1.155  0.00  0.00    +0.235 C 
ATOM     16  O   UNL     1       4.969   3.252  -0.196  0.00  0.00    -0.274 OA
ATOM     17  C   UNL     1       2.167  -0.058   1.176  0.00  0.00    +0.163 C 
ATOM     18  O   UNL     1       2.781   0.097   2.213  0.00  0.00    -0.292 OA
ATOM     19  C   UNL     1       0.742  -0.520   1.242  0.00  0.00    +0.086 C 
ATOM     20  C   UNL     1      -1.430  -0.542  -0.008  0.00  0.00    +0.011 C 
ATOM     21  H   UNL     1       2.161   0.766  -3.072  0.00  0.00    +0.152 HD
ENDROOT
BRANCH   6  22
ATOM     22  C   UNL     1       5.095  -0.451   0.587  0.00  0.00    +0.015 A 
ATOM     23  C   UNL     1       5.518  -0.735   1.843  0.00  0.00    +0.013 A 
ATOM     24  C   UNL     1       6.301  -1.855   2.050  0.00  0.00    +0.008 A 
ATOM     25  C   UNL     1       6.623  -2.637   0.990  0.00  0.00    +0.045 A 
ATOM     26  S   UNL     1       5.803  -1.793  -0.353  0.00  0.00    -0.099 S 
ENDBRANCH   6  22
BRANCH  15  27
ATOM     27  C   UNL     1       5.778   3.103  -2.409  0.00  0.00    +0.181 C 
BRANCH  27  28
ATOM     28  N   UNL     1       6.047   4.535  -2.216  0.00  0.00    -0.298 NA
ATOM     29  C   UNL     1       4.795   5.291  -2.073  0.00  0.00    +0.066 C 
ATOM     30  C   UNL     1       5.119   6.764  -1.816  0.00  0.00    -0.064 C 
ATOM     31  N   UNL     1       5.906   7.295  -2.936  0.00  0.00    +0.379 N 
ATOM     32  C   UNL     1       7.164   6.546  -3.052  0.00  0.00    -0.064 C 
ATOM     33  C   UNL     1       6.857   5.071  -3.319  0.00  0.00    +0.066 C 
ATOM     34  C   UNL     1       6.201   8.714  -2.698  0.00  0.00    -0.096 C 
ATOM     35  H   UNL     1       5.379   7.201  -3.792  0.00  0.00    -0.082 HD
ENDBRANCH  27  28
ENDBRANCH  15  27
TORSDOF 3
