REMARK  Name = ZINC14001563
REMARK  7 active torsions:
REMARK  status: ('A' for Active; 'I' for Inactive)
REMARK    1  A    between atoms: C_1  and  C_2
REMARK    2  A    between atoms: C_2  and  C_3
REMARK    3  A    between atoms: C_2  and  C_4
REMARK    4  A    between atoms: C_2  and  N_5
REMARK    5  A    between atoms: C_8  and  C_10
REMARK    6  A    between atoms: C_10  and  N_58
REMARK    7  A    between atoms: C_13  and  C_16
REMARK                            x       y       z     vdW  Elec       q    Type
REMARK                         _______ _______ _______ _____ _____    ______ ____
ROOT
ATOM      1  C   UNL     1      -5.089   2.447  -3.836  0.00  0.00    -0.078 C 
ATOM      2  C   UNL     1      -5.071   2.551  -2.310  0.00  0.00    -0.012 C 
ATOM      3  C   UNL     1      -3.728   3.131  -1.858  0.00  0.00    +0.022 C 
ATOM      4  C   UNL     1      -3.522   4.497  -2.520  0.00  0.00    -0.012 C 
ATOM      5  C   UNL     1      -3.584   4.336  -4.040  0.00  0.00    -0.078 C 
ATOM      6  N   UNL     1      -4.910   3.797  -4.412  0.00  0.00    +0.382 N 
ATOM      7  H   UNL     1      -5.638   4.417  -4.038  0.00  0.00    -0.081 HD
ENDROOT
BRANCH   3   8
ATOM      8  C   UNL     1      -3.727   3.295  -0.337  0.00  0.00    +0.162 C 
ATOM      9  N   UNL     1      -2.446   3.848   0.096  0.00  0.00    -0.326 N 
ATOM     10  C   UNL     1      -1.250   3.136   0.047  0.00  0.00    +0.055 A 
ATOM     11  C   UNL     1      -0.048   3.842   0.036  0.00  0.00    +0.025 A 
ATOM     12  C   UNL     1       1.154   3.166   0.010  0.00  0.00    +0.002 A 
ATOM     13  C   UNL     1       1.176   1.783   0.000  0.00  0.00    +0.002 A 
ATOM     14  C   UNL     1      -0.013   1.076   0.008  0.00  0.00    +0.030 A 
ATOM     15  C   UNL     1      -1.216   1.749   0.017  0.00  0.00    +0.126 A 
ATOM     16  S   UNL     1      -2.733   0.841  -0.008  0.00  0.00    +0.062 S 
ATOM     17  O   UNL     1      -2.708  -0.047   1.101  0.00  0.00    -0.153 OA
ATOM     18  O   UNL     1      -2.925   0.397  -1.344  0.00  0.00    -0.153 OA
ATOM     19  N   UNL     1      -3.914   1.977   0.303  0.00  0.00    -0.170 NA
ATOM     20  H   UNL     1      -2.427   4.757   0.434  0.00  0.00    +0.148 HD
ATOM     21  H   UNL     1      -4.678   1.784   0.870  0.00  0.00    +0.150 HD
ENDBRANCH   3   8
BRANCH   6  22
ATOM     22  C   UNL     1      -5.037   3.739  -5.883  0.00  0.00    -0.042 C 
BRANCH  22  26
ATOM     23  N   UNL     1      -4.582   7.115  -7.228  0.00  0.00    -0.348 N 
ATOM     24  C   UNL     1      -3.309   6.643  -7.350  0.00  0.00    +0.086 A 
ATOM     25  C   UNL     1      -3.283   5.375  -6.891  0.00  0.00    +0.021 A 
ATOM     26  C   UNL     1      -4.588   5.053  -6.469  0.00  0.00    -0.046 A 
ATOM     27  C   UNL     1      -5.363   6.134  -6.692  0.00  0.00    +0.088 A 
BRANCH  23  29
ATOM     28  C   UNL     1      -3.859   9.249  -8.179  0.00  0.00    +0.034 C 
ATOM     29  C   UNL     1      -5.037   8.453  -7.614  0.00  0.00    +0.037 C 
ATOM     30  C   UNL     1      -6.129   8.333  -8.678  0.00  0.00    +0.034 C 
ATOM     31  C   UNL     1      -5.598   9.174  -6.387  0.00  0.00    +0.034 C 
ENDBRANCH  23  29
ENDBRANCH  22  26
ENDBRANCH   6  22
TORSDOF 4
