REMARK  Name = ZINC42828489
REMARK  5 active torsions:
REMARK  status: ('A' for Active; 'I' for Inactive)
REMARK    1  A    between atoms: C_1  and  C_2
REMARK    2  A    between atoms: C_8  and  C_10
REMARK    3  A    between atoms: C_10  and  N_11
REMARK    4  A    between atoms: C_12  and  C_14
REMARK    5  A    between atoms: C_16  and  N_21
REMARK                            x       y       z     vdW  Elec       q    Type
REMARK                         _______ _______ _______ _____ _____    ______ ____
ROOT
ATOM      1  N   UNL     1       2.921  -0.562   2.352  0.00  0.00    -0.311 N 
ATOM      2  C   UNL     1       4.215  -0.237   2.543  0.00  0.00    +0.247 C 
ATOM      3  O   UNL     1       4.765   0.538   1.785  0.00  0.00    -0.270 OA
ATOM      4  H   UNL     1       2.481  -1.180   2.957  0.00  0.00    +0.149 HD
ENDROOT
BRANCH   2   5
ATOM      5  C   UNL     1       4.964  -0.822   3.674  0.00  0.00    +0.074 A 
ATOM      6  C   UNL     1       4.336  -1.716   4.543  0.00  0.00    +0.038 A 
ATOM      7  C   UNL     1       5.045  -2.261   5.600  0.00  0.00    +0.025 A 
ATOM      8  C   UNL     1       6.378  -1.917   5.796  0.00  0.00    +0.025 A 
ATOM      9  C   UNL     1       7.002  -1.032   4.938  0.00  0.00    +0.041 A 
ATOM     10  C   UNL     1       6.306  -0.486   3.874  0.00  0.00    +0.136 A 
ATOM     11  F   UNL     1       6.921   0.374   3.034  0.00  0.00    -0.205 F 
BRANCH   7  12
ATOM     12  N   UNL     1       4.419  -3.156   6.473  0.00  0.00    -0.358 N 
ATOM     13  H   UNL     1       3.489  -3.396   6.338  0.00  0.00    +0.142 HD
ATOM     14  H   UNL     1       4.915  -3.538   7.214  0.00  0.00    +0.142 HD
ENDBRANCH   7  12
ENDBRANCH   2   5
BRANCH   1  15
ATOM     15  C   UNL     1       2.178   0.019   1.231  0.00  0.00    +0.108 C 
BRANCH  15  22
ATOM     16  C   UNL     1      -0.019   1.526   0.010  0.00  0.00    +0.008 C 
ATOM     17  C   UNL     1       0.002  -0.004   0.002  0.00  0.00    -0.010 C 
ATOM     18  C   UNL     1      -1.433  -0.534   0.013  0.00  0.00    +0.003 C 
ATOM     19  C   UNL     1      -2.149  -0.040   1.272  0.00  0.00    +0.000 C 
ATOM     20  C   UNL     1      -1.409  -0.547   2.511  0.00  0.00    +0.000 C 
ATOM     21  C   UNL     1       0.026  -0.018   2.500  0.00  0.00    +0.005 C 
ATOM     22  C   UNL     1       0.742  -0.511   1.242  0.00  0.00    +0.009 C 
ENDBRANCH  15  22
ENDBRANCH   1  15
TORSDOF 4
