REMARK  Name = ZINC12194583
REMARK  9 active torsions:
REMARK  status: ('A' for Active; 'I' for Inactive)
REMARK    1  A    between atoms: C_1  and  C_2
REMARK    2  A    between atoms: C_2  and  C_3
REMARK    3  A    between atoms: C_3  and  C_4
REMARK    4  A    between atoms: C_4  and  C_19
REMARK    5  A    between atoms: N_7  and  C_11
REMARK    6  A    between atoms: C_11  and  C_12
REMARK    7  A    between atoms: C_12  and  C_13
REMARK    8  A    between atoms: C_18  and  N_74
REMARK    9  A    between atoms: C_25  and  C_27
REMARK                            x       y       z     vdW  Elec       q    Type
REMARK                         _______ _______ _______ _____ _____    ______ ____
ROOT
ATOM      1  C   UNL     1       0.442   4.667  -0.689  0.00  0.00    +0.115 C 
ATOM      2  C   UNL     1      -0.331   5.812  -1.313  0.00  0.00    +0.247 C 
ATOM      3  O   UNL     1      -1.198   6.479  -0.792  0.00  0.00    -0.273 OA
ATOM      4  N   UNL     1       0.147   5.933  -2.567  0.00  0.00    -0.224 N 
ATOM      5  C   UNL     1       1.104   5.033  -2.820  0.00  0.00    +0.309 C 
ATOM      6  O   UNL     1       1.686   4.945  -3.884  0.00  0.00    -0.252 OA
ATOM      7  N   UNL     1       1.350   4.235  -1.765  0.00  0.00    -0.285 N 
ATOM      8  H   UNL     1       2.000   3.516  -1.722  0.00  0.00    +0.151 HD
ENDROOT
BRANCH   1   9
ATOM      9  C   UNL     1      -0.504   3.530  -0.295  0.00  0.00    +0.024 C 
ATOM     10  C   UNL     1      -1.361   3.970   0.894  0.00  0.00    +0.025 C 
ATOM     11  C   UNL     1      -2.283   2.819   1.308  0.00  0.00    +0.108 C 
ATOM     12  N   UNL     1      -3.055   2.386   0.135  0.00  0.00    -0.297 N 
ATOM     13  C   UNL     1      -2.333   2.027  -1.093  0.00  0.00    +0.108 C 
ATOM     14  C   UNL     1      -1.411   3.188  -1.480  0.00  0.00    +0.025 C 
ATOM     15  C   UNL     1      -4.400   2.321   0.184  0.00  0.00    +0.250 C 
ATOM     16  O   UNL     1      -5.033   2.047  -0.817  0.00  0.00    -0.270 OA
BRANCH  15  17
ATOM     17  C   UNL     1      -5.104   2.582   1.452  0.00  0.00    +0.085 A 
ATOM     18  C   UNL     1      -4.678   2.285   2.714  0.00  0.00    +0.209 A 
ATOM     19  O   UNL     1      -5.607   2.688   3.595  0.00  0.00    -0.466 OA
ATOM     20  C   UNL     1      -6.651   3.237   2.981  0.00  0.00    +0.116 A 
ATOM     21  C   UNL     1      -6.415   3.208   1.630  0.00  0.00    +0.070 A 
ATOM     22  C   UNL     1      -7.374   3.735   0.654  0.00  0.00    +0.167 C 
ATOM     23  O   UNL     1      -7.092   3.893  -0.515  0.00  0.00    -0.292 OA
ATOM     24  C   UNL     1      -8.749   4.070   1.215  0.00  0.00    +0.080 C 
ATOM     25  C   UNL     1      -8.559   4.766   2.567  0.00  0.00    +0.016 C 
ATOM     26  C   UNL     1      -7.910   3.815   3.577  0.00  0.00    +0.075 C 
ENDBRANCH  15  17
ENDBRANCH   1   9
BRANCH   1  27
ATOM     27  C   UNL     1       1.237   5.148   0.526  0.00  0.00    +0.035 C 
BRANCH  27  29
ATOM     28  C   UNL     1       2.969   6.764   1.320  0.00  0.00    +0.004 C 
ATOM     29  C   UNL     1       2.174   6.282   0.105  0.00  0.00    -0.001 C 
ENDBRANCH  27  29
ENDBRANCH   1  27
BRANCH   4  30
ATOM     30  C   UNL     1      -0.324   6.927  -3.535  0.00  0.00    +0.116 C 
BRANCH  30  31
ATOM     31  C   UNL     1      -1.486   6.343  -4.341  0.00  0.00    +0.004 C 
BRANCH  31  32
ATOM     32  C   UNL     1      -2.045   7.415  -5.280  0.00  0.00    -0.068 C 
ATOM     33  C   UNL     1      -2.701   8.543  -4.456  0.00  0.00    -0.017 C 
ATOM     34  C   UNL     1      -3.947   8.914  -5.302  0.00  0.00    -0.020 C 
ATOM     35  C   UNL     1      -4.367   7.532  -5.863  0.00  0.00    -0.079 C 
ATOM     36  C   UNL     1      -3.225   5.389  -5.902  0.00  0.00    -0.096 C 
ATOM     37  N   UNL     1      -3.090   6.848  -6.148  0.00  0.00    +0.380 N 
ATOM     38  H   UNL     1      -2.834   7.001  -7.130  0.00  0.00    -0.082 HD
ENDBRANCH  31  32
ENDBRANCH  30  31
ENDBRANCH   4  30
TORSDOF 7
