REMARK  Name = ZINC19892538
REMARK  17 active torsions:
REMARK  status: ('A' for Active; 'I' for Inactive)
REMARK    1  A    between atoms: C_1  and  C_2
REMARK    2  A    between atoms: C_2  and  C_3
REMARK    3  A    between atoms: C_3  and  C_5
REMARK    4  A    between atoms: C_3  and  O_6
REMARK    5  A    between atoms: O_6  and  C_7
REMARK    6  A    between atoms: C_7  and  C_9
REMARK    7  A    between atoms: C_10  and  C_42
REMARK    8  A    between atoms: C_14  and  C_16
REMARK    9  A    between atoms: C_21  and  O_22
REMARK   10  A    between atoms: O_22  and  C_23
REMARK   11  A    between atoms: C_23  and  C_24
REMARK   12  A    between atoms: C_23  and  C_25
REMARK   13  A    between atoms: C_29  and  C_32
REMARK   14  A    between atoms: C_35  and  O_40
REMARK   15  A    between atoms: C_36  and  O_38
REMARK   16  A    between atoms: O_38  and  C_39
REMARK   17  A    between atoms: O_40  and  C_41
REMARK                            x       y       z     vdW  Elec       q    Type
REMARK                         _______ _______ _______ _____ _____    ______ ____
ROOT
ATOM      1  C   UNL     1      -2.534   0.294   1.137  0.00  0.00    +0.065 C 
ATOM      2  C   UNL     1      -2.479  -0.984   1.550  0.00  0.00    +0.016 C 
ATOM      3  N   UNL     1      -2.646  -2.007   0.659  0.00  0.00    -0.321 N 
ATOM      4  C   UNL     1      -3.251  -1.788  -0.550  0.00  0.00    +0.016 C 
ATOM      5  C   UNL     1      -3.345  -0.539  -1.053  0.00  0.00    +0.024 C 
ATOM      6  C   UNL     1      -2.772   0.638  -0.304  0.00  0.00    +0.096 C 
ATOM      7  C   UNL     1      -3.977  -0.298  -2.285  0.00  0.00    +0.162 C 
ATOM      8  O   UNL     1      -4.038   0.838  -2.712  0.00  0.00    -0.292 OA
ATOM      9  C   UNL     1      -4.580  -1.421  -3.084  0.00  0.00    +0.088 C 
ATOM     10  C   UNL     1      -5.017  -2.535  -2.128  0.00  0.00    +0.032 C 
ATOM     11  C   UNL     1      -3.803  -2.972  -1.304  0.00  0.00    +0.059 C 
ATOM     12  C   UNL     1      -2.232  -1.291   3.004  0.00  0.00    +0.061 C 
ATOM     13  H   UNL     1      -2.293  -3.018   0.910  0.00  0.00    +0.152 HD
ENDROOT
BRANCH   6  14
ATOM     14  C   UNL     1      -1.465   1.040  -0.939  0.00  0.00    +0.006 A 
ATOM     15  C   UNL     1      -0.444   0.118  -1.061  0.00  0.00    +0.008 A 
ATOM     16  C   UNL     1       0.753   0.485  -1.649  0.00  0.00    +0.001 A 
ATOM     17  C   UNL     1       0.932   1.776  -2.110  0.00  0.00    +0.004 A 
ATOM     18  C   UNL     1      -0.084   2.703  -1.984  0.00  0.00    +0.046 A 
ATOM     19  C   UNL     1      -1.286   2.338  -1.395  0.00  0.00    +0.125 A 
BRANCH  19  20
ATOM     20  O   UNL     1      -2.287   3.248  -1.269  0.00  0.00    -0.489 OA
BRANCH  20  21
ATOM     21  C   UNL     1      -1.995   4.591  -1.660  0.00  0.00    +0.167 C 
ATOM     22  C   UNL     1      -2.208   4.741  -3.168  0.00  0.00    +0.051 C 
ATOM     23  C   UNL     1      -2.924   5.553  -0.916  0.00  0.00    +0.051 C 
ENDBRANCH  20  21
ENDBRANCH  19  20
ENDBRANCH   6  14
BRANCH  10  24
ATOM     24  C   UNL     1      -5.542  -3.708  -2.916  0.00  0.00    -0.040 A 
ATOM     25  C   UNL     1      -4.726  -4.341  -3.835  0.00  0.00    +0.008 A 
ATOM     26  C   UNL     1      -5.203  -5.417  -4.561  0.00  0.00    +0.049 A 
ATOM     27  C   UNL     1      -6.501  -5.862  -4.367  0.00  0.00    +0.161 A 
ATOM     28  C   UNL     1      -7.321  -5.225  -3.442  0.00  0.00    +0.162 A 
ATOM     29  C   UNL     1      -6.836  -4.150  -2.715  0.00  0.00    +0.053 A 
BRANCH  28  30
ATOM     30  O   UNL     1      -8.596  -5.658  -3.249  0.00  0.00    -0.491 OA
ATOM     31  C   UNL     1      -9.381  -4.956  -2.283  0.00  0.00    +0.277 C 
ENDBRANCH  28  30
BRANCH  27  32
ATOM     32  O   UNL     1      -6.972  -6.920  -5.081  0.00  0.00    -0.491 OA
ATOM     33  C   UNL     1      -6.074  -7.526  -6.013  0.00  0.00    +0.277 C 
ENDBRANCH  27  32
ENDBRANCH  10  24
BRANCH   1  34
ATOM     34  C   UNL     1      -2.365   1.335   2.080  0.00  0.00    +0.338 C 
ATOM     35  O   UNL     1      -1.306   1.932   2.144  0.00  0.00    -0.245 OA
BRANCH  34  36
ATOM     36  O   UNL     1      -3.377   1.667   2.908  0.00  0.00    -0.458 OA
BRANCH  36  37
ATOM     37  C   UNL     1      -3.176   2.797   3.759  0.00  0.00    +0.173 C 
ATOM     38  C   UNL     1      -2.469   2.352   5.041  0.00  0.00    +0.052 C 
BRANCH  37  40
ATOM     39  C   UNL     1      -5.191   3.954   2.841  0.00  0.00    +0.007 C 
ATOM     40  C   UNL     1      -4.529   3.418   4.112  0.00  0.00    +0.041 C 
ENDBRANCH  37  40
ENDBRANCH  36  37
ENDBRANCH  34  36
ENDBRANCH   1  34
TORSDOF 10
