REMARK  Name = ZINC39518357
REMARK  10 active torsions:
REMARK  status: ('A' for Active; 'I' for Inactive)
REMARK    1  A    between atoms: C_1  and  C_2
REMARK    2  A    between atoms: C_2  and  C_3
REMARK    3  A    between atoms: C_3  and  C_4
REMARK    4  A    between atoms: C_6  and  C_10
REMARK    5  A    between atoms: C_10  and  N_11
REMARK    6  A    between atoms: N_11  and  C_12
REMARK    7  A    between atoms: C_13  and  C_15
REMARK    8  A    between atoms: C_15  and  C_16
REMARK    9  A    between atoms: N_23  and  C_24
REMARK   10  A    between atoms: C_24  and  C_25
REMARK                            x       y       z     vdW  Elec       q    Type
REMARK                         _______ _______ _______ _____ _____    ______ ____
ROOT
ATOM      1  C   UNL     1       2.019  -9.778   0.796  0.00  0.00    +0.028 C 
ATOM      2  C   UNL     1       1.359 -11.098   1.075  0.00  0.00    +0.200 C 
ATOM      3  O   UNL     1       0.403 -11.124   1.822  0.00  0.00    -0.278 OA
ATOM      4  N   UNL     1       1.782 -12.246   0.534  0.00  0.00    -0.318 N 
ATOM      5  C   UNL     1       2.906 -12.310  -0.397  0.00  0.00    +0.085 C 
ATOM      6  C   UNL     1       3.738 -11.030  -0.297  0.00  0.00    -0.058 C 
ATOM      7  N   UNL     1       2.839  -9.873  -0.418  0.00  0.00    +0.391 N 
ATOM      8  H   UNL     1       1.325 -13.068   0.769  0.00  0.00    +0.149 HD
ATOM      9  H   UNL     1       2.241  -9.991  -1.222  0.00  0.00    -0.080 HD
ENDROOT
BRANCH   1  10
ATOM     10  C   UNL     1       0.945  -8.705   0.600  0.00  0.00    +0.090 C 
BRANCH  10  13
ATOM     11  N   UNL     1      -1.115  -8.412  -0.738  0.00  0.00    -0.302 N 
ATOM     12  C   UNL     1      -1.372  -7.182   0.015  0.00  0.00    +0.132 C 
ATOM     13  C   UNL     1      -0.017  -9.148  -0.472  0.00  0.00    +0.214 C 
ATOM     14  O   UNL     1       0.195 -10.167  -1.095  0.00  0.00    -0.276 OA
BRANCH  11  15
ATOM     15  C   UNL     1      -2.051  -8.843  -1.779  0.00  0.00    +0.140 C 
BRANCH  15  18
ATOM     16  C   UNL     1      -3.102  -7.372  -4.590  0.00  0.00    +0.061 C 
ATOM     17  C   UNL     1      -2.653  -8.566  -4.198  0.00  0.00    +0.028 C 
ATOM     18  C   UNL     1      -1.633  -8.239  -3.122  0.00  0.00    +0.170 C 
ATOM     19  N   UNL     1      -1.669  -6.767  -3.068  0.00  0.00    -0.178 NA
ATOM     20  N   UNL     1      -2.490  -6.381  -3.904  0.00  0.00    -0.159 NA
BRANCH  16  21
ATOM     21  C   UNL     1      -4.144  -7.157  -5.657  0.00  0.00    +0.057 C 
BRANCH  21  23
ATOM     22  C   UNL     1      -6.579  -6.796  -6.087  0.00  0.00    +0.004 C 
ATOM     23  C   UNL     1      -5.520  -7.014  -5.004  0.00  0.00    +0.003 C 
ENDBRANCH  21  23
ENDBRANCH  16  21
ENDBRANCH  15  18
ENDBRANCH  11  15
ENDBRANCH  10  13
ENDBRANCH   1  10
BRANCH   7  24
ATOM     24  C   UNL     1       3.636  -8.648  -0.571  0.00  0.00    -0.041 C 
BRANCH  24  25
ATOM     25  C   UNL     1       4.400  -8.704  -1.869  0.00  0.00    -0.056 A 
ATOM     26  C   UNL     1       5.713  -9.061  -1.875  0.00  0.00    +0.002 A 
ATOM     27  C   UNL     1       6.436  -9.119  -3.065  0.00  0.00    +0.001 A 
ATOM     28  C   UNL     1       5.849  -8.819  -4.256  0.00  0.00    +0.008 A 
ATOM     29  C   UNL     1       4.495  -8.446  -4.290  0.00  0.00    -0.018 A 
ATOM     30  C   UNL     1       3.758  -8.394  -3.080  0.00  0.00    -0.017 A 
ATOM     31  C   UNL     1       2.402  -8.027  -3.114  0.00  0.00    +0.009 A 
ATOM     32  C   UNL     1       1.814  -7.733  -4.306  0.00  0.00    +0.001 A 
ATOM     33  C   UNL     1       2.537  -7.790  -5.496  0.00  0.00    +0.001 A 
ATOM     34  C   UNL     1       3.855  -8.129  -5.500  0.00  0.00    +0.008 A 
ENDBRANCH  24  25
ENDBRANCH   7  24
TORSDOF 8
