REMARK  Name = ZINC55894275
REMARK  6 active torsions:
REMARK  status: ('A' for Active; 'I' for Inactive)
REMARK    1  A    between atoms: C_1  and  C_2
REMARK    2  A    between atoms: C_5  and  N_11
REMARK    3  A    between atoms: C_6  and  N_8
REMARK    4  A    between atoms: C_12  and  C_14
REMARK    5  A    between atoms: C_14  and  N_15
REMARK    6  A    between atoms: N_15  and  C_16
REMARK                            x       y       z     vdW  Elec       q    Type
REMARK                         _______ _______ _______ _____ _____    ______ ____
ROOT
ATOM      1  N   UNL     1       0.038  -3.996  -0.029  0.00  0.00    -0.282 N 
ATOM      2  C   UNL     1      -0.101  -4.612  -1.220  0.00  0.00    +0.234 C 
ATOM      3  O   UNL     1      -0.140  -3.957  -2.240  0.00  0.00    -0.274 OA
ATOM      4  H   UNL     1       0.151  -4.522   0.779  0.00  0.00    +0.155 HD
ENDROOT
BRANCH   1   9
ATOM      5  C   UNL     1      -0.037   1.669   0.263  0.00  0.00    +0.044 C 
ATOM      6  C   UNL     1      -0.018   0.164   0.186  0.00  0.00    -0.048 A 
ATOM      7  C   UNL     1      -0.652  -0.482  -0.860  0.00  0.00    +0.005 A 
ATOM      8  C   UNL     1      -0.635  -1.861  -0.934  0.00  0.00    +0.026 A 
ATOM      9  C   UNL     1       0.020  -2.599   0.043  0.00  0.00    +0.064 A 
ATOM     10  C   UNL     1       0.655  -1.948   1.092  0.00  0.00    +0.148 A 
ATOM     11  C   UNL     1       0.639  -0.568   1.157  0.00  0.00    +0.038 A 
BRANCH  10  12
ATOM     12  N   UNL     1       1.354  -2.731   2.135  0.00  0.00    +0.058 N 
ATOM     13  O   UNL     1       1.825  -2.171   3.098  0.00  0.00    -0.126 OA
ATOM     14  O   UNL     1       1.454  -3.931   2.025  0.00  0.00    -0.126 OA
ENDBRANCH  10  12
ENDBRANCH   1   9
BRANCH   2  15
ATOM     15  C   UNL     1      -0.207  -6.114  -1.284  0.00  0.00    +0.198 C 
BRANCH  15  16
ATOM     16  N   UNL     1      -0.349  -6.534  -2.680  0.00  0.00    -0.332 N 
ATOM     17  H   UNL     1      -0.362  -5.870  -3.388  0.00  0.00    +0.147 HD
BRANCH  16  18
ATOM     18  C   UNL     1      -0.466  -7.893  -2.994  0.00  0.00    +0.073 A 
ATOM     19  C   UNL     1      -0.454  -8.843  -1.982  0.00  0.00    +0.027 A 
ATOM     20  C   UNL     1      -0.568 -10.185  -2.291  0.00  0.00    +0.006 A 
ATOM     21  C   UNL     1      -0.695 -10.585  -3.607  0.00  0.00    +0.049 A 
ATOM     22  C   UNL     1      -0.709  -9.642  -4.626  0.00  0.00    +0.164 A 
ATOM     23  C   UNL     1      -0.602  -8.293  -4.321  0.00  0.00    +0.183 A 
ATOM     24  O   UNL     1      -0.626  -7.351  -5.304  0.00  0.00    -0.483 OA
ATOM     25  C   UNL     1      -0.388  -7.808  -6.639  0.00  0.00    +0.270 C 
ATOM     26  C   UNL     1      -1.235  -9.066  -6.874  0.00  0.00    +0.270 C 
ATOM     27  O   UNL     1      -0.831 -10.056  -5.917  0.00  0.00    -0.485 OA
ENDBRANCH  16  18
ENDBRANCH  15  16
ENDBRANCH   2  15
TORSDOF 5
