REMARK  Name = ZINC09323362
REMARK  13 active torsions:
REMARK  status: ('A' for Active; 'I' for Inactive)
REMARK    1  A    between atoms: C_1  and  C_2
REMARK    2  A    between atoms: C_5  and  S_8
REMARK    3  A    between atoms: S_8  and  C_9
REMARK    4  A    between atoms: C_9  and  C_10
REMARK    5  A    between atoms: C_10  and  C_11
REMARK    6  A    between atoms: N_13  and  C_14
REMARK    7  A    between atoms: C_14  and  C_15
REMARK    8  A    between atoms: C_15  and  C_16
REMARK    9  A    between atoms: C_16  and  N_61
REMARK   10  A    between atoms: C_17  and  N_61
REMARK   11  A    between atoms: C_18  and  N_61
REMARK   12  A    between atoms: C_23  and  C_29
REMARK   13  A    between atoms: C_24  and  C_28
REMARK                            x       y       z     vdW  Elec       q    Type
REMARK                         _______ _______ _______ _____ _____    ______ ____
ROOT
ATOM      1  C   UNL     1      -4.526   3.826   6.713  0.00  0.00    +0.222 C 
ATOM      2  O   UNL     1      -3.349   3.719   6.983  0.00  0.00    -0.275 OA
ATOM      3  N   UNL     1      -4.964   3.523   5.474  0.00  0.00    -0.250 N 
ATOM      4  C   UNL     1      -4.069   3.089   4.510  0.00  0.00    +0.168 A 
ATOM      5  N   UNL     1      -2.772   2.913   4.611  0.00  0.00    -0.224 NA
ATOM      6  C   UNL     1      -2.015   2.481   3.579  0.00  0.00    +0.081 A 
ATOM      7  C   UNL     1      -0.620   2.251   3.554  0.00  0.00    +0.032 A 
ATOM      8  C   UNL     1      -0.004   1.809   2.413  0.00  0.00    -0.045 A 
ATOM      9  C   UNL     1      -0.718   1.572   1.248  0.00  0.00    -0.046 A 
ATOM     10  C   UNL     1      -2.083   1.792   1.234  0.00  0.00    +0.021 A 
ATOM     11  C   UNL     1      -2.710   2.230   2.374  0.00  0.00    +0.041 A 
ATOM     12  S   UNL     1      -4.385   2.629   2.812  0.00  0.00    -0.052 S 
ATOM     13  C   UNL     1      -0.013   1.086   0.008  0.00  0.00    +0.044 C 
ATOM     14  C   UNL     1       1.485   1.574   2.425  0.00  0.00    +0.044 C 
ENDROOT
BRANCH   1  15
ATOM     15  C   UNL     1      -5.500   4.297   7.762  0.00  0.00    +0.107 C 
BRANCH  15  16
ATOM     16  C   UNL     1      -4.751   4.571   9.067  0.00  0.00    +0.083 C 
BRANCH  16  17
ATOM     17  S   UNL     1      -5.923   5.138  10.330  0.00  0.00    -0.125 S 
BRANCH  17  22
ATOM     18  C   UNL     1      -2.486   6.057  15.206  0.00  0.00    +0.044 C 
ATOM     19  C   UNL     1      -3.345   5.828  13.989  0.00  0.00    -0.050 A 
ATOM     20  C   UNL     1      -4.706   6.064  14.050  0.00  0.00    +0.004 A 
ATOM     21  C   UNL     1      -5.495   5.855  12.936  0.00  0.00    +0.015 A 
ATOM     22  C   UNL     1      -4.920   5.407  11.753  0.00  0.00    +0.008 A 
ATOM     23  C   UNL     1      -3.553   5.165  11.697  0.00  0.00    +0.015 A 
ATOM     24  C   UNL     1      -2.769   5.382  12.813  0.00  0.00    +0.004 A 
ENDBRANCH  17  22
ENDBRANCH  16  17
ENDBRANCH  15  16
ENDBRANCH   1  15
BRANCH   3  25
ATOM     25  C   UNL     1      -6.386   3.652   5.148  0.00  0.00    +0.114 C 
BRANCH  25  26
ATOM     26  C   UNL     1      -7.099   2.331   5.446  0.00  0.00    +0.001 C 
BRANCH  26  27
ATOM     27  C   UNL     1      -8.585   2.466   5.105  0.00  0.00    -0.078 C 
BRANCH  27  30
ATOM     28  C   UNL     1     -10.728   1.356   5.303  0.00  0.00    -0.097 C 
ATOM     29  C   UNL     1      -8.801   0.133   4.495  0.00  0.00    -0.097 C 
ATOM     30  N   UNL     1      -9.263   1.190   5.418  0.00  0.00    +0.376 N 
ATOM     31  H   UNL     1      -9.033   0.917   6.380  0.00  0.00    -0.083 HD
ENDBRANCH  27  30
ENDBRANCH  26  27
ENDBRANCH  25  26
ENDBRANCH   3  25
TORSDOF 8
