REMARK  Name = ZINC29767762
REMARK  5 active torsions:
REMARK  status: ('A' for Active; 'I' for Inactive)
REMARK    1  A    between atoms: C_1  and  C_2
REMARK    2  A    between atoms: C_3  and  C_13
REMARK    3  A    between atoms: C_5  and  C_7
REMARK    4  A    between atoms: C_17  and  C_26
REMARK    5  A    between atoms: N_28  and  C_29
REMARK                            x       y       z     vdW  Elec       q    Type
REMARK                         _______ _______ _______ _____ _____    ______ ____
ROOT
ATOM      1  C   UNL     1      -2.950   4.632   1.772  0.00  0.00    +0.259 C 
ATOM      2  O   UNL     1      -4.075   5.085   1.875  0.00  0.00    -0.269 OA
ATOM      3  N   UNL     1      -2.744   3.486   1.093  0.00  0.00    -0.260 N 
ATOM      4  C   UNL     1      -1.382   2.997   0.819  0.00  0.00    +0.168 C 
ATOM      5  C   UNL     1      -1.356   2.481  -0.627  0.00  0.00    +0.276 C 
ATOM      6  O   UNL     1      -2.339   1.452  -0.767  0.00  0.00    -0.476 OA
ATOM      7  C   UNL     1      -3.593   1.708  -0.311  0.00  0.00    +0.143 A 
ATOM      8  C   UNL     1      -3.821   2.717   0.622  0.00  0.00    +0.079 A 
ATOM      9  C   UNL     1      -5.104   2.965   1.081  0.00  0.00    +0.027 A 
ATOM     10  C   UNL     1      -6.162   2.210   0.608  0.00  0.00    +0.002 A 
ATOM     11  C   UNL     1      -5.939   1.210  -0.320  0.00  0.00    +0.004 A 
ATOM     12  C   UNL     1      -4.660   0.957  -0.780  0.00  0.00    +0.047 A 
ENDROOT
BRANCH   1  15
ATOM     13  C   UNL     1      -3.001   7.450   3.082  0.00  0.00    +0.067 C 
ATOM     14  C   UNL     1      -1.770   6.585   2.986  0.00  0.00    +0.058 A 
ATOM     15  C   UNL     1      -1.819   5.333   2.386  0.00  0.00    +0.097 A 
ATOM     16  S   UNL     1      -0.117   4.818   2.564  0.00  0.00    -0.062 S 
ATOM     17  C   UNL     1       0.465   6.236   3.382  0.00  0.00    +0.109 A 
ATOM     18  N   UNL     1      -0.625   6.986   3.467  0.00  0.00    -0.243 NA
BRANCH  17  19
ATOM     19  C   UNL     1       1.831   6.531   3.862  0.00  0.00    +0.007 A 
ATOM     20  C   UNL     1       2.855   5.600   3.680  0.00  0.00    +0.010 A 
ATOM     21  C   UNL     1       4.129   5.884   4.126  0.00  0.00    +0.001 A 
ATOM     22  C   UNL     1       4.391   7.085   4.762  0.00  0.00    +0.000 A 
ATOM     23  C   UNL     1       3.379   8.010   4.950  0.00  0.00    +0.001 A 
ATOM     24  C   UNL     1       2.102   7.741   4.504  0.00  0.00    +0.010 A 
ENDBRANCH  17  19
ENDBRANCH   1  15
BRANCH   5  25
ATOM     25  C   UNL     1       0.008   1.923  -0.941  0.00  0.00    +0.255 C 
ATOM     26  O   UNL     1       0.142   0.738  -1.164  0.00  0.00    -0.272 OA
ATOM     27  N   UNL     1       1.078   2.741  -0.978  0.00  0.00    -0.315 N 
ATOM     28  C   UNL     1       2.404   2.199  -1.288  0.00  0.00    +0.128 C 
ATOM     29  H   UNL     1       0.957   3.815  -0.775  0.00  0.00    +0.148 HD
ENDBRANCH   5  25
TORSDOF 3
