REMARK  Name = ZINC40815072
REMARK  7 active torsions:
REMARK  status: ('A' for Active; 'I' for Inactive)
REMARK    1  A    between atoms: C_1  and  C_2
REMARK    2  A    between atoms: C_6  and  C_7
REMARK    3  A    between atoms: N_9  and  N_10
REMARK    4  A    between atoms: C_11  and  C_13
REMARK    5  A    between atoms: N_24  and  N_25
REMARK    6  A    between atoms: N_25  and  S_26
REMARK    7  A    between atoms: S_26  and  C_29
REMARK                            x       y       z     vdW  Elec       q    Type
REMARK                         _______ _______ _______ _____ _____    ______ ____
ROOT
ATOM      1  C   UNL     1      -0.018   1.503   0.010  0.00  0.00    +0.048 C 
ATOM      2  C   UNL     1       0.002  -0.004   0.002  0.00  0.00    +0.009 A 
ATOM      3  C   UNL     1       0.008  -0.838  -1.122  0.00  0.00    +0.042 A 
ATOM      4  C   UNL     1       0.026  -2.136  -0.673  0.00  0.00    +0.115 A 
ATOM      5  O   UNL     1       0.034  -2.112   0.658  0.00  0.00    -0.454 OA
ATOM      6  C   UNL     1       0.024  -0.830   1.091  0.00  0.00    +0.194 A 
ATOM      7  C   UNL     1       0.033  -3.325  -1.601  0.00  0.00    +0.075 C 
ATOM      8  C   UNL     1      -0.492  -2.901  -2.975  0.00  0.00    +0.014 C 
ATOM      9  C   UNL     1       0.279  -1.684  -3.496  0.00  0.00    +0.058 C 
ATOM     10  C   UNL     1       0.001  -0.511  -2.567  0.00  0.00    +0.071 C 
ATOM     11  N   UNL     1      -0.226   0.687  -3.008  0.00  0.00    -0.170 NA
ENDROOT
BRANCH   6  12
ATOM     12  C   UNL     1       0.032  -0.400   2.494  0.00  0.00    +0.296 C 
ATOM     13  O   UNL     1       0.019   0.786   2.766  0.00  0.00    -0.265 OA
ATOM     14  N   UNL     1       0.055  -1.317   3.480  0.00  0.00    -0.228 N 
ATOM     15  H   UNL     1       0.065  -2.263   3.263  0.00  0.00    +0.173 HD
BRANCH  14  16
ATOM     16  N   UNL     1       0.063  -0.906   4.820  0.00  0.00    -0.230 N 
ATOM     17  C   UNL     1       0.085  -1.824   5.806  0.00  0.00    +0.260 C 
ATOM     18  O   UNL     1       0.098  -3.009   5.534  0.00  0.00    -0.269 OA
ATOM     19  H   UNL     1       0.052   0.039   5.037  0.00  0.00    +0.173 HD
BRANCH  17  20
ATOM     20  C   UNL     1       0.093  -1.390   7.219  0.00  0.00    +0.038 A 
ATOM     21  C   UNL     1       0.072  -0.030   7.535  0.00  0.00    +0.014 A 
ATOM     22  C   UNL     1       0.080   0.368   8.855  0.00  0.00    +0.021 A 
ATOM     23  C   UNL     1       0.109  -0.577   9.867  0.00  0.00    +0.041 A 
ATOM     24  C   UNL     1       0.130  -1.928   9.560  0.00  0.00    +0.021 A 
ATOM     25  C   UNL     1       0.116  -2.339   8.243  0.00  0.00    +0.014 A 
ATOM     26 CL   UNL     1       0.119  -0.068  11.526  0.00  0.00    -0.084 Cl
ENDBRANCH  17  20
ENDBRANCH  14  16
ENDBRANCH   6  12
BRANCH  11  27
ATOM     27  N   UNL     1      -0.221   0.939  -4.386  0.00  0.00    -0.136 N 
ATOM     28  H   UNL     1      -0.048   0.217  -5.010  0.00  0.00    +0.197 HD
BRANCH  27  29
ATOM     29  S   UNL     1      -0.511   2.469  -4.949  0.00  0.00    +0.086 S 
ATOM     30  O   UNL     1      -0.297   2.432  -6.353  0.00  0.00    -0.149 OA
ATOM     31  O   UNL     1      -1.744   2.885  -4.377  0.00  0.00    -0.149 OA
BRANCH  29  32
ATOM     32  C   UNL     1       0.736   3.517  -4.277  0.00  0.00    +0.110 A 
ATOM     33  C   UNL     1       0.532   4.141  -3.060  0.00  0.00    +0.029 A 
ATOM     34  C   UNL     1       1.510   4.963  -2.533  0.00  0.00    +0.002 A 
ATOM     35  C   UNL     1       2.692   5.161  -3.221  0.00  0.00    +0.000 A 
ATOM     36  C   UNL     1       2.896   4.535  -4.437  0.00  0.00    +0.002 A 
ATOM     37  C   UNL     1       1.920   3.710  -4.963  0.00  0.00    +0.029 A 
ENDBRANCH  29  32
ENDBRANCH  27  29
ENDBRANCH  11  27
TORSDOF 6
