REMARK  Name = ZINC65185603
REMARK  6 active torsions:
REMARK  status: ('A' for Active; 'I' for Inactive)
REMARK    1  A    between atoms: C_4  and  C_7
REMARK    2  A    between atoms: C_9  and  C_12
REMARK    3  A    between atoms: C_16  and  S_18
REMARK    4  A    between atoms: S_18  and  C_19
REMARK    5  A    between atoms: C_19  and  C_20
REMARK    6  A    between atoms: N_22  and  C_23
REMARK                            x       y       z     vdW  Elec       q    Type
REMARK                         _______ _______ _______ _____ _____    ______ ____
ROOT
ATOM      1  C   UNL     1       5.693  -3.695  -0.026  0.00  0.00    +0.043 A 
ATOM      2  C   UNL     1       4.854  -4.818  -0.033  0.00  0.00    +0.033 A 
ATOM      3  C   UNL     1       5.417  -6.076  -0.058  0.00  0.00    +0.113 A 
ATOM      4  N   UNL     1       6.727  -6.235  -0.074  0.00  0.00    -0.249 NA
ATOM      5  C   UNL     1       7.558  -5.204  -0.069  0.00  0.00    +0.098 A 
ATOM      6  C   UNL     1       7.073  -3.901  -0.050  0.00  0.00    +0.048 A 
ENDROOT
BRANCH   1   9
ATOM      7  C   UNL     1       3.703  -0.687   0.041  0.00  0.00    +0.202 A 
ATOM      8  N   UNL     1       3.854  -2.021   0.022  0.00  0.00    -0.187 NA
ATOM      9  C   UNL     1       5.129  -2.327  -0.001  0.00  0.00    +0.259 A 
ATOM     10  O   UNL     1       5.836  -1.183   0.003  0.00  0.00    -0.332 OA
ATOM     11  N   UNL     1       4.888  -0.127   0.025  0.00  0.00    -0.056 NA
BRANCH   7  15
ATOM     12  C   UNL     1      -0.012   1.382   0.123  0.00  0.00    +0.000 A 
ATOM     13  C   UNL     1       1.174   2.094   0.109  0.00  0.00    +0.001 A 
ATOM     14  C   UNL     1       2.382   1.428   0.082  0.00  0.00    +0.012 A 
ATOM     15  C   UNL     1       2.406   0.035   0.070  0.00  0.00    +0.022 A 
ATOM     16  C   UNL     1       1.209  -0.678   0.085  0.00  0.00    +0.012 A 
ATOM     17  C   UNL     1       0.007  -0.001   0.111  0.00  0.00    +0.001 A 
ENDBRANCH   7  15
ENDBRANCH   1   9
BRANCH   5  18
ATOM     18  S   UNL     1       9.297  -5.486  -0.092  0.00  0.00    -0.097 S 
BRANCH  18  19
ATOM     19  C   UNL     1       9.448  -7.294  -0.119  0.00  0.00    +0.171 C 
BRANCH  19  20
ATOM     20  C   UNL     1      10.906  -7.676  -0.140  0.00  0.00    +0.227 C 
ATOM     21  O   UNL     1      11.759  -6.813  -0.137  0.00  0.00    -0.275 OA
ATOM     22  N   UNL     1      11.262  -8.975  -0.162  0.00  0.00    -0.284 N 
ATOM     23  H   UNL     1      10.583  -9.665  -0.099  0.00  0.00    +0.155 HD
BRANCH  22  24
ATOM     24  C   UNL     1      12.612  -9.330  -0.277  0.00  0.00    +0.052 A 
ATOM     25  C   UNL     1      13.590  -8.546   0.320  0.00  0.00    +0.027 A 
ATOM     26  C   UNL     1      14.921  -8.897   0.206  0.00  0.00    +0.040 A 
ATOM     27  C   UNL     1      15.281 -10.031  -0.503  0.00  0.00    +0.125 A 
ATOM     28  C   UNL     1      14.308 -10.815  -1.099  0.00  0.00    +0.060 A 
ATOM     29  C   UNL     1      12.974 -10.471  -0.983  0.00  0.00    +0.065 A 
ATOM     30 CL   UNL     1      11.754 -11.458  -1.724  0.00  0.00    -0.082 Cl
ATOM     31  F   UNL     1      16.583 -10.372  -0.613  0.00  0.00    -0.205 F 
ENDBRANCH  22  24
ENDBRANCH  19  20
ENDBRANCH  18  19
ENDBRANCH   5  18
TORSDOF 6
