REMARK  Name = ZINC14729837
REMARK  11 active torsions:
REMARK  status: ('A' for Active; 'I' for Inactive)
REMARK    1  A    between atoms: C_1  and  C_2
REMARK    2  A    between atoms: C_5  and  N_9
REMARK    3  A    between atoms: N_9  and  C_10
REMARK    4  A    between atoms: C_10  and  N_12
REMARK    5  A    between atoms: N_14  and  C_15
REMARK    6  A    between atoms: C_15  and  C_16
REMARK    7  A    between atoms: C_16  and  C_17
REMARK    8  A    between atoms: C_24  and  O_27
REMARK    9  A    between atoms: O_27  and  C_28
REMARK   10  A    between atoms: C_32  and  C_37
REMARK   11  A    between atoms: C_34  and  C_36
REMARK                            x       y       z     vdW  Elec       q    Type
REMARK                         _______ _______ _______ _____ _____    ______ ____
ROOT
ATOM      1  N   UNL     1       0.431  -5.622   1.111  0.00  0.00    -0.159 NA
ATOM      2  C   UNL     1       0.486  -6.507   2.091  0.00  0.00    +0.195 C 
ATOM      3  N   UNL     1       0.400  -6.095   3.390  0.00  0.00    -0.357 N 
ATOM      4  N   UNL     1       0.630  -7.838   1.804  0.00  0.00    -0.297 N 
ATOM      5  C   UNL     1       0.830  -8.247   0.492  0.00  0.00    +0.231 A 
ATOM      6  N   UNL     1       0.987  -7.333  -0.453  0.00  0.00    -0.217 NA
ATOM      7  C   UNL     1       1.179  -7.689  -1.712  0.00  0.00    +0.044 A 
ATOM      8  C   UNL     1       1.215  -9.037  -2.036  0.00  0.00    +0.046 A 
ATOM      9  C   UNL     1       1.046  -9.966  -1.022  0.00  0.00    +0.044 A 
ATOM     10  N   UNL     1       0.863  -9.542   0.218  0.00  0.00    -0.217 NA
ATOM     11  C   UNL     1       1.077 -11.442  -1.327  0.00  0.00    +0.066 C 
ATOM     12  C   UNL     1       1.357  -6.643  -2.782  0.00  0.00    +0.066 C 
ATOM     13  H   UNL     1       0.223  -5.162   3.592  0.00  0.00    +0.162 HD
ATOM     14  H   UNL     1       0.593  -8.495   2.517  0.00  0.00    +0.171 HD
ENDROOT
BRANCH   1  15
ATOM     15  C   UNL     1       0.236  -4.325   1.390  0.00  0.00    +0.161 C 
ATOM     16  S   UNL     1       1.419  -3.451   2.268  0.00  0.00    -0.016 S 
BRANCH  15  17
ATOM     17  N   UNL     1      -0.889  -3.708   0.979  0.00  0.00    -0.295 N 
ATOM     18  H   UNL     1      -1.593  -4.220   0.550  0.00  0.00    +0.154 HD
BRANCH  17  23
ATOM     19  C   UNL     1      -1.508   1.877   1.754  0.00  0.00    +0.045 C 
ATOM     20  C   UNL     1      -1.344   0.394   1.548  0.00  0.00    -0.032 A 
ATOM     21  C   UNL     1      -0.129  -0.114   1.126  0.00  0.00    +0.006 A 
ATOM     22  C   UNL     1       0.025  -1.473   0.937  0.00  0.00    +0.023 A 
ATOM     23  C   UNL     1      -1.042  -2.332   1.171  0.00  0.00    +0.034 A 
ATOM     24  C   UNL     1      -2.262  -1.819   1.594  0.00  0.00    +0.043 A 
ATOM     25  C   UNL     1      -2.408  -0.459   1.788  0.00  0.00    +0.046 A 
ATOM     26 CL   UNL     1      -3.929   0.183   2.324  0.00  0.00    -0.083 Cl
ENDBRANCH  17  23
ENDBRANCH  15  17
ENDBRANCH   1  15
BRANCH   3  27
ATOM     27  C   UNL     1       0.575  -7.059   4.478  0.00  0.00    +0.120 C 
BRANCH  27  28
ATOM     28  C   UNL     1       0.315  -6.369   5.818  0.00  0.00    +0.058 C 
BRANCH  28  29
ATOM     29  C   UNL     1       0.612  -7.327   6.943  0.00  0.00    -0.021 A 
ATOM     30  C   UNL     1      -0.282  -8.069   7.617  0.00  0.00    +0.087 A 
ATOM     31  N   UNL     1       0.356  -8.819   8.567  0.00  0.00    -0.360 N 
ATOM     32  H   UNL     1      -0.081  -9.433   9.177  0.00  0.00    +0.165 HD
ATOM     33  C   UNL     1       1.712  -8.571   8.527  0.00  0.00    +0.047 A 
ATOM     34  C   UNL     1       1.931  -7.630   7.504  0.00  0.00    +0.006 A 
ATOM     35  C   UNL     1       3.226  -7.189   7.227  0.00  0.00    +0.056 A 
ATOM     36  C   UNL     1       4.287  -7.684   7.960  0.00  0.00    +0.121 A 
ATOM     37  C   UNL     1       4.067  -8.617   8.970  0.00  0.00    +0.047 A 
ATOM     38  C   UNL     1       2.793  -9.054   9.256  0.00  0.00    +0.030 A 
BRANCH  36  39
ATOM     39  O   UNL     1       5.551  -7.258   7.695  0.00  0.00    -0.495 OA
ATOM     40  C   UNL     1       6.601  -7.809   8.491  0.00  0.00    +0.277 C 
ENDBRANCH  36  39
ENDBRANCH  28  29
ENDBRANCH  27  28
ENDBRANCH   3  27
TORSDOF 7
