REMARK  Name = ZINC64789115
REMARK  8 active torsions:
REMARK  status: ('A' for Active; 'I' for Inactive)
REMARK    1  A    between atoms: C_1  and  C_2
REMARK    2  A    between atoms: C_2  and  N_3
REMARK    3  A    between atoms: N_3  and  C_4
REMARK    4  A    between atoms: N_3  and  C_6
REMARK    5  A    between atoms: C_4  and  C_5
REMARK    6  A    between atoms: C_9  and  C_12
REMARK    7  A    between atoms: C_18  and  C_20
REMARK    8  A    between atoms: N_26  and  C_29
REMARK                            x       y       z     vdW  Elec       q    Type
REMARK                         _______ _______ _______ _____ _____    ______ ____
ROOT
ATOM      1  C   UNL     1      -1.100  -4.371  -1.923  0.00  0.00    +0.132 C 
ATOM      2  C   UNL     1      -1.941  -5.528  -1.353  0.00  0.00    +0.082 C 
ATOM      3  C   UNL     1      -2.430  -6.271  -2.575  0.00  0.00    +0.041 C 
ATOM      4  N   UNL     1      -1.959  -5.659  -3.671  0.00  0.00    -0.264 N 
ATOM      5  N   UNL     1      -1.173  -4.543  -3.380  0.00  0.00    -0.215 N 
ATOM      6  C   UNL     1      -0.575  -3.748  -4.290  0.00  0.00    +0.229 C 
ATOM      7  O   UNL     1       0.087  -2.800  -3.925  0.00  0.00    -0.274 OA
ATOM      8  C   UNL     1      -0.731  -4.037  -5.761  0.00  0.00    +0.111 C 
ATOM      9  C   UNL     1      -3.232  -7.398  -2.565  0.00  0.00    +0.118 C 
ATOM     10  C   UNL     1      -3.704  -7.994  -1.302  0.00  0.00    +0.258 C 
ATOM     11  N   UNL     1      -4.483  -9.093  -1.368  0.00  0.00    -0.235 N 
ATOM     12  C   UNL     1      -4.826  -9.639  -2.543  0.00  0.00    +0.320 C 
ATOM     13  O   UNL     1      -5.531 -10.629  -2.534  0.00  0.00    -0.251 OA
ATOM     14  N   UNL     1      -4.433  -9.151  -3.728  0.00  0.00    -0.190 N 
ATOM     15  C   UNL     1      -3.656  -8.052  -3.815  0.00  0.00    +0.265 C 
ATOM     16  O   UNL     1      -3.310  -7.615  -4.897  0.00  0.00    -0.269 OA
ATOM     17  O   UNL     1      -3.399  -7.508  -0.229  0.00  0.00    -0.270 OA
ATOM     18  H   UNL     1      -4.803  -9.498  -0.547  0.00  0.00    +0.159 HD
ATOM     19  H   UNL     1      -2.144  -5.961  -4.574  0.00  0.00    +0.170 HD
ENDROOT
BRANCH  14  20
ATOM     20  C   UNL     1      -4.845  -9.793  -4.904  0.00  0.00    +0.047 A 
ATOM     21  C   UNL     1      -4.070 -10.808  -5.450  0.00  0.00    +0.024 A 
ATOM     22  C   UNL     1      -4.477 -11.440  -6.609  0.00  0.00    +0.003 A 
ATOM     23  C   UNL     1      -5.656 -11.062  -7.226  0.00  0.00    +0.020 A 
ATOM     24  C   UNL     1      -6.430 -10.051  -6.685  0.00  0.00    +0.043 A 
ATOM     25  C   UNL     1      -6.030  -9.420  -5.522  0.00  0.00    +0.044 A 
ATOM     26 CL   UNL     1      -7.909  -9.580  -7.464  0.00  0.00    -0.083 Cl
ENDBRANCH  14  20
BRANCH   1  30
ATOM     27  C   UNL     1      -2.768  -0.608  -0.781  0.00  0.00    +0.013 A 
ATOM     28  C   UNL     1      -1.662  -1.104  -0.116  0.00  0.00    +0.022 A 
ATOM     29  C   UNL     1      -1.123  -2.322  -0.485  0.00  0.00    +0.007 A 
ATOM     30  C   UNL     1      -1.689  -3.044  -1.519  0.00  0.00    -0.025 A 
ATOM     31  C   UNL     1      -2.795  -2.548  -2.184  0.00  0.00    +0.007 A 
ATOM     32  C   UNL     1      -3.337  -1.332  -1.812  0.00  0.00    +0.022 A 
BRANCH  27  33
ATOM     33  N   UNL     1      -3.314   0.624  -0.408  0.00  0.00    -0.394 NA
ATOM     34  H   UNL     1      -4.112   0.829  -0.990  0.00  0.00    +0.126 HD
BRANCH  33  36
ATOM     35  C   UNL     1      -4.445   1.869   1.372  0.00  0.00    +0.022 C 
ATOM     36  C   UNL     1      -3.736   0.566   0.998  0.00  0.00    +0.081 C 
ENDBRANCH  33  36
BRANCH  33  37
ATOM     37  C   UNL     1      -2.303   1.677  -0.573  0.00  0.00    +0.081 C 
ATOM     38  C   UNL     1      -1.955   1.822  -2.056  0.00  0.00    +0.022 C 
ENDBRANCH  33  37
ENDBRANCH  27  33
ENDBRANCH   1  30
TORSDOF 5
