REMARK  Name = ZINC34833378
REMARK  8 active torsions:
REMARK  status: ('A' for Active; 'I' for Inactive)
REMARK    1  A    between atoms: C_1  and  C_2
REMARK    2  A    between atoms: C_2  and  C_3
REMARK    3  A    between atoms: C_2  and  C_4
REMARK    4  A    between atoms: C_2  and  C_5
REMARK    5  A    between atoms: C_9  and  C_23
REMARK    6  A    between atoms: C_11  and  C_14
REMARK    7  A    between atoms: N_16  and  C_17
REMARK    8  A    between atoms: C_17  and  C_18
REMARK                            x       y       z     vdW  Elec       q    Type
REMARK                         _______ _______ _______ _____ _____    ______ ____
ROOT
ATOM      1  C   UNL     1       0.707  -0.490  -1.238  0.00  0.00    +0.071 A 
ATOM      2  C   UNL     1       2.077  -0.468  -1.444  0.00  0.00    +0.073 A 
ATOM      3  C   UNL     1       2.322  -1.002  -2.706  0.00  0.00    +0.157 A 
ATOM      4  N   UNL     1       3.448  -1.212  -3.393  0.00  0.00    -0.228 NA
ATOM      5  C   UNL     1       3.421  -1.745  -4.600  0.00  0.00    +0.078 A 
ATOM      6  C   UNL     1       2.190  -2.106  -5.190  0.00  0.00    +0.061 A 
ATOM      7  C   UNL     1       1.033  -1.896  -4.497  0.00  0.00    +0.131 A 
ATOM      8  N   UNL     1       1.102  -1.337  -3.239  0.00  0.00    -0.209 N 
ATOM      9  N   UNL     1       0.122  -1.008  -2.295  0.00  0.00    -0.169 NA
ENDROOT
BRANCH   5  10
ATOM     10  C   UNL     1       4.687  -1.965  -5.338  0.00  0.00    +0.036 A 
ATOM     11  C   UNL     1       4.664  -2.523  -6.616  0.00  0.00    +0.013 A 
ATOM     12  C   UNL     1       5.846  -2.726  -7.299  0.00  0.00    +0.001 A 
ATOM     13  C   UNL     1       7.053  -2.378  -6.718  0.00  0.00    +0.003 A 
ATOM     14  C   UNL     1       7.085  -1.825  -5.452  0.00  0.00    +0.039 A 
ATOM     15  C   UNL     1       5.907  -1.610  -4.759  0.00  0.00    +0.133 A 
ATOM     16  F   UNL     1       5.938  -1.064  -3.524  0.00  0.00    -0.205 F 
ENDBRANCH   5  10
BRANCH   1  18
ATOM     17  C   UNL     1      -0.019   1.526   0.010  0.00  0.00    +0.017 C 
ATOM     18  C   UNL     1       0.002  -0.004   0.002  0.00  0.00    +0.006 C 
ATOM     19  C   UNL     1       0.742  -0.511   1.242  0.00  0.00    +0.017 C 
ATOM     20  C   UNL     1      -1.433  -0.534   0.013  0.00  0.00    +0.017 C 
ENDBRANCH   1  18
BRANCH   7  21
ATOM     21  C   UNL     1      -0.270  -2.261  -5.084  0.00  0.00    +0.263 C 
ATOM     22  O   UNL     1      -0.320  -2.754  -6.194  0.00  0.00    -0.269 OA
ATOM     23  N   UNL     1      -1.406  -2.049  -4.390  0.00  0.00    -0.303 N 
ATOM     24  H   UNL     1      -1.366  -1.656  -3.504  0.00  0.00    +0.150 HD
BRANCH  23  25
ATOM     25  C   UNL     1      -2.700  -2.412  -4.973  0.00  0.00    +0.179 C 
BRANCH  25  26
ATOM     26  C   UNL     1      -3.801  -2.075  -4.001  0.00  0.00    +0.122 A 
ATOM     27  C   UNL     1      -4.462  -0.905  -3.935  0.00  0.00    +0.046 A 
ATOM     28  C   UNL     1      -5.403  -1.024  -2.887  0.00  0.00    +0.041 A 
ATOM     29  C   UNL     1      -5.261  -2.260  -2.375  0.00  0.00    +0.195 A 
ATOM     30  O   UNL     1      -4.294  -2.894  -3.058  0.00  0.00    -0.466 OA
ENDBRANCH  25  26
ENDBRANCH  23  25
ENDBRANCH   7  21
TORSDOF 5
