REMARK  Name = ZINC19528013
REMARK  7 active torsions:
REMARK  status: ('A' for Active; 'I' for Inactive)
REMARK    1  A    between atoms: C_1  and  C_2
REMARK    2  A    between atoms: C_2  and  N_3
REMARK    3  A    between atoms: N_6  and  C_9
REMARK    4  A    between atoms: C_9  and  C_11
REMARK    5  A    between atoms: C_9  and  C_18
REMARK    6  A    between atoms: N_22  and  C_23
REMARK    7  A    between atoms: C_23  and  C_24
REMARK                            x       y       z     vdW  Elec       q    Type
REMARK                         _______ _______ _______ _____ _____    ______ ____
ROOT
ATOM      1  C   UNL     1       1.530  -2.584   4.772  0.00  0.00    +0.157 C 
ENDROOT
BRANCH   1   5
ATOM      2  N   UNL     1       0.713  -0.491   1.192  0.00  0.00    +0.381 N 
ATOM      3  C   UNL     1      -0.039  -0.117   2.398  0.00  0.00    -0.063 C 
ATOM      4  C   UNL     1       0.710  -0.608   3.639  0.00  0.00    +0.067 C 
ATOM      5  N   UNL     1       0.864  -2.067   3.569  0.00  0.00    -0.293 NA
ATOM      6  C   UNL     1       1.594  -2.458   2.354  0.00  0.00    +0.067 C 
ATOM      7  C   UNL     1       0.837  -1.953   1.124  0.00  0.00    -0.063 C 
ATOM      8  H   UNL     1       1.632  -0.076   1.228  0.00  0.00    -0.082 HD
BRANCH   2  10
ATOM      9  C   UNL     1      -0.019   1.526   0.010  0.00  0.00    -0.017 C 
ATOM     10  C   UNL     1       0.002  -0.004   0.002  0.00  0.00    -0.082 C 
ENDBRANCH   2  10
ENDBRANCH   1   5
BRANCH   1  11
ATOM     11  C   UNL     1       1.671  -4.081   4.665  0.00  0.00    -0.023 A 
ATOM     12  C   UNL     1       0.642  -4.835   4.132  0.00  0.00    +0.008 A 
ATOM     13  C   UNL     1       0.769  -6.207   4.032  0.00  0.00    +0.038 A 
ATOM     14  C   UNL     1       1.928  -6.827   4.468  0.00  0.00    +0.123 A 
ATOM     15  C   UNL     1       2.958  -6.072   5.002  0.00  0.00    +0.038 A 
ATOM     16  C   UNL     1       2.830  -4.699   5.095  0.00  0.00    +0.008 A 
ATOM     17  F   UNL     1       2.054  -8.169   4.372  0.00  0.00    -0.205 F 
ENDBRANCH   1  11
BRANCH   1  18
ATOM     18  C   UNL     1       0.708  -2.243   5.988  0.00  0.00    +0.173 A 
ATOM     19  N   UNL     1      -0.590  -2.374   6.117  0.00  0.00    -0.111 NA
ATOM     20  N   UNL     1      -0.914  -1.977   7.299  0.00  0.00    -0.023 NA
ATOM     21  N   UNL     1       0.143  -1.595   7.927  0.00  0.00    -0.044 NA
ATOM     22  N   UNL     1       1.164  -1.748   7.154  0.00  0.00    -0.223 N 
BRANCH  22  23
ATOM     23  C   UNL     1       2.558  -1.439   7.482  0.00  0.00    +0.189 C 
BRANCH  23  24
ATOM     24  C   UNL     1       2.859  -0.012   7.104  0.00  0.00    +0.011 A 
ATOM     25  C   UNL     1       2.738   1.113   7.851  0.00  0.00    +0.013 A 
ATOM     26  C   UNL     1       3.077   2.330   7.289  0.00  0.00    +0.008 A 
ATOM     27  C   UNL     1       3.520   2.362   6.009  0.00  0.00    +0.045 A 
ATOM     28  S   UNL     1       3.474   0.636   5.558  0.00  0.00    -0.100 S 
ENDBRANCH  23  24
ENDBRANCH  22  23
ENDBRANCH   1  18
TORSDOF 6
