REMARK  Name = ZINC13459250
REMARK  6 active torsions:
REMARK  status: ('A' for Active; 'I' for Inactive)
REMARK    1  A    between atoms: C_1  and  C_2
REMARK    2  A    between atoms: C_3  and  C_16
REMARK    3  A    between atoms: N_5  and  C_7
REMARK    4  A    between atoms: N_17  and  N_18
REMARK    5  A    between atoms: N_18  and  C_19
REMARK    6  A    between atoms: C_24  and  C_25
REMARK                            x       y       z     vdW  Elec       q    Type
REMARK                         _______ _______ _______ _____ _____    ______ ____
ROOT
ATOM      1  C   UNL     1       5.235  -0.207  -0.104  0.00  0.00    +0.068 C 
ATOM      2  C   UNL     1       4.893   1.261  -0.106  0.00  0.00    +0.070 A 
ATOM      3  C   UNL     1       3.592   1.808  -0.085  0.00  0.00    +0.054 A 
ATOM      4  C   UNL     1       3.726   3.181  -0.088  0.00  0.00    +0.136 A 
ATOM      5  N   UNL     1       5.046   3.457  -0.115  0.00  0.00    -0.248 N 
ATOM      6  N   UNL     1       5.749   2.247  -0.130  0.00  0.00    -0.174 NA
ATOM      7 CL   UNL     1       2.434   4.340  -0.062  0.00  0.00    -0.062 Cl
ENDROOT
BRANCH   5   8
ATOM      8  C   UNL     1       5.642   4.795  -0.129  0.00  0.00    +0.131 C 
ATOM      9  C   UNL     1       6.539   4.976   1.107  0.00  0.00    +0.051 C 
ATOM     10  C   UNL     1       7.415   6.242   0.943  0.00  0.00    +0.168 C 
ATOM     11  S   UNL     1       7.587   6.380  -0.883  0.00  0.00    -0.029 S 
ATOM     12  O   UNL     1       6.983   7.591  -1.314  0.00  0.00    -0.174 OA
ATOM     13  O   UNL     1       8.934   6.102  -1.242  0.00  0.00    -0.174 OA
ATOM     14  C   UNL     1       6.526   4.964  -1.397  0.00  0.00    +0.192 C 
ENDBRANCH   5   8
BRANCH   3  15
ATOM     15  C   UNL     1       2.325   1.052  -0.059  0.00  0.00    +0.143 C 
ATOM     16  N   UNL     1       1.192   1.685  -0.036  0.00  0.00    -0.190 NA
BRANCH  16  17
ATOM     17  N   UNL     1      -0.010   0.967  -0.011  0.00  0.00    -0.237 N 
ATOM     18  H   UNL     1       0.003  -0.003  -0.011  0.00  0.00    +0.174 HD
BRANCH  17  19
ATOM     19  C   UNL     1      -1.221   1.643   0.007  0.00  0.00    +0.062 A 
ATOM     20  C   UNL     1      -1.246   3.030   0.114  0.00  0.00    +0.025 A 
ATOM     21  C   UNL     1      -2.451   3.699   0.133  0.00  0.00    +0.002 A 
ATOM     22  C   UNL     1      -3.645   3.000   0.045  0.00  0.00    +0.001 A 
ATOM     23  C   UNL     1      -3.642   1.627  -0.061  0.00  0.00    +0.017 A 
ATOM     24  C   UNL     1      -2.429   0.932  -0.087  0.00  0.00    +0.086 A 
BRANCH  24  25
ATOM     25  C   UNL     1      -2.418  -0.535  -0.207  0.00  0.00    +0.388 C 
ATOM     26  O   UNL     1      -1.369  -1.144  -0.125  0.00  0.00    -0.241 OA
ATOM     27  O   UNL     1      -3.571  -1.204  -0.407  0.00  0.00    -0.241 OA
ENDBRANCH  24  25
ENDBRANCH  17  19
ENDBRANCH  16  17
ENDBRANCH   3  15
TORSDOF 5
