REMARK  Name = ZINC57585207
REMARK  5 active torsions:
REMARK  status: ('A' for Active; 'I' for Inactive)
REMARK    1  A    between atoms: C_4  and  C_7
REMARK    2  A    between atoms: C_18  and  C_20
REMARK    3  A    between atoms: C_20  and  N_21
REMARK    4  A    between atoms: N_24  and  C_27
REMARK    5  A    between atoms: C_32  and  O_33
REMARK                            x       y       z     vdW  Elec       q    Type
REMARK                         _______ _______ _______ _____ _____    ______ ____
ROOT
ATOM      1  C   UNL     1       2.525  -2.914  -0.623  0.00  0.00    +0.149 C 
ATOM      2  C   UNL     1       1.235  -2.284  -0.079  0.00  0.00    +0.256 C 
ATOM      3  O   UNL     1       1.566  -1.437   1.024  0.00  0.00    -0.488 OA
ATOM      4  C   UNL     1       2.570  -0.537   0.853  0.00  0.00    +0.142 A 
ATOM      5  C   UNL     1       2.657   0.563   1.693  0.00  0.00    +0.047 A 
ATOM      6  C   UNL     1       3.677   1.481   1.528  0.00  0.00    +0.004 A 
ATOM      7  C   UNL     1       4.615   1.309   0.527  0.00  0.00    +0.002 A 
ATOM      8  C   UNL     1       4.536   0.216  -0.315  0.00  0.00    +0.027 A 
ATOM      9  C   UNL     1       3.515  -0.707  -0.155  0.00  0.00    +0.079 A 
ATOM     10  N   UNL     1       3.426  -1.817  -1.015  0.00  0.00    -0.256 N 
ATOM     11  C   UNL     1       4.141  -1.876  -2.157  0.00  0.00    +0.235 C 
ATOM     12  O   UNL     1       4.795  -0.919  -2.512  0.00  0.00    -0.274 OA
ENDROOT
BRANCH   1  16
ATOM     13  C   UNL     1       4.369  -5.293   2.408  0.00  0.00    +0.000 A 
ATOM     14  C   UNL     1       3.626  -5.897   1.412  0.00  0.00    +0.000 A 
ATOM     15  C   UNL     1       3.029  -5.128   0.431  0.00  0.00    +0.005 A 
ATOM     16  C   UNL     1       3.175  -3.753   0.447  0.00  0.00    -0.023 A 
ATOM     17  C   UNL     1       3.917  -3.148   1.444  0.00  0.00    +0.005 A 
ATOM     18  C   UNL     1       4.515  -3.918   2.424  0.00  0.00    +0.000 A 
ENDBRANCH   1  16
BRANCH  11  19
ATOM     19  C   UNL     1       4.125  -3.130  -2.991  0.00  0.00    +0.181 C 
BRANCH  19  20
ATOM     20  N   UNL     1       4.859  -2.895  -4.242  0.00  0.00    -0.291 NA
ATOM     21  C   UNL     1       4.170  -1.902  -5.078  0.00  0.00    +0.104 C 
ATOM     22  C   UNL     1       5.053  -1.552  -6.281  0.00  0.00    +0.120 C 
ATOM     23  N   UNL     1       5.419  -2.798  -6.970  0.00  0.00    -0.325 N 
ATOM     24  C   UNL     1       5.989  -3.894  -6.172  0.00  0.00    +0.120 C 
ATOM     25  C   UNL     1       5.070  -4.152  -4.973  0.00  0.00    +0.104 C 
BRANCH  23  26
ATOM     26  C   UNL     1       5.230  -2.938  -8.350  0.00  0.00    +0.072 A 
ATOM     27  C   UNL     1       6.241  -2.581  -9.230  0.00  0.00    +0.027 A 
ATOM     28  C   UNL     1       6.053  -2.721 -10.592  0.00  0.00    +0.002 A 
ATOM     29  C   UNL     1       4.858  -3.215 -11.081  0.00  0.00    +0.004 A 
ATOM     30  C   UNL     1       3.845  -3.573 -10.210  0.00  0.00    +0.047 A 
ATOM     31  C   UNL     1       4.028  -3.442  -8.843  0.00  0.00    +0.138 A 
BRANCH  31  32
ATOM     32  O   UNL     1       3.035  -3.798  -7.985  0.00  0.00    -0.505 OA
ATOM     33  H   UNL     1       2.421  -3.082  -7.775  0.00  0.00    +0.292 HD
ENDBRANCH  31  32
ENDBRANCH  23  26
ENDBRANCH  19  20
ENDBRANCH  11  19
TORSDOF 5
