REMARK  Name = ZINC20706179
REMARK  5 active torsions:
REMARK  status: ('A' for Active; 'I' for Inactive)
REMARK    1  A    between atoms: C_4  and  C_10
REMARK    2  A    between atoms: C_6  and  N_7
REMARK    3  A    between atoms: C_21  and  O_26
REMARK    4  A    between atoms: O_26  and  C_27
REMARK    5  A    between atoms: C_27  and  C_28
REMARK                            x       y       z     vdW  Elec       q    Type
REMARK                         _______ _______ _______ _____ _____    ______ ____
ROOT
ATOM      1  C   UNL     1       2.363   4.305   0.032  0.00  0.00    +0.106 C 
ATOM      2  C   UNL     1       3.392   3.490   0.794  0.00  0.00    +0.029 C 
ATOM      3  C   UNL     1       4.838   4.005   0.791  0.00  0.00    +0.033 C 
ATOM      4  C   UNL     1       5.628   2.703   0.933  0.00  0.00    -0.030 C 
ATOM      5  C   UNL     1       4.918   1.687   0.459  0.00  0.00    -0.023 C 
ATOM      6  C   UNL     1       3.629   2.211  -0.063  0.00  0.00    +0.049 C 
ATOM      7  C   UNL     1       2.389   1.406  -0.027  0.00  0.00    -0.016 A 
ATOM      8  C   UNL     1       2.402   0.027  -0.032  0.00  0.00    +0.051 A 
ATOM      9  C   UNL     1       1.212  -0.683  -0.016  0.00  0.00    +0.121 A 
ATOM     10  C   UNL     1       0.002  -0.004   0.002  0.00  0.00    +0.047 A 
ATOM     11  C   UNL     1      -0.017   1.375   0.010  0.00  0.00    +0.027 A 
ATOM     12  C   UNL     1       1.172   2.095   0.002  0.00  0.00    +0.032 A 
ATOM     13  N   UNL     1       1.124   3.497   0.048  0.00  0.00    -0.336 N 
ATOM     14  H   UNL     1       0.144   3.994   0.097  0.00  0.00    +0.147 HD
ENDROOT
BRANCH   1  18
ATOM     15  C   UNL     1       1.715   8.055   1.974  0.00  0.00    +0.034 A 
ATOM     16  C   UNL     1       2.760   7.912   1.081  0.00  0.00    +0.022 A 
ATOM     17  C   UNL     1       2.971   6.698   0.452  0.00  0.00    +0.046 A 
ATOM     18  C   UNL     1       2.135   5.628   0.717  0.00  0.00    -0.007 A 
ATOM     19  C   UNL     1       1.087   5.773   1.606  0.00  0.00    +0.039 A 
ATOM     20  C   UNL     1       0.880   6.985   2.239  0.00  0.00    +0.127 A 
ATOM     21 CL   UNL     1       4.283   6.517  -0.670  0.00  0.00    -0.083 Cl
BRANCH  20  22
ATOM     22  N   UNL     1      -0.239   7.139   3.195  0.00  0.00    +0.056 N 
ATOM     23  O   UNL     1      -0.424   8.208   3.748  0.00  0.00    -0.126 OA
ATOM     24  O   UNL     1      -0.975   6.197   3.428  0.00  0.00    -0.126 OA
ENDBRANCH  20  22
ENDBRANCH   1  18
BRANCH   9  25
ATOM     25  O   UNL     1       1.230  -2.043  -0.016  0.00  0.00    -0.489 OA
BRANCH  25  26
ATOM     26  C   UNL     1      -0.035  -2.709   0.002  0.00  0.00    +0.260 C 
BRANCH  26  27
ATOM     27  C   UNL     1       0.186  -4.223  -0.002  0.00  0.00    +0.156 C 
ATOM     28  C   UNL     1      -1.173  -4.964   0.073  0.00  0.00    +0.037 C 
ATOM     29  C   UNL     1      -0.801  -6.325  -0.576  0.00  0.00    +0.031 C 
ATOM     30  C   UNL     1       0.241  -5.910  -1.636  0.00  0.00    +0.160 C 
ATOM     31  O   UNL     1       0.772  -4.638  -1.245  0.00  0.00    -0.373 OA
ENDBRANCH  26  27
ENDBRANCH  25  26
ENDBRANCH   9  25
TORSDOF 5
