REMARK  Name = ZINC35398195
REMARK  8 active torsions:
REMARK  status: ('A' for Active; 'I' for Inactive)
REMARK    1  A    between atoms: C_1  and  C_2
REMARK    2  A    between atoms: C_5  and  C_8
REMARK    3  A    between atoms: C_18  and  C_21
REMARK    4  A    between atoms: N_23  and  C_24
REMARK    5  A    between atoms: C_24  and  C_25
REMARK    6  A    between atoms: C_28  and  C_31
REMARK    7  A    between atoms: C_31  and  C_32
REMARK    8  A    between atoms: C_31  and  C_33
REMARK                            x       y       z     vdW  Elec       q    Type
REMARK                         _______ _______ _______ _____ _____    ______ ____
ROOT
ATOM      1  C   UNL     1       0.040  -4.256  -0.020  0.00  0.00    +0.093 A 
ATOM      2  C   UNL     1       0.279  -4.959   1.166  0.00  0.00    +0.033 A 
ATOM      3  C   UNL     1       0.305  -6.341   1.106  0.00  0.00    +0.047 A 
ATOM      4  C   UNL     1       0.092  -6.948  -0.133  0.00  0.00    +0.144 A 
ATOM      5  N   UNL     1      -0.127  -6.200  -1.206  0.00  0.00    -0.134 NA
ATOM      6  N   UNL     1      -0.156  -4.918  -1.151  0.00  0.00    -0.147 NA
ATOM      7  N   UNL     1       0.110  -8.333  -0.242  0.00  0.00    -0.313 N 
ATOM      8  C   UNL     1       0.123  -8.980  -1.561  0.00  0.00    +0.106 C 
ATOM      9  C   UNL     1      -1.031  -9.985  -1.629  0.00  0.00    +0.020 C 
ATOM     10  C   UNL     1      -0.927 -10.956  -0.451  0.00  0.00    +0.016 C 
ATOM     11  C   UNL     1      -1.038 -10.181   0.863  0.00  0.00    +0.092 C 
ATOM     12  C   UNL     1       0.121  -9.178   0.960  0.00  0.00    +0.119 C 
ENDROOT
BRANCH   1  17
ATOM     13  C   UNL     1      -0.113   1.501   0.019  0.00  0.00    +0.044 C 
ATOM     14  C   UNL     1      -0.072  -0.006   0.009  0.00  0.00    -0.050 A 
ATOM     15  C   UNL     1      -0.277  -0.692  -1.174  0.00  0.00    +0.004 A 
ATOM     16  C   UNL     1      -0.242  -2.072  -1.190  0.00  0.00    +0.010 A 
ATOM     17  C   UNL     1       0.001  -2.773  -0.010  0.00  0.00    +0.002 A 
ATOM     18  C   UNL     1       0.207  -2.076   1.179  0.00  0.00    +0.010 A 
ATOM     19  C   UNL     1       0.175  -0.696   1.182  0.00  0.00    +0.004 A 
ENDBRANCH   1  17
BRANCH  11  20
ATOM     20  C   UNL     1      -0.969 -11.142   2.022  0.00  0.00    +0.218 C 
ATOM     21  O   UNL     1      -0.843 -12.331   1.817  0.00  0.00    -0.275 OA
ATOM     22  N   UNL     1      -1.047 -10.681   3.286  0.00  0.00    -0.311 N 
ATOM     23  H   UNL     1      -1.149  -9.730   3.450  0.00  0.00    +0.149 HD
BRANCH  22  24
ATOM     24  C   UNL     1      -0.980 -11.615   4.412  0.00  0.00    +0.139 C 
BRANCH  24  25
ATOM     25  C   UNL     1      -1.090 -10.851   5.706  0.00  0.00    -0.030 A 
ATOM     26  C   UNL     1       0.050 -10.374   6.326  0.00  0.00    +0.005 A 
ATOM     27  C   UNL     1      -0.051  -9.672   7.513  0.00  0.00    +0.004 A 
ATOM     28  C   UNL     1      -1.292  -9.448   8.080  0.00  0.00    -0.045 A 
ATOM     29  C   UNL     1      -2.432  -9.924   7.460  0.00  0.00    +0.004 A 
ATOM     30  C   UNL     1      -2.331 -10.622   6.270  0.00  0.00    +0.005 A 
BRANCH  28  31
ATOM     31  C   UNL     1      -1.402  -8.684   9.375  0.00  0.00    +0.013 C 
ATOM     32  C   UNL     1      -2.255  -7.433   9.158  0.00  0.00    +0.012 C 
ATOM     33  C   UNL     1      -2.058  -9.571  10.435  0.00  0.00    +0.012 C 
ENDBRANCH  28  31
ENDBRANCH  24  25
ENDBRANCH  22  24
ENDBRANCH  11  20
TORSDOF 5
