REMARK  Name = ZINC32889256
REMARK  4 active torsions:
REMARK  status: ('A' for Active; 'I' for Inactive)
REMARK    1  A    between atoms: C_1  and  C_2
REMARK    2  A    between atoms: C_2  and  C_4
REMARK    3  A    between atoms: C_2  and  N_13
REMARK    4  A    between atoms: C_14  and  C_16
REMARK                            x       y       z     vdW  Elec       q    Type
REMARK                         _______ _______ _______ _____ _____    ______ ____
ROOT
ATOM      1  N   UNL     1      -2.392  -0.179  -0.875  0.00  0.00    -0.308 N 
ATOM      2  C   UNL     1      -3.495  -0.718  -1.433  0.00  0.00    +0.220 C 
ATOM      3  O   UNL     1      -4.587  -0.247  -1.194  0.00  0.00    -0.275 OA
ATOM      4  H   UNL     1      -1.402  -0.606  -1.092  0.00  0.00    +0.149 HD
ENDROOT
BRANCH   2   5
ATOM      5  C   UNL     1      -3.371  -1.905  -2.353  0.00  0.00    +0.117 C 
ATOM      6  C   UNL     1      -4.758  -2.321  -2.848  0.00  0.00    +0.055 C 
ATOM      7  C   UNL     1      -4.619  -3.301  -3.985  0.00  0.00    -0.004 A 
ATOM      8  C   UNL     1      -5.711  -4.081  -4.330  0.00  0.00    +0.027 A 
ATOM      9  C   UNL     1      -5.619  -4.988  -5.369  0.00  0.00    +0.041 A 
ATOM     10  C   UNL     1      -4.433  -5.120  -6.069  0.00  0.00    +0.023 A 
ATOM     11  C   UNL     1      -3.342  -4.347  -5.728  0.00  0.00    +0.047 A 
ATOM     12  C   UNL     1      -3.431  -3.434  -4.681  0.00  0.00    +0.124 A 
ATOM     13  O   UNL     1      -2.332  -2.697  -4.370  0.00  0.00    -0.491 OA
ATOM     14  C   UNL     1      -2.518  -1.527  -3.571  0.00  0.00    +0.242 C 
ATOM     15 CL   UNL     1      -6.992  -5.962  -5.795  0.00  0.00    -0.084 Cl
ENDBRANCH   2   5
BRANCH   1  17
ATOM     16  C   UNL     1      -2.815   0.490   1.439  0.00  0.00    +0.033 C 
ATOM     17  C   UNL     1      -2.513   0.975   0.019  0.00  0.00    +0.100 C 
BRANCH  17  18
ATOM     18  C   UNL     1      -1.220   1.749   0.017  0.00  0.00    -0.024 A 
ATOM     19  C   UNL     1      -0.013   1.076   0.008  0.00  0.00    +0.009 A 
ATOM     20  C   UNL     1       1.176   1.782   0.000  0.00  0.00    +0.050 A 
ATOM     21  C   UNL     1       1.160   3.167   0.007  0.00  0.00    +0.166 A 
ATOM     22  C   UNL     1      -0.057   3.845   0.022  0.00  0.00    +0.167 A 
ATOM     23  C   UNL     1      -1.244   3.131   0.029  0.00  0.00    +0.055 A 
ATOM     24  O   UNL     1       0.192   5.188   0.026  0.00  0.00    -0.453 OA
ATOM     25  C   UNL     1       1.569   5.322   0.426  0.00  0.00    +0.466 C 
ATOM     26  O   UNL     1       2.171   4.084   0.002  0.00  0.00    -0.453 OA
ENDBRANCH  17  18
ENDBRANCH   1  17
TORSDOF 3
