REMARK  Name = ZINC39595500
REMARK  10 active torsions:
REMARK  status: ('A' for Active; 'I' for Inactive)
REMARK    1  A    between atoms: C_1  and  C_2
REMARK    2  A    between atoms: C_2  and  C_4
REMARK    3  A    between atoms: C_2  and  O_31
REMARK    4  A    between atoms: C_4  and  N_5
REMARK    5  A    between atoms: C_6  and  C_8
REMARK    6  A    between atoms: C_19  and  C_21
REMARK    7  A    between atoms: C_26  and  O_27
REMARK    8  A    between atoms: O_27  and  C_28
REMARK    9  A    between atoms: C_28  and  C_30
REMARK   10  A    between atoms: O_31  and  C_32
REMARK                            x       y       z     vdW  Elec       q    Type
REMARK                         _______ _______ _______ _____ _____    ______ ____
ROOT
ATOM      1  C   UNL     1       2.272  -2.006  -4.223  0.00  0.00    +0.100 C 
ATOM      2  C   UNL     1       3.172  -2.731  -3.197  0.00  0.00    +0.121 C 
ATOM      3  N   UNL     1       4.089  -3.555  -4.019  0.00  0.00    -0.296 N 
ATOM      4  C   UNL     1       4.419  -2.692  -5.179  0.00  0.00    +0.115 C 
ATOM      5  C   UNL     1       3.095  -1.982  -5.522  0.00  0.00    -0.004 C 
ATOM      6  C   UNL     1       3.364  -0.543  -5.950  0.00  0.00    -0.010 C 
ATOM      7  C   UNL     1       4.132  -0.544  -7.275  0.00  0.00    -0.082 C 
ATOM      8  N   UNL     1       3.345  -1.242  -8.299  0.00  0.00    +0.379 N 
ATOM      9  C   UNL     1       3.170  -2.650  -7.923  0.00  0.00    -0.082 C 
ATOM     10  C   UNL     1       2.361  -2.737  -6.626  0.00  0.00    -0.010 C 
ATOM     11  C   UNL     1       4.524  -4.806  -3.769  0.00  0.00    +0.250 C 
ATOM     12  O   UNL     1       5.342  -5.323  -4.505  0.00  0.00    -0.270 OA
ATOM     13  H   UNL     1       2.440  -0.803  -8.382  0.00  0.00    -0.086 HD
ATOM     14  H   UNL     1       3.825  -1.189  -9.184  0.00  0.00    -0.086 HD
ENDROOT
BRANCH  11  15
ATOM     15  C   UNL     1       4.007  -5.548  -2.603  0.00  0.00    +0.079 A 
ATOM     16  C   UNL     1       3.813  -4.894  -1.384  0.00  0.00    +0.017 A 
ATOM     17  C   UNL     1       3.330  -5.592  -0.299  0.00  0.00    +0.001 A 
ATOM     18  C   UNL     1       3.035  -6.941  -0.411  0.00  0.00    +0.004 A 
ATOM     19  C   UNL     1       3.222  -7.600  -1.610  0.00  0.00    +0.047 A 
ATOM     20  C   UNL     1       3.703  -6.911  -2.714  0.00  0.00    +0.144 A 
BRANCH  20  21
ATOM     21  O   UNL     1       3.882  -7.556  -3.894  0.00  0.00    -0.425 OA
BRANCH  21  22
ATOM     22  C   UNL     1       2.905  -7.474  -4.812  0.00  0.00    +0.309 C 
ATOM     23  O   UNL     1       1.941  -6.776  -4.608  0.00  0.00    -0.251 OA
ATOM     24  C   UNL     1       3.012  -8.254  -6.097  0.00  0.00    +0.136 C 
ENDBRANCH  21  22
ENDBRANCH  20  21
ENDBRANCH  11  15
BRANCH   1  26
ATOM     25  N   UNL     1       0.823  -0.004  -4.118  0.00  0.00    -0.312 N 
ATOM     26  C   UNL     1       1.977  -0.602  -3.762  0.00  0.00    +0.218 C 
ATOM     27  O   UNL     1       2.779  -0.009  -3.071  0.00  0.00    -0.275 OA
ATOM     28  H   UNL     1       0.182  -0.478  -4.671  0.00  0.00    +0.149 HD
BRANCH  25  29
ATOM     29  C   UNL     1       0.536   1.361  -3.670  0.00  0.00    +0.148 C 
BRANCH  29  31
ATOM     30  C   UNL     1      -1.127   3.224  -3.741  0.00  0.00    +0.053 C 
ATOM     31  C   UNL     1      -0.828   1.798  -4.209  0.00  0.00    +0.187 C 
BRANCH  31  32
ATOM     32  O   UNL     1      -0.810   1.759  -5.637  0.00  0.00    -0.488 OA
BRANCH  32  33
ATOM     33  C   UNL     1      -2.001   1.566  -6.264  0.00  0.00    +0.121 A 
ATOM     34  C   UNL     1      -2.046   1.437  -7.644  0.00  0.00    +0.048 A 
ATOM     35  C   UNL     1      -3.257   1.240  -8.280  0.00  0.00    +0.042 A 
ATOM     36  C   UNL     1      -4.425   1.172  -7.539  0.00  0.00    +0.124 A 
ATOM     37  C   UNL     1      -4.382   1.301  -6.162  0.00  0.00    +0.042 A 
ATOM     38  C   UNL     1      -3.171   1.491  -5.523  0.00  0.00    +0.048 A 
ATOM     39  F   UNL     1      -5.609   0.981  -8.162  0.00  0.00    -0.205 F 
ENDBRANCH  32  33
ENDBRANCH  31  32
ENDBRANCH  29  31
ENDBRANCH  25  29
ENDBRANCH   1  26
TORSDOF 8
