REMARK  Name = ZINC02107585
REMARK  3 active torsions:
REMARK  status: ('A' for Active; 'I' for Inactive)
REMARK    1  A    between atoms: C_10  and  N_11
REMARK    2  A    between atoms: C_14  and  C_21
REMARK    3  A    between atoms: C_15  and  O_20
REMARK                            x       y       z     vdW  Elec       q    Type
REMARK                         _______ _______ _______ _____ _____    ______ ____
ROOT
ATOM      1  N   UNL     1      -1.188   1.877   0.018  0.00  0.00    -0.256 N 
ATOM      2  C   UNL     1      -0.015   1.215   0.009  0.00  0.00    +0.265 A 
ATOM      3  O   UNL     1       0.002  -0.004   0.002  0.00  0.00    -0.267 OA
ATOM      4  C   UNL     1       1.190   1.939   0.001  0.00  0.00    +0.068 A 
ATOM      5  C   UNL     1       1.145   3.302   0.008  0.00  0.00    +0.199 A 
ATOM      6  N   UNL     1      -0.071   3.936   0.023  0.00  0.00    -0.306 N 
ATOM      7  H   UNL     1      -0.109   4.905   0.029  0.00  0.00    +0.171 HD
ATOM      8  C   UNL     1      -1.212   3.223   0.030  0.00  0.00    +0.168 A 
ATOM      9  S   UNL     1      -2.717   4.039   0.049  0.00  0.00    -0.012 S 
ENDROOT
BRANCH   4  10
ATOM     10  C   UNL     1       2.514   1.219  -0.015  0.00  0.00    +0.018 C 
ATOM     11  C   UNL     1       2.661   0.456  -1.310  0.00  0.00    +0.011 A 
ATOM     12  C   UNL     1       3.133  -0.810  -1.370  0.00  0.00    -0.022 A 
ATOM     13  C   UNL     1       3.128  -1.204  -2.761  0.00  0.00    +0.003 A 
ATOM     14  C   UNL     1       3.499  -2.381  -3.418  0.00  0.00    +0.010 A 
ATOM     15  C   UNL     1       3.358  -2.401  -4.784  0.00  0.00    +0.001 A 
ATOM     16  C   UNL     1       2.871  -1.313  -5.490  0.00  0.00    +0.002 A 
ATOM     17  C   UNL     1       2.496  -0.136  -4.866  0.00  0.00    +0.026 A 
ATOM     18  C   UNL     1       2.628  -0.086  -3.480  0.00  0.00    +0.047 A 
ATOM     19  N   UNL     1       2.357   0.895  -2.570  0.00  0.00    -0.359 N 
ATOM     20  H   UNL     1       2.002   1.772  -2.784  0.00  0.00    +0.166 HD
ATOM     21  C   UNL     1       3.568  -1.594  -0.157  0.00  0.00    +0.018 C 
ATOM     22  C   UNL     1       3.752  -0.607   1.004  0.00  0.00    -0.076 C 
ATOM     23  N   UNL     1       2.561   0.261   1.111  0.00  0.00    +0.388 N 
ATOM     24  H   UNL     1       1.716  -0.322   1.093  0.00  0.00    -0.084 HD
ATOM     25  H   UNL     1       2.600   0.780   1.995  0.00  0.00    -0.084 HD
ENDBRANCH   4  10
BRANCH   1  35
ATOM     26  C   UNL     1      -4.259   0.077  -3.562  0.00  0.00    +0.001 A 
ATOM     27  C   UNL     1      -3.062   0.790  -3.587  0.00  0.00    +0.001 A 
ATOM     28  C   UNL     1      -2.438   1.152  -2.432  0.00  0.00    +0.010 A 
ATOM     29  C   UNL     1      -3.009   0.809  -1.197  0.00  0.00    +0.006 A 
ATOM     30  C   UNL     1      -4.223   0.079  -1.171  0.00  0.00    -0.016 A 
ATOM     31  C   UNL     1      -4.838  -0.278  -2.383  0.00  0.00    +0.008 A 
ATOM     32  C   UNL     1      -4.793  -0.271   0.065  0.00  0.00    +0.008 A 
ATOM     33  C   UNL     1      -4.175   0.087   1.224  0.00  0.00    +0.003 A 
ATOM     34  C   UNL     1      -2.980   0.800   1.211  0.00  0.00    +0.027 A 
ATOM     35  C   UNL     1      -2.389   1.162   0.020  0.00  0.00    +0.060 A 
ENDBRANCH   1  35
BRANCH   5  36
ATOM     36  O   UNL     1       2.287   4.021   0.001  0.00  0.00    -0.493 OA
ATOM     37  H   UNL     1       2.149   4.978   0.007  0.00  0.00    +0.294 HD
ENDBRANCH   5  36
TORSDOF 3
