REMARK  Name = ZINC44714014
REMARK  9 active torsions:
REMARK  status: ('A' for Active; 'I' for Inactive)
REMARK    1  A    between atoms: C_1  and  C_2
REMARK    2  A    between atoms: C_3  and  C_9
REMARK    3  A    between atoms: C_4  and  C_8
REMARK    4  A    between atoms: C_9  and  C_11
REMARK    5  A    between atoms: C_9  and  N_12
REMARK    6  A    between atoms: C_13  and  C_15
REMARK    7  A    between atoms: C_26  and  C_28
REMARK    8  A    between atoms: C_30  and  O_35
REMARK    9  A    between atoms: O_35  and  C_36
REMARK                            x       y       z     vdW  Elec       q    Type
REMARK                         _______ _______ _______ _____ _____    ______ ____
ROOT
ATOM      1  C   UNL     1      -2.362  -0.593  -5.242  0.00  0.00    +0.100 C 
ATOM      2  C   UNL     1      -3.568  -1.213  -4.502  0.00  0.00    +0.121 C 
ATOM      3  N   UNL     1      -4.702  -0.310  -4.812  0.00  0.00    -0.296 N 
ATOM      4  C   UNL     1      -4.505   0.053  -6.236  0.00  0.00    +0.115 C 
ATOM      5  C   UNL     1      -2.981   0.234  -6.382  0.00  0.00    -0.004 C 
ATOM      6  C   UNL     1      -2.513  -0.296  -7.734  0.00  0.00    -0.010 C 
ATOM      7  C   UNL     1      -3.095   0.577  -8.849  0.00  0.00    -0.082 C 
ATOM      8  N   UNL     1      -2.653   1.965  -8.666  0.00  0.00    +0.379 N 
ATOM      9  C   UNL     1      -3.186   2.498  -7.406  0.00  0.00    -0.082 C 
ATOM     10  C   UNL     1      -2.608   1.706  -6.230  0.00  0.00    -0.010 C 
ATOM     11  C   UNL     1      -5.690   0.089  -3.987  0.00  0.00    +0.248 C 
ATOM     12  O   UNL     1      -6.609   0.757  -4.418  0.00  0.00    -0.270 OA
ATOM     13  H   UNL     1      -1.645   1.996  -8.643  0.00  0.00    -0.086 HD
ATOM     14  H   UNL     1      -2.987   2.527  -9.435  0.00  0.00    -0.086 HD
ENDROOT
BRANCH  11  15
ATOM     15  C   UNL     1      -5.655  -0.285  -2.557  0.00  0.00    +0.054 A 
ATOM     16  C   UNL     1      -5.170  -1.536  -2.172  0.00  0.00    +0.059 A 
ATOM     17  C   UNL     1      -5.140  -1.879  -0.832  0.00  0.00    +0.121 A 
ATOM     18  C   UNL     1      -5.592  -0.982   0.127  0.00  0.00    +0.047 A 
ATOM     19  C   UNL     1      -6.073   0.258  -0.252  0.00  0.00    +0.019 A 
ATOM     20  C   UNL     1      -6.102   0.613  -1.586  0.00  0.00    +0.030 A 
ATOM     21 BR   UNL     1      -6.754   2.313  -2.098  0.00  0.00    -0.050 Br
BRANCH  17  22
ATOM     22  O   UNL     1      -4.669  -3.097  -0.453  0.00  0.00    -0.495 OA
ATOM     23  C   UNL     1      -4.667  -3.385   0.946  0.00  0.00    +0.277 C 
ENDBRANCH  17  22
ENDBRANCH  11  15
BRANCH   1  25
ATOM     24  N   UNL     1      -0.251   0.454  -4.491  0.00  0.00    -0.308 N 
ATOM     25  C   UNL     1      -1.577   0.298  -4.314  0.00  0.00    +0.219 C 
ATOM     26  O   UNL     1      -2.140   0.875  -3.408  0.00  0.00    -0.275 OA
ATOM     27  H   UNL     1       0.199  -0.007  -5.216  0.00  0.00    +0.149 HD
BRANCH  24  28
ATOM     28  C   UNL     1       0.512   1.320  -3.589  0.00  0.00    +0.104 C 
ATOM     29  C   UNL     1       0.341   2.779  -4.017  0.00  0.00    +0.033 C 
BRANCH  28  32
ATOM     30  C   UNL     1       2.171   0.780  -6.186  0.00  0.00    +0.065 C 
ATOM     31  C   UNL     1       2.688   0.713  -4.772  0.00  0.00    +0.038 A 
ATOM     32  C   UNL     1       1.971   0.947  -3.648  0.00  0.00    +0.015 A 
ATOM     33  C   UNL     1       2.823   0.781  -2.551  0.00  0.00    +0.065 A 
ATOM     34  N   UNL     1       4.009   0.459  -3.001  0.00  0.00    -0.179 NA
ATOM     35  N   UNL     1       3.948   0.405  -4.399  0.00  0.00    -0.281 N 
ATOM     36  H   UNL     1       4.682   0.187  -4.995  0.00  0.00    +0.189 HD
ATOM     37  C   UNL     1       2.441   0.945  -1.103  0.00  0.00    +0.068 C 
ENDBRANCH  28  32
ENDBRANCH  24  28
ENDBRANCH   1  25
TORSDOF 5
