REMARK  Name = ZINC33636472
REMARK  18 active torsions:
REMARK  status: ('A' for Active; 'I' for Inactive)
REMARK    1  A    between atoms: C_1  and  C_2
REMARK    2  A    between atoms: C_2  and  C_3
REMARK    3  A    between atoms: C_3  and  C_4
REMARK    4  A    between atoms: C_4  and  C_5
REMARK    5  A    between atoms: C_5  and  N_6
REMARK    6  A    between atoms: C_7  and  C_9
REMARK    7  A    between atoms: C_13  and  C_30
REMARK    8  A    between atoms: C_16  and  C_18
REMARK    9  A    between atoms: C_20  and  O_28
REMARK   10  A    between atoms: C_21  and  O_26
REMARK   11  A    between atoms: C_22  and  O_24
REMARK   12  A    between atoms: O_24  and  C_25
REMARK   13  A    between atoms: O_26  and  C_27
REMARK   14  A    between atoms: O_28  and  C_29
REMARK   15  A    between atoms: C_33  and  C_36
REMARK   16  A    between atoms: C_36  and  C_37
REMARK   17  A    between atoms: C_36  and  C_38
REMARK   18  A    between atoms: C_36  and  C_39
REMARK                            x       y       z     vdW  Elec       q    Type
REMARK                         _______ _______ _______ _____ _____    ______ ____
ROOT
ATOM      1  C   UNL     1      -1.337   7.509   0.394  0.00  0.00    +0.173 C 
ATOM      2  C   UNL     1      -2.795   7.471   0.931  0.00  0.00    +0.103 C 
ATOM      3  S   UNL     1      -3.148   5.680   0.637  0.00  0.00    -0.131 S 
ATOM      4  C   UNL     1      -1.425   5.065   0.863  0.00  0.00    +0.166 C 
ATOM      5  N   UNL     1      -0.615   6.293   0.756  0.00  0.00    -0.269 N 
ATOM      6  C   UNL     1       0.714   6.293   0.984  0.00  0.00    +0.249 C 
ATOM      7  O   UNL     1       1.333   7.340   0.970  0.00  0.00    -0.270 OA
ENDROOT
BRANCH   6   8
ATOM      8  C   UNL     1       1.417   5.023   1.252  0.00  0.00    +0.044 A 
ATOM      9  C   UNL     1       0.926   4.143   2.220  0.00  0.00    +0.062 A 
ATOM     10  C   UNL     1       1.587   2.954   2.469  0.00  0.00    +0.166 A 
ATOM     11  C   UNL     1       2.740   2.635   1.758  0.00  0.00    +0.204 A 
ATOM     12  C   UNL     1       3.234   3.513   0.797  0.00  0.00    +0.166 A 
ATOM     13  C   UNL     1       2.574   4.700   0.540  0.00  0.00    +0.062 A 
BRANCH  12  14
ATOM     14  O   UNL     1       4.364   3.201   0.108  0.00  0.00    -0.491 OA
ATOM     15  C   UNL     1       4.880   4.197  -0.778  0.00  0.00    +0.277 C 
ENDBRANCH  12  14
BRANCH  11  16
ATOM     16  O   UNL     1       3.387   1.466   2.005  0.00  0.00    -0.488 OA
ATOM     17  C   UNL     1       2.989   0.329   1.236  0.00  0.00    +0.277 C 
ENDBRANCH  11  16
BRANCH  10  18
ATOM     18  O   UNL     1       1.109   2.096   3.410  0.00  0.00    -0.491 OA
ATOM     19  C   UNL     1      -0.078   2.487   4.102  0.00  0.00    +0.277 C 
ENDBRANCH  10  18
ENDBRANCH   6   8
BRANCH   4  20
ATOM     20  C   UNL     1      -1.061   4.090  -0.228  0.00  0.00    -0.017 A 
ATOM     21  C   UNL     1      -1.726   2.882  -0.325  0.00  0.00    +0.006 A 
ATOM     22  C   UNL     1      -1.395   1.990  -1.327  0.00  0.00    +0.004 A 
ATOM     23  C   UNL     1      -0.393   2.302  -2.227  0.00  0.00    -0.042 A 
ATOM     24  C   UNL     1       0.275   3.508  -2.127  0.00  0.00    +0.004 A 
ATOM     25  C   UNL     1      -0.059   4.402  -1.127  0.00  0.00    +0.006 A 
BRANCH  23  26
ATOM     26  C   UNL     1      -0.030   1.327  -3.318  0.00  0.00    -0.013 C 
ATOM     27  C   UNL     1       1.439   0.925  -3.174  0.00  0.00    +0.015 C 
ATOM     28  C   UNL     1      -0.913   0.083  -3.205  0.00  0.00    +0.015 C 
ATOM     29  C   UNL     1      -0.247   1.985  -4.682  0.00  0.00    +0.015 C 
ENDBRANCH  23  26
ENDBRANCH   4  20
BRANCH   1  31
ATOM     30  N   UNL     1      -1.462   8.856  -1.677  0.00  0.00    -0.314 N 
ATOM     31  C   UNL     1      -1.370   7.638  -1.107  0.00  0.00    +0.234 C 
ATOM     32  O   UNL     1      -1.314   6.646  -1.803  0.00  0.00    -0.274 OA
ATOM     33  H   UNL     1      -1.514   9.756  -1.047  0.00  0.00    +0.149 HD
BRANCH  30  34
ATOM     34  C   UNL     1      -1.494   8.981  -3.137  0.00  0.00    +0.104 C 
BRANCH  34  35
ATOM     35  C   UNL     1      -1.601  10.459  -3.519  0.00  0.00    +0.019 C 
BRANCH  35  36
ATOM     36  C   UNL     1      -1.635  10.590  -5.043  0.00  0.00    +0.001 C 
BRANCH  36  38
ATOM     37  C   UNL     1      -1.775  12.198  -6.950  0.00  0.00    +0.004 C 
ATOM     38  C   UNL     1      -1.742  12.067  -5.426  0.00  0.00    -0.003 C 
ENDBRANCH  36  38
ENDBRANCH  35  36
ENDBRANCH  34  35
ENDBRANCH  30  34
ENDBRANCH   1  31
TORSDOF 11
