REMARK  Name = ZINC59170583
REMARK  6 active torsions:
REMARK  status: ('A' for Active; 'I' for Inactive)
REMARK    1  A    between atoms: C_5  and  N_7
REMARK    2  A    between atoms: C_8  and  C_10
REMARK    3  A    between atoms: C_15  and  O_31
REMARK    4  A    between atoms: N_20  and  C_21
REMARK    5  A    between atoms: C_24  and  S_27
REMARK    6  A    between atoms: S_27  and  N_30
REMARK                            x       y       z     vdW  Elec       q    Type
REMARK                         _______ _______ _______ _____ _____    ______ ____
ROOT
ATOM      1  C   UNL     1       0.132  -4.212   0.249  0.00  0.00    +0.098 A 
ATOM      2  C   UNL     1      -1.052  -4.937   0.245  0.00  0.00    +0.030 A 
ATOM      3  C   UNL     1      -0.971  -6.351   0.312  0.00  0.00    +0.018 A 
ATOM      4  C   UNL     1      -2.115  -7.138   0.109  0.00  0.00    +0.015 A 
ATOM      5  C   UNL     1      -2.018  -8.498   0.134  0.00  0.00    +0.046 A 
ATOM      6  C   UNL     1      -0.789  -9.115   0.367  0.00  0.00    +0.120 A 
ATOM      7  C   UNL     1       0.349  -8.354   0.589  0.00  0.00    +0.092 A 
ATOM      8  C   UNL     1       0.266  -6.972   0.575  0.00  0.00    +0.141 A 
ATOM      9  O   UNL     1       1.363  -6.219   0.833  0.00  0.00    -0.438 OA
ATOM     10  C   UNL     1       1.395  -4.975   0.284  0.00  0.00    +0.212 A 
ATOM     11  N   UNL     1       2.510  -4.467  -0.195  0.00  0.00    -0.325 N 
ATOM     12  H   UNL     1       2.491  -3.629  -0.684  0.00  0.00    +0.169 HD
ENDROOT
BRANCH  11  13
ATOM     13  C   UNL     1       3.696  -5.120  -0.005  0.00  0.00    +0.042 A 
ATOM     14  C   UNL     1       4.013  -5.649   1.249  0.00  0.00    +0.027 A 
ATOM     15  C   UNL     1       5.211  -6.307   1.434  0.00  0.00    +0.030 A 
ATOM     16  C   UNL     1       6.098  -6.444   0.381  0.00  0.00    +0.105 A 
ATOM     17  C   UNL     1       5.792  -5.922  -0.863  0.00  0.00    +0.030 A 
ATOM     18  C   UNL     1       4.595  -5.267  -1.064  0.00  0.00    +0.027 A 
BRANCH  16  19
ATOM     19  S   UNL     1       7.627  -7.285   0.627  0.00  0.00    +0.056 S 
ATOM     20  O   UNL     1       8.520  -6.804  -0.368  0.00  0.00    -0.153 OA
ATOM     21  O   UNL     1       7.917  -7.203   2.015  0.00  0.00    -0.153 OA
BRANCH  19  22
ATOM     22  N   UNL     1       7.363  -8.886   0.293  0.00  0.00    -0.204 NA
ATOM     23  H   UNL     1       8.084  -9.433  -0.056  0.00  0.00    +0.144 HD
ATOM     24  H   UNL     1       6.488  -9.275   0.445  0.00  0.00    +0.144 HD
ENDBRANCH  19  22
ENDBRANCH  16  19
ENDBRANCH  11  13
BRANCH   1  26
ATOM     25  N   UNL     1       1.284  -2.061   0.336  0.00  0.00    -0.280 N 
ATOM     26  C   UNL     1       0.127  -2.741   0.215  0.00  0.00    +0.253 C 
ATOM     27  O   UNL     1      -0.921  -2.139   0.078  0.00  0.00    -0.270 OA
ATOM     28  H   UNL     1       2.125  -2.541   0.398  0.00  0.00    +0.155 HD
BRANCH  25  33
ATOM     29  C   UNL     1       0.181   1.419  -0.106  0.00  0.00    +0.002 A 
ATOM     30  C   UNL     1       1.251   2.104   0.441  0.00  0.00    +0.001 A 
ATOM     31  C   UNL     1       2.331   1.411   0.954  0.00  0.00    +0.017 A 
ATOM     32  C   UNL     1       2.346   0.029   0.920  0.00  0.00    +0.039 A 
ATOM     33  C   UNL     1       1.273  -0.662   0.372  0.00  0.00    +0.048 A 
ATOM     34  C   UNL     1       0.189   0.038  -0.142  0.00  0.00    +0.024 A 
ATOM     35 BR   UNL     1       3.825  -0.919   1.621  0.00  0.00    -0.048 Br
ENDBRANCH  25  33
ENDBRANCH   1  26
BRANCH   6  36
ATOM     36  O   UNL     1      -0.707 -10.470   0.377  0.00  0.00    -0.507 OA
ATOM     37  H   UNL     1      -0.517 -10.858  -0.488  0.00  0.00    +0.292 HD
ENDBRANCH   6  36
TORSDOF 6
