REMARK  Name = ZINC67173887
REMARK  2 active torsions:
REMARK  status: ('A' for Active; 'I' for Inactive)
REMARK    1  A    between atoms: C_3  and  C_9
REMARK    2  A    between atoms: C_13  and  C_15
REMARK                            x       y       z     vdW  Elec       q    Type
REMARK                         _______ _______ _______ _____ _____    ______ ____
ROOT
ATOM      1  C   UNL     1       3.658   2.172  -0.022  0.00  0.00    +0.075 A 
ATOM      2  C   UNL     1       4.870   1.488   0.063  0.00  0.00    +0.028 A 
ATOM      3  C   UNL     1       6.055   2.205   0.054  0.00  0.00    +0.004 A 
ATOM      4  C   UNL     1       5.994   3.586  -0.039  0.00  0.00    +0.031 A 
ATOM      5  C   UNL     1       4.750   4.209  -0.120  0.00  0.00    +0.109 A 
ATOM      6  N   UNL     1       3.633   3.494  -0.115  0.00  0.00    -0.243 NA
ENDROOT
BRANCH   1   9
ATOM      7  C   UNL     1       1.213  -0.684  -0.022  0.00  0.00    +0.004 A 
ATOM      8  C   UNL     1       2.401   0.019  -0.030  0.00  0.00    +0.013 A 
ATOM      9  C   UNL     1       2.384   1.412  -0.013  0.00  0.00    +0.038 A 
ATOM     10  C   UNL     1       1.165   2.090   0.013  0.00  0.00    +0.168 A 
ATOM     11  C   UNL     1      -0.020   1.374   0.021  0.00  0.00    +0.159 A 
ATOM     12  C   UNL     1       0.006  -0.010   0.004  0.00  0.00    +0.041 A 
ATOM     13  F   UNL     1      -1.203   2.027   0.046  0.00  0.00    -0.202 F 
ATOM     14  F   UNL     1       1.141   3.441   0.030  0.00  0.00    -0.202 F 
ENDBRANCH   1   9
BRANCH   5  15
ATOM     15  C   UNL     1       4.674   5.687  -0.220  0.00  0.00    +0.189 A 
ATOM     16  N   UNL     1       3.509   6.307  -0.294  0.00  0.00    -0.203 NA
ATOM     17  C   UNL     1       3.520   7.625  -0.380  0.00  0.00    +0.176 A 
ATOM     18  S   UNL     1       5.162   7.983  -0.357  0.00  0.00    +0.049 S 
ATOM     19  N   UNL     1       5.766   6.424  -0.232  0.00  0.00    -0.186 NA
ATOM     20  N   UNL     1       2.448   8.494  -0.467  0.00  0.00    -0.336 N 
ATOM     21  H   UNL     1       1.542   8.148  -0.470  0.00  0.00    +0.144 HD
ATOM     22  H   UNL     1       2.602   9.450  -0.526  0.00  0.00    +0.144 HD
ENDBRANCH   5  15
TORSDOF 2
