REMARK  Name = ZINC21265759
REMARK  10 active torsions:
REMARK  status: ('A' for Active; 'I' for Inactive)
REMARK    1  A    between atoms: C_1  and  C_2
REMARK    2  A    between atoms: C_8  and  C_12
REMARK    3  A    between atoms: C_12  and  C_13
REMARK    4  A    between atoms: C_13  and  N_14
REMARK    5  A    between atoms: N_14  and  C_15
REMARK    6  A    between atoms: C_15  and  C_16
REMARK    7  A    between atoms: N_18  and  C_19
REMARK    8  A    between atoms: C_21  and  N_27
REMARK    9  A    between atoms: C_24  and  O_25
REMARK   10  A    between atoms: O_25  and  C_26
REMARK                            x       y       z     vdW  Elec       q    Type
REMARK                         _______ _______ _______ _____ _____    ______ ____
ROOT
ATOM      1  N   UNL     1       6.859   1.708  -1.492  0.00  0.00    +0.385 N 
ATOM      2  H   UNL     1       7.388   2.566  -1.052  0.00  0.00    -0.085 HD
ATOM      3  H   UNL     1       7.076   0.803  -0.906  0.00  0.00    -0.085 HD
ENDROOT
BRANCH   1   4
ATOM      4  C   UNL     1       5.413   1.966  -1.479  0.00  0.00    -0.077 C 
BRANCH   4   5
ATOM      5  C   UNL     1       4.945   2.169  -0.036  0.00  0.00    +0.018 C 
BRANCH   5  13
ATOM      6  C   UNL     1       1.171  -2.141  -0.034  0.00  0.00    +0.044 C 
ATOM      7  C   UNL     1       1.188  -0.635  -0.025  0.00  0.00    -0.050 A 
ATOM      8  C   UNL     1      -0.011   0.067  -0.010  0.00  0.00    +0.005 A 
ATOM      9  C   UNL     1      -0.018   1.444  -0.001  0.00  0.00    +0.026 A 
ATOM     10  C   UNL     1       1.185   2.142  -0.006  0.00  0.00    +0.047 A 
ATOM     11  C   UNL     1       2.397   1.427  -0.021  0.00  0.00    +0.003 A 
ATOM     12  C   UNL     1       2.381   0.030  -0.030  0.00  0.00    +0.013 A 
ATOM     13  C   UNL     1       3.461   2.433  -0.023  0.00  0.00    -0.024 A 
ATOM     14  C   UNL     1       2.864   3.635  -0.009  0.00  0.00    +0.087 A 
ATOM     15  N   UNL     1       1.505   3.481   0.001  0.00  0.00    -0.360 N 
ATOM     16  H   UNL     1       0.706   4.237   0.013  0.00  0.00    +0.165 HD
ENDBRANCH   5  13
ENDBRANCH   4   5
ENDBRANCH   1   4
BRANCH   1  17
ATOM     17  C   UNL     1       7.345   1.508  -2.864  0.00  0.00    +0.015 C 
BRANCH  17  18
ATOM     18  C   UNL     1       8.829   1.247  -2.838  0.00  0.00    +0.200 C 
ATOM     19  O   UNL     1       9.424   1.229  -1.780  0.00  0.00    -0.278 OA
ATOM     20  N   UNL     1       9.496   1.033  -3.989  0.00  0.00    -0.284 N 
ATOM     21  H   UNL     1       8.945   0.958  -4.938  0.00  0.00    +0.155 HD
BRANCH  20  22
ATOM     22  C   UNL     1      10.892   0.905  -3.977  0.00  0.00    +0.078 A 
ATOM     23  C   UNL     1      11.634   1.482  -2.957  0.00  0.00    +0.059 A 
ATOM     24  C   UNL     1      13.010   1.350  -2.945  0.00  0.00    +0.128 A 
ATOM     25  C   UNL     1      13.650   0.654  -3.953  0.00  0.00    +0.036 A 
ATOM     26  C   UNL     1      12.918   0.082  -4.976  0.00  0.00    +0.050 A 
ATOM     27  C   UNL     1      11.538   0.204  -4.993  0.00  0.00    +0.141 A 
BRANCH  24  28
ATOM     28  N   UNL     1      13.800   1.962  -1.852  0.00  0.00    +0.056 N 
ATOM     29  O   UNL     1      15.013   1.851  -1.843  0.00  0.00    -0.126 OA
ATOM     30  O   UNL     1      13.237   2.575  -0.963  0.00  0.00    -0.126 OA
ENDBRANCH  24  28
BRANCH  27  31
ATOM     31  O   UNL     1      10.816  -0.358  -5.998  0.00  0.00    -0.493 OA
ATOM     32  C   UNL     1      11.545  -1.062  -7.006  0.00  0.00    +0.277 C 
ENDBRANCH  27  31
ENDBRANCH  20  22
ENDBRANCH  17  18
ENDBRANCH   1  17
TORSDOF 8
