REMARK  Name = ZINC20676578
REMARK  6 active torsions:
REMARK  status: ('A' for Active; 'I' for Inactive)
REMARK    1  A    between atoms: C_3  and  N_8
REMARK    2  A    between atoms: N_11  and  C_14
REMARK    3  A    between atoms: C_14  and  C_15
REMARK    4  A    between atoms: C_23  and  C_25
REMARK    5  A    between atoms: C_25  and  C_26
REMARK    6  A    between atoms: N_28  and  C_29
REMARK                            x       y       z     vdW  Elec       q    Type
REMARK                         _______ _______ _______ _____ _____    ______ ____
ROOT
ATOM      1  C   UNL     1       5.963   5.515   2.172  0.00  0.00    +0.200 C 
ATOM      2  O   UNL     1       5.796   4.607   2.959  0.00  0.00    -0.278 OA
ATOM      3  N   UNL     1       7.128   6.194   2.164  0.00  0.00    -0.289 N 
ATOM      4  C   UNL     1       7.340   7.341   1.266  0.00  0.00    +0.127 C 
ATOM      5  C   UNL     1       7.597   8.580   2.135  0.00  0.00    +0.123 C 
ATOM      6  N   UNL     1       8.569   8.285   3.179  0.00  0.00    -0.312 N 
ATOM      7  C   UNL     1       8.844   7.062   3.633  0.00  0.00    +0.234 C 
ATOM      8  O   UNL     1       9.616   6.950   4.562  0.00  0.00    -0.274 OA
ATOM      9  C   UNL     1       8.240   5.815   3.048  0.00  0.00    +0.170 C 
ATOM     10  H   UNL     1       9.136   9.102   3.649  0.00  0.00    +0.149 HD
ENDROOT
BRANCH   1  11
ATOM     11  C   UNL     1       4.870   5.883   1.203  0.00  0.00    +0.019 C 
BRANCH  11  15
ATOM     12  N   UNL     1       0.899   4.713   2.044  0.00  0.00    -0.333 N 
ATOM     13  C   UNL     1       1.464   4.344   0.739  0.00  0.00    +0.086 C 
ATOM     14  C   UNL     1       2.665   5.242   0.433  0.00  0.00    -0.059 C 
ATOM     15  N   UNL     1       3.667   5.094   1.498  0.00  0.00    +0.387 N 
ATOM     16  C   UNL     1       3.102   5.463   2.804  0.00  0.00    -0.059 C 
ATOM     17  C   UNL     1       1.901   4.565   3.109  0.00  0.00    +0.086 C 
ATOM     18  H   UNL     1       3.962   4.035   1.543  0.00  0.00    -0.081 HD
BRANCH  12  21
ATOM     19  C   UNL     1      -2.445   3.222   1.720  0.00  0.00    +0.003 A 
ATOM     20  C   UNL     1      -1.315   3.966   1.440  0.00  0.00    +0.023 A 
ATOM     21  C   UNL     1      -0.245   3.962   2.325  0.00  0.00    +0.031 A 
ATOM     22  C   UNL     1      -0.315   3.210   3.491  0.00  0.00    +0.043 A 
ATOM     23  C   UNL     1      -1.448   2.469   3.767  0.00  0.00    +0.043 A 
ATOM     24  C   UNL     1      -2.515   2.480   2.884  0.00  0.00    +0.020 A 
ATOM     25 CL   UNL     1      -1.537   1.529   5.223  0.00  0.00    -0.083 Cl
ENDBRANCH  12  21
ENDBRANCH  11  15
ENDBRANCH   1  11
BRANCH   9  26
ATOM     26  C   UNL     1       7.718   4.921   4.175  0.00  0.00    +0.128 C 
BRANCH  26  27
ATOM     27  C   UNL     1       6.670   5.665   4.962  0.00  0.00    +0.219 C 
ATOM     28  O   UNL     1       6.324   6.774   4.613  0.00  0.00    -0.275 OA
ATOM     29  N   UNL     1       6.118   5.098   6.053  0.00  0.00    -0.285 N 
ATOM     30  H   UNL     1       6.483   4.124   6.411  0.00  0.00    +0.155 HD
BRANCH  29  31
ATOM     31  C   UNL     1       5.081   5.749   6.731  0.00  0.00    +0.033 A 
ATOM     32  C   UNL     1       5.080   7.134   6.837  0.00  0.00    +0.025 A 
ATOM     33  C   UNL     1       4.053   7.774   7.501  0.00  0.00    +0.022 A 
ATOM     34  C   UNL     1       3.030   7.036   8.071  0.00  0.00    +0.041 A 
ATOM     35  C   UNL     1       3.031   5.656   7.971  0.00  0.00    +0.022 A 
ATOM     36  C   UNL     1       4.053   5.011   7.303  0.00  0.00    +0.025 A 
ATOM     37 CL   UNL     1       1.744   7.843   8.912  0.00  0.00    -0.084 Cl
ENDBRANCH  29  31
ENDBRANCH  26  27
ENDBRANCH   9  26
TORSDOF 6
