REMARK  Name = ZINC35844781
REMARK  14 active torsions:
REMARK  status: ('A' for Active; 'I' for Inactive)
REMARK    1  A    between atoms: C_1  and  C_2
REMARK    2  A    between atoms: C_2  and  C_3
REMARK    3  A    between atoms: C_3  and  C_5
REMARK    4  A    between atoms: C_3  and  N_6
REMARK    5  A    between atoms: N_6  and  C_7
REMARK    6  A    between atoms: N_6  and  C_15
REMARK    7  A    between atoms: C_7  and  C_8
REMARK    8  A    between atoms: C_15  and  C_16
REMARK    9  A    between atoms: N_18  and  C_19
REMARK   10  A    between atoms: N_18  and  C_27
REMARK   11  A    between atoms: C_19  and  C_20
REMARK   12  A    between atoms: C_20  and  C_21
REMARK   13  A    between atoms: C_27  and  C_28
REMARK   14  A    between atoms: C_31  and  C_33
REMARK                            x       y       z     vdW  Elec       q    Type
REMARK                         _______ _______ _______ _____ _____    ______ ____
ROOT
ATOM      1  C   UNL     1       0.182  -1.133  -4.291  0.00  0.00    +0.199 C 
ATOM      2  O   UNL     1      -0.339  -2.035  -3.669  0.00  0.00    -0.278 OA
ATOM      3  N   UNL     1       0.641  -1.353  -5.539  0.00  0.00    -0.295 N 
ENDROOT
BRANCH   1   4
ATOM      4  C   UNL     1       0.317   0.232  -3.668  0.00  0.00    +0.020 C 
BRANCH   4   5
ATOM      5  N   UNL     1      -0.101   0.172  -2.261  0.00  0.00    +0.390 N 
ATOM      6  H   UNL     1      -0.862  -0.484  -2.164  0.00  0.00    -0.080 HD
BRANCH   5   7
ATOM      7  C   UNL     1       1.030  -0.264  -1.432  0.00  0.00    -0.071 C 
ATOM      8  C   UNL     1       2.240   0.632  -1.708  0.00  0.00    -0.013 C 
BRANCH   7  10
ATOM      9  C   UNL     1       0.238  -2.631  -1.330  0.00  0.00    +0.002 C 
ATOM     10  C   UNL     1       1.381  -1.714  -1.770  0.00  0.00    -0.019 C 
ENDBRANCH   7  10
ENDBRANCH   5   7
BRANCH   5  11
ATOM     11  C   UNL     1      -0.544   1.503  -1.825  0.00  0.00    -0.039 C 
BRANCH  11  12
ATOM     12  C   UNL     1      -1.119   1.410  -0.435  0.00  0.00    -0.029 A 
ATOM     13  C   UNL     1      -2.481   1.253  -0.259  0.00  0.00    +0.004 A 
ATOM     14  C   UNL     1      -3.009   1.168   1.016  0.00  0.00    +0.000 A 
ATOM     15  C   UNL     1      -2.175   1.240   2.117  0.00  0.00    +0.003 A 
ATOM     16  C   UNL     1      -0.813   1.397   1.943  0.00  0.00    +0.038 A 
ATOM     17  C   UNL     1      -0.283   1.477   0.666  0.00  0.00    +0.125 A 
ATOM     18  F   UNL     1       1.049   1.625   0.496  0.00  0.00    -0.205 F 
ENDBRANCH  11  12
ENDBRANCH   5  11
ENDBRANCH   4   5
ENDBRANCH   1   4
BRANCH   3  19
ATOM     19  C   UNL     1       0.510  -2.680  -6.144  0.00  0.00    +0.113 C 
BRANCH  19  20
ATOM     20  C   UNL     1      -0.821  -2.770  -6.893  0.00  0.00    +0.054 C 
BRANCH  20  21
ATOM     21  C   UNL     1      -0.956  -4.136  -7.516  0.00  0.00    -0.046 A 
ATOM     22  C   UNL     1      -0.481  -4.362  -8.794  0.00  0.00    +0.004 A 
ATOM     23  C   UNL     1      -0.604  -5.615  -9.366  0.00  0.00    +0.000 A 
ATOM     24  C   UNL     1      -1.203  -6.641  -8.659  0.00  0.00    +0.000 A 
ATOM     25  C   UNL     1      -1.678  -6.415  -7.381  0.00  0.00    +0.000 A 
ATOM     26  C   UNL     1      -1.550  -5.163  -6.808  0.00  0.00    +0.004 A 
ENDBRANCH  20  21
ENDBRANCH  19  20
ENDBRANCH   3  19
BRANCH   3  27
ATOM     27  C   UNL     1       1.271  -0.264  -6.290  0.00  0.00    +0.181 C 
BRANCH  27  28
ATOM     28  C   UNL     1       2.753  -0.258  -6.018  0.00  0.00    +0.122 A 
ATOM     29  C   UNL     1       3.685  -0.923  -6.723  0.00  0.00    +0.046 A 
ATOM     30  C   UNL     1       4.934  -0.636  -6.124  0.00  0.00    +0.045 A 
ATOM     31  C   UNL     1       4.690   0.188  -5.090  0.00  0.00    +0.102 A 
ATOM     32  O   UNL     1       3.368   0.418  -5.033  0.00  0.00    -0.463 OA
ATOM     33  C   UNL     1       5.724   0.760  -4.156  0.00  0.00    +0.086 C 
ENDBRANCH  27  28
ENDBRANCH   3  27
TORSDOF 11
