REMARK  Name = ZINC02044286
REMARK  4 active torsions:
REMARK  status: ('A' for Active; 'I' for Inactive)
REMARK    1  A    between atoms: C_4  and  C_7
REMARK    2  A    between atoms: C_7  and  O_26
REMARK    3  A    between atoms: N_16  and  C_17
REMARK    4  A    between atoms: C_21  and  N_23
REMARK                            x       y       z     vdW  Elec       q    Type
REMARK                         _______ _______ _______ _____ _____    ______ ____
ROOT
ATOM      1  C   UNL     1      -2.514   0.980   0.019  0.00  0.00    +0.193 C 
ATOM      2  C   UNL     1      -2.981   0.755   1.436  0.00  0.00    +0.019 A 
ATOM      3  C   UNL     1      -2.435   0.104   2.517  0.00  0.00    +0.009 A 
ATOM      4  C   UNL     1      -3.120   0.067   3.720  0.00  0.00    +0.000 A 
ATOM      5  C   UNL     1      -4.354   0.683   3.838  0.00  0.00    +0.001 A 
ATOM      6  C   UNL     1      -4.911   1.339   2.760  0.00  0.00    +0.013 A 
ATOM      7  C   UNL     1      -4.226   1.381   1.544  0.00  0.00    +0.045 A 
ATOM      8  C   UNL     1      -4.553   1.989   0.240  0.00  0.00    +0.254 C 
ATOM      9  O   UNL     1      -5.570   2.610  -0.001  0.00  0.00    -0.270 OA
ATOM     10  N   UNL     1      -3.566   1.759  -0.642  0.00  0.00    -0.230 N 
ENDROOT
BRANCH   1  14
ATOM     11  C   UNL     1       1.156   3.165   0.008  0.00  0.00    +0.000 A 
ATOM     12  C   UNL     1       1.175   1.783   0.000  0.00  0.00    +0.000 A 
ATOM     13  C   UNL     1      -0.013   1.076   0.008  0.00  0.00    +0.008 A 
ATOM     14  C   UNL     1      -1.219   1.751   0.017  0.00  0.00    +0.007 A 
ATOM     15  C   UNL     1      -1.238   3.133   0.029  0.00  0.00    +0.008 A 
ATOM     16  C   UNL     1      -0.050   3.840   0.023  0.00  0.00    +0.000 A 
ENDBRANCH   1  14
BRANCH  10  17
ATOM     17  C   UNL     1      -3.545   2.192  -1.972  0.00  0.00    +0.042 A 
ATOM     18  C   UNL     1      -2.458   1.893  -2.784  0.00  0.00    +0.024 A 
ATOM     19  C   UNL     1      -2.443   2.317  -4.098  0.00  0.00    +0.004 A 
ATOM     20  C   UNL     1      -3.503   3.049  -4.603  0.00  0.00    +0.033 A 
ATOM     21  C   UNL     1      -4.584   3.352  -3.796  0.00  0.00    +0.128 A 
ATOM     22  C   UNL     1      -4.608   2.926  -2.482  0.00  0.00    +0.056 A 
BRANCH  21  23
ATOM     23  N   UNL     1      -5.716   4.135  -4.340  0.00  0.00    +0.056 N 
ATOM     24  O   UNL     1      -6.669   4.402  -3.629  0.00  0.00    -0.126 OA
ATOM     25  O   UNL     1      -5.696   4.511  -5.498  0.00  0.00    -0.126 OA
ENDBRANCH  21  23
ENDBRANCH  10  17
BRANCH   1  26
ATOM     26  O   UNL     1      -2.339  -0.274  -0.645  0.00  0.00    -0.364 OA
ATOM     27  H   UNL     1      -1.665  -0.840  -0.245  0.00  0.00    +0.213 HD
ENDBRANCH   1  26
TORSDOF 4
