REMARK  Name = ZINC08733764
REMARK  6 active torsions:
REMARK  status: ('A' for Active; 'I' for Inactive)
REMARK    1  A    between atoms: C_4  and  C_7
REMARK    2  A    between atoms: N_9  and  C_13
REMARK    3  A    between atoms: C_13  and  C_14
REMARK    4  A    between atoms: N_16  and  C_17
REMARK    5  A    between atoms: C_17  and  C_18
REMARK    6  A    between atoms: C_18  and  N_59
REMARK                            x       y       z     vdW  Elec       q    Type
REMARK                         _______ _______ _______ _____ _____    ______ ____
ROOT
ATOM      1  C   UNL     1       7.305   5.198  -4.394  0.00  0.00    +0.235 C 
ATOM      2  O   UNL     1       6.211   4.748  -4.125  0.00  0.00    -0.274 OA
ATOM      3  N   UNL     1       7.644   6.436  -3.983  0.00  0.00    -0.315 N 
ATOM      4  H   UNL     1       8.518   6.796  -4.199  0.00  0.00    +0.149 HD
ENDROOT
BRANCH   1   5
ATOM      5  C   UNL     1       8.285   4.372  -5.186  0.00  0.00    +0.246 C 
BRANCH   5   8
ATOM      6  C   UNL     1       7.093   0.977  -5.364  0.00  0.00    +0.250 A 
ATOM      7  N   UNL     1       7.753   1.907  -4.737  0.00  0.00    -0.126 NA
ATOM      8  N   UNL     1       7.684   3.076  -5.509  0.00  0.00    -0.186 N 
ATOM      9  C   UNL     1       6.956   2.777  -6.606  0.00  0.00    +0.439 A 
ATOM     10  O   UNL     1       6.678   3.538  -7.514  0.00  0.00    -0.221 OA
ATOM     11  O   UNL     1       6.601   1.485  -6.515  0.00  0.00    -0.388 OA
BRANCH   6  15
ATOM     12  C   UNL     1       6.584  -3.020  -4.019  0.00  0.00    +0.000 A 
ATOM     13  C   UNL     1       7.311  -2.124  -3.256  0.00  0.00    +0.001 A 
ATOM     14  C   UNL     1       7.480  -0.824  -3.687  0.00  0.00    +0.013 A 
ATOM     15  C   UNL     1       6.915  -0.415  -4.896  0.00  0.00    +0.039 A 
ATOM     16  C   UNL     1       6.183  -1.323  -5.661  0.00  0.00    +0.013 A 
ATOM     17  C   UNL     1       6.022  -2.620  -5.219  0.00  0.00    +0.001 A 
ENDBRANCH   6  15
ENDBRANCH   5   8
ENDBRANCH   1   5
BRANCH   3  18
ATOM     18  C   UNL     1       6.691   7.239  -3.213  0.00  0.00    +0.092 C 
BRANCH  18  19
ATOM     19  C   UNL     1       7.283   8.626  -2.956  0.00  0.00    -0.050 C 
ATOM     20  C   UNL     1       6.348   9.417  -2.038  0.00  0.00    -0.010 C 
ATOM     21  C   UNL     1       4.980   9.563  -2.707  0.00  0.00    -0.001 C 
ATOM     22  C   UNL     1       5.138  10.304  -4.036  0.00  0.00    -0.000 C 
ATOM     23  C   UNL     1       6.073   9.513  -4.954  0.00  0.00    -0.001 C 
ATOM     24  C   UNL     1       7.441   9.367  -4.285  0.00  0.00    -0.010 C 
BRANCH  19  30
ATOM     25  C   UNL     1       8.494   7.717  -1.067  0.00  0.00    -0.078 C 
ATOM     26  C   UNL     1       9.894   7.467  -0.503  0.00  0.00    -0.019 C 
ATOM     27  C   UNL     1      10.581   8.810  -0.240  0.00  0.00    -0.004 C 
ATOM     28  C   UNL     1      10.631   9.612  -1.544  0.00  0.00    -0.019 C 
ATOM     29  C   UNL     1       9.209   9.799  -2.078  0.00  0.00    -0.078 C 
ATOM     30  N   UNL     1       8.614   8.471  -2.333  0.00  0.00    +0.384 N 
ATOM     31  H   UNL     1       9.223   7.950  -2.974  0.00  0.00    -0.081 HD
ENDBRANCH  19  30
ENDBRANCH  18  19
ENDBRANCH   3  18
TORSDOF 6
