REMARK  Name = ZINC34747918
REMARK  8 active torsions:
REMARK  status: ('A' for Active; 'I' for Inactive)
REMARK    1  A    between atoms: C_1  and  C_2
REMARK    2  A    between atoms: C_5  and  C_37
REMARK    3  A    between atoms: C_6  and  C_8
REMARK    4  A    between atoms: C_8  and  N_9
REMARK    5  A    between atoms: N_27  and  C_28
REMARK    6  A    between atoms: C_28  and  C_29
REMARK    7  A    between atoms: C_29  and  C_30
REMARK    8  A    between atoms: C_30  and  C_31
REMARK                            x       y       z     vdW  Elec       q    Type
REMARK                         _______ _______ _______ _____ _____    ______ ____
ROOT
ATOM      1  N   UNL     1       2.398  -2.981   1.912  0.00  0.00    +0.384 N 
ATOM      2  C   UNL     1       3.789  -3.446   1.857  0.00  0.00    -0.059 C 
ATOM      3  C   UNL     1       4.088  -4.305   3.090  0.00  0.00    +0.089 C 
ATOM      4  N   UNL     1       3.755  -3.527   4.293  0.00  0.00    -0.304 N 
ATOM      5  C   UNL     1       2.432  -2.886   4.359  0.00  0.00    +0.089 C 
ATOM      6  C   UNL     1       2.212  -2.094   3.067  0.00  0.00    -0.059 C 
ATOM      7  C   UNL     1       4.652  -3.404   5.325  0.00  0.00    +0.202 A 
ATOM      8  N   UNL     1       5.542  -2.433   5.297  0.00  0.00    -0.208 NA
ATOM      9  C   UNL     1       6.421  -2.291   6.284  0.00  0.00    +0.117 A 
ATOM     10  C   UNL     1       6.447  -3.154   7.388  0.00  0.00    +0.076 A 
ATOM     11  C   UNL     1       7.477  -2.873   8.402  0.00  0.00    -0.023 A 
ATOM     12  C   UNL     1       8.285  -1.826   8.174  0.00  0.00    -0.004 A 
ATOM     13  S   UNL     1       7.741  -1.155   6.619  0.00  0.00    -0.073 S 
ATOM     14  C   UNL     1       9.292  -1.633   9.276  0.00  0.00    +0.043 C 
ATOM     15  C   UNL     1       8.733  -2.454  10.459  0.00  0.00    +0.010 C 
ATOM     16  C   UNL     1       7.887  -3.516   9.730  0.00  0.00    +0.037 C 
ATOM     17  C   UNL     1       5.469  -4.197   7.393  0.00  0.00    +0.264 A 
ATOM     18  O   UNL     1       5.418  -4.994   8.315  0.00  0.00    -0.267 OA
ATOM     19  N   UNL     1       4.604  -4.284   6.365  0.00  0.00    -0.280 N 
ATOM     20  H   UNL     1       1.783  -3.777   1.998  0.00  0.00    -0.081 HD
ENDROOT
BRANCH   1  21
ATOM     21  C   UNL     1       2.079  -2.250   0.678  0.00  0.00    -0.043 C 
BRANCH  21  27
ATOM     22  C   UNL     1       4.561  -4.082  -3.262  0.00  0.00    +0.044 C 
ATOM     23  C   UNL     1       3.337  -4.067  -2.382  0.00  0.00    -0.050 A 
ATOM     24  C   UNL     1       2.280  -4.916  -2.653  0.00  0.00    +0.003 A 
ATOM     25  C   UNL     1       1.159  -4.902  -1.846  0.00  0.00    +0.004 A 
ATOM     26  C   UNL     1       1.093  -4.039  -0.768  0.00  0.00    -0.049 A 
ATOM     27  C   UNL     1       2.150  -3.191  -0.497  0.00  0.00    -0.061 A 
ATOM     28  C   UNL     1       3.274  -3.208  -1.302  0.00  0.00    +0.005 A 
ATOM     29  C   UNL     1      -0.130  -4.023   0.112  0.00  0.00    +0.044 C 
ENDBRANCH  21  27
ENDBRANCH   1  21
BRANCH  19  30
ATOM     30  C   UNL     1       3.595  -5.346   6.362  0.00  0.00    +0.128 C 
BRANCH  30  31
ATOM     31  C   UNL     1       4.206  -6.628   5.793  0.00  0.00    +0.026 C 
BRANCH  31  32
ATOM     32  C   UNL     1       3.153  -7.738   5.790  0.00  0.00    +0.037 C 
BRANCH  32  33
ATOM     33  C   UNL     1       3.755  -9.001   5.230  0.00  0.00    -0.047 A 
ATOM     34  C   UNL     1       3.696  -9.251   3.872  0.00  0.00    +0.003 A 
ATOM     35  C   UNL     1       4.248 -10.409   3.358  0.00  0.00    +0.000 A 
ATOM     36  C   UNL     1       4.860 -11.317   4.202  0.00  0.00    +0.000 A 
ATOM     37  C   UNL     1       4.920 -11.066   5.561  0.00  0.00    +0.000 A 
ATOM     38  C   UNL     1       4.371  -9.906   6.074  0.00  0.00    +0.003 A 
ENDBRANCH  32  33
ENDBRANCH  31  32
ENDBRANCH  30  31
ENDBRANCH  19  30
TORSDOF 6
