REMARK  Name = ZINC05063069
REMARK  6 active torsions:
REMARK  status: ('A' for Active; 'I' for Inactive)
REMARK    1  A    between atoms: C_1  and  C_2
REMARK    2  A    between atoms: C_4  and  C_8
REMARK    3  A    between atoms: C_5  and  C_7
REMARK    4  A    between atoms: N_10  and  N_11
REMARK    5  A    between atoms: C_12  and  C_14
REMARK    6  A    between atoms: C_14  and  C_15
REMARK                            x       y       z     vdW  Elec       q    Type
REMARK                         _______ _______ _______ _____ _____    ______ ____
ROOT
ATOM      1  N   UNL     1      -4.267  -0.185   0.020  0.00  0.00    -0.234 N 
ATOM      2  C   UNL     1      -4.580  -1.496   0.015  0.00  0.00    +0.229 C 
ATOM      3  O   UNL     1      -3.700  -2.330   0.008  0.00  0.00    -0.274 OA
ATOM      4  H   UNL     1      -4.971   0.482   0.026  0.00  0.00    +0.173 HD
ENDROOT
BRANCH   1   7
ATOM      5  C   UNL     1      -2.611   1.525   0.021  0.00  0.00    +0.263 C 
ATOM      6  O   UNL     1      -3.494   2.361   0.029  0.00  0.00    -0.269 OA
ATOM      7  N   UNL     1      -2.924   0.214   0.017  0.00  0.00    -0.230 N 
ATOM      8  H   UNL     1      -2.220  -0.453   0.011  0.00  0.00    +0.173 HD
BRANCH   5  12
ATOM      9  C   UNL     1       2.490   1.464  -0.013  0.00  0.00    +0.086 C 
ATOM     10  C   UNL     1       1.048   1.898   0.002  0.00  0.00    +0.103 A 
ATOM     11  C   UNL     1      -0.013   1.076   0.008  0.00  0.00    +0.057 A 
ATOM     12  C   UNL     1      -1.198   1.945   0.018  0.00  0.00    +0.079 A 
ATOM     13  C   UNL     1      -0.718   3.222   0.025  0.00  0.00    +0.114 A 
ATOM     14  O   UNL     1       0.618   3.170   0.013  0.00  0.00    -0.464 OA
ATOM     15  C   UNL     1      -1.551   4.477   0.040  0.00  0.00    +0.087 C 
ENDBRANCH   5  12
ENDBRANCH   1   7
BRANCH   2  16
ATOM     16  C   UNL     1      -6.025  -1.926   0.019  0.00  0.00    +0.101 C 
BRANCH  16  17
ATOM     17  C   UNL     1      -6.102  -3.454   0.013  0.00  0.00    +0.001 C 
ATOM     18  C   UNL     1      -5.635  -4.011  -1.351  0.00  0.00    +0.007 C 
ATOM     19  C   UNL     1      -6.878  -4.765  -1.916  0.00  0.00    -0.010 C 
ATOM     20  C   UNL     1      -7.019  -6.022  -1.004  0.00  0.00    +0.004 C 
ATOM     21  C   UNL     1      -7.486  -5.465   0.360  0.00  0.00    +0.004 C 
ATOM     22  C   UNL     1      -7.583  -3.924   0.144  0.00  0.00    -0.007 C 
ATOM     23  C   UNL     1      -8.039  -3.869  -1.357  0.00  0.00    +0.007 C 
ENDBRANCH  16  17
ENDBRANCH   2  16
TORSDOF 4
