REMARK  Name = ZINC65446995
REMARK  10 active torsions:
REMARK  status: ('A' for Active; 'I' for Inactive)
REMARK    1  A    between atoms: C_1  and  C_2
REMARK    2  A    between atoms: C_2  and  N_3
REMARK    3  A    between atoms: N_3  and  C_4
REMARK    4  A    between atoms: C_4  and  C_5
REMARK    5  A    between atoms: C_4  and  C_6
REMARK    6  A    between atoms: C_6  and  C_7
REMARK    7  A    between atoms: C_6  and  C_8
REMARK    8  A    between atoms: N_11  and  C_12
REMARK    9  A    between atoms: C_12  and  C_13
REMARK   10  A    between atoms: C_23  and  C_24
REMARK                            x       y       z     vdW  Elec       q    Type
REMARK                         _______ _______ _______ _____ _____    ______ ____
ROOT
ATOM      1  C   UNL     1       4.168  -0.680  -0.049  0.00  0.00    +0.141 C 
ENDROOT
BRANCH   1   2
ATOM      2  C   UNL     1       4.680  -0.339  -1.424  0.00  0.00    -0.025 A 
ATOM      3  C   UNL     1       4.730  -1.302  -2.422  0.00  0.00    +0.025 A 
ATOM      4  C   UNL     1       5.205  -0.957  -3.672  0.00  0.00    +0.113 A 
ATOM      5  N   UNL     1       5.611   0.273  -3.925  0.00  0.00    -0.238 NA
ATOM      6  C   UNL     1       5.579   1.218  -3.000  0.00  0.00    +0.139 A 
ATOM      7  C   UNL     1       5.107   0.943  -1.723  0.00  0.00    +0.052 A 
ATOM      8  N   UNL     1       6.019   2.508  -3.313  0.00  0.00    -0.288 N 
ATOM      9  C   UNL     1       6.053   3.587  -2.466  0.00  0.00    +0.114 A 
ATOM     10  C   UNL     1       6.543   4.622  -3.173  0.00  0.00    +0.131 A 
ATOM     11  N   UNL     1       6.803   4.195  -4.418  0.00  0.00    -0.241 NA
ATOM     12  C   UNL     1       6.499   2.930  -4.513  0.00  0.00    +0.112 A 
ATOM     13  C   UNL     1       6.651   2.079  -5.748  0.00  0.00    +0.086 C 
ENDBRANCH   1   2
BRANCH   1  17
ATOM     14  N   UNL     1       0.711  -0.489   1.189  0.00  0.00    -0.283 N 
ATOM     15  C   UNL     1       2.042  -0.696   1.142  0.00  0.00    +0.303 C 
ATOM     16  O   UNL     1       2.630  -1.099   2.127  0.00  0.00    -0.253 OA
ATOM     17  N   UNL     1       2.721  -0.456   0.003  0.00  0.00    -0.295 N 
ATOM     18  H   UNL     1       2.252  -0.134  -0.783  0.00  0.00    +0.151 HD
BRANCH  14  20
ATOM     19  C   UNL     1      -0.019   1.526   0.010  0.00  0.00    +0.024 C 
ATOM     20  C   UNL     1       0.002  -0.004   0.002  0.00  0.00    +0.106 C 
ENDBRANCH  14  20
BRANCH  14  21
ATOM     21  C   UNL     1      -0.028  -0.750   2.427  0.00  0.00    +0.077 C 
ATOM     22  C   UNL     1      -0.702   0.539   2.900  0.00  0.00    +0.028 C 
BRANCH  21  23
ATOM     23  C   UNL     1      -1.093  -1.818   2.170  0.00  0.00    +0.003 C 
ATOM     24  C   UNL     1      -0.419  -3.107   1.697  0.00  0.00    +0.009 C 
ATOM     25  C   UNL     1      -1.864  -2.091   3.463  0.00  0.00    +0.009 C 
ENDBRANCH  21  23
ENDBRANCH  14  21
ENDBRANCH   1  17
TORSDOF 5
