REMARK  Name = ZINC36006137
REMARK  7 active torsions:
REMARK  status: ('A' for Active; 'I' for Inactive)
REMARK    1  A    between atoms: C_1  and  C_2
REMARK    2  A    between atoms: C_2  and  C_3
REMARK    3  A    between atoms: C_7  and  C_18
REMARK    4  A    between atoms: N_9  and  C_12
REMARK    5  A    between atoms: N_19  and  C_20
REMARK    6  A    between atoms: C_23  and  N_26
REMARK    7  A    between atoms: C_27  and  C_29
REMARK                            x       y       z     vdW  Elec       q    Type
REMARK                         _______ _______ _______ _____ _____    ______ ____
ROOT
ATOM      1  C   UNL     1      -1.777  -0.067  -0.070  0.00  0.00    +0.133 A 
ATOM      2  N   UNL     1      -2.433  -0.215   1.068  0.00  0.00    -0.217 NA
ATOM      3  C   UNL     1      -3.617  -0.817   1.106  0.00  0.00    +0.134 A 
ATOM      4  C   UNL     1      -4.163  -1.297  -0.100  0.00  0.00    +0.082 A 
ATOM      5  C   UNL     1      -5.354  -1.968  -0.454  0.00  0.00    +0.073 A 
ATOM      6  N   UNL     1      -5.345  -2.176  -1.740  0.00  0.00    -0.169 NA
ATOM      7  N   UNL     1      -4.166  -1.662  -2.294  0.00  0.00    -0.214 N 
ATOM      8  C   UNL     1      -3.425  -1.114  -1.286  0.00  0.00    +0.169 A 
ATOM      9  N   UNL     1      -2.248  -0.494  -1.221  0.00  0.00    -0.212 NA
ATOM     10  C   UNL     1      -6.450  -2.374   0.497  0.00  0.00    +0.068 C 
ATOM     11  N   UNL     1      -4.295  -0.969   2.299  0.00  0.00    -0.326 N 
ATOM     12  H   UNL     1      -5.191  -1.340   2.304  0.00  0.00    +0.148 HD
ENDROOT
BRANCH   7  13
ATOM     13  C   UNL     1      -3.808  -1.703  -3.647  0.00  0.00    +0.068 A 
ATOM     14  C   UNL     1      -3.096  -0.653  -4.211  0.00  0.00    +0.028 A 
ATOM     15  C   UNL     1      -2.745  -0.697  -5.546  0.00  0.00    +0.002 A 
ATOM     16  C   UNL     1      -3.102  -1.784  -6.321  0.00  0.00    +0.000 A 
ATOM     17  C   UNL     1      -3.812  -2.832  -5.763  0.00  0.00    +0.002 A 
ATOM     18  C   UNL     1      -4.161  -2.797  -4.427  0.00  0.00    +0.028 A 
ENDBRANCH   7  13
BRANCH  11  19
ATOM     19  C   UNL     1      -3.662  -0.569   3.558  0.00  0.00    +0.072 C 
ATOM     20  C   UNL     1      -2.790  -1.715   4.077  0.00  0.00    +0.024 C 
ATOM     21  C   UNL     1      -2.129  -1.297   5.392  0.00  0.00    +0.024 C 
ATOM     22  C   UNL     1      -3.209  -0.970   6.425  0.00  0.00    +0.073 C 
ATOM     23  C   UNL     1      -4.080   0.176   5.906  0.00  0.00    +0.024 C 
ATOM     24  C   UNL     1      -4.742  -0.241   4.591  0.00  0.00    +0.024 C 
BRANCH  22  25
ATOM     25  N   UNL     1      -2.575  -0.570   7.684  0.00  0.00    -0.312 N 
ATOM     26  C   UNL     1      -3.237  -0.718   8.848  0.00  0.00    +0.216 C 
ATOM     27  O   UNL     1      -4.357  -1.182   8.854  0.00  0.00    -0.276 OA
ATOM     28  H   UNL     1      -1.679  -0.198   7.679  0.00  0.00    +0.149 HD
BRANCH  26  29
ATOM     29  C   UNL     1      -2.585  -0.306  10.143  0.00  0.00    +0.075 C 
ATOM     30  C   UNL     1      -2.202  -1.416  11.125  0.00  0.00    +0.013 C 
ATOM     31  C   UNL     1      -3.389  -0.499  11.431  0.00  0.00    +0.013 C 
ENDBRANCH  26  29
ENDBRANCH  22  25
ENDBRANCH  11  19
BRANCH   1  33
ATOM     32  C   UNL     1      -0.639   2.129  -0.244  0.00  0.00    +0.012 C 
ATOM     33  C   UNL     1      -0.439   0.625  -0.048  0.00  0.00    +0.073 C 
ENDBRANCH   1  33
TORSDOF 5
