REMARK  Name = ZINC43631397
REMARK  5 active torsions:
REMARK  status: ('A' for Active; 'I' for Inactive)
REMARK    1  A    between atoms: C_5  and  C_7
REMARK    2  A    between atoms: C_14  and  C_34
REMARK    3  A    between atoms: C_15  and  C_18
REMARK    4  A    between atoms: N_20  and  C_21
REMARK    5  A    between atoms: C_21  and  C_22
REMARK                            x       y       z     vdW  Elec       q    Type
REMARK                         _______ _______ _______ _____ _____    ______ ____
ROOT
ATOM      1  C   UNL     1       1.251  -2.273  -0.904  0.00  0.00    +0.079 A 
ATOM      2  C   UNL     1       0.058  -2.979  -0.723  0.00  0.00    +0.048 A 
ATOM      3  C   UNL     1       0.132  -4.314  -0.366  0.00  0.00    +0.117 A 
ATOM      4  N   UNL     1       1.320  -4.877  -0.207  0.00  0.00    -0.219 NA
ATOM      5  C   UNL     1       2.432  -4.183  -0.385  0.00  0.00    +0.252 A 
ATOM      6  N   UNL     1       2.408  -2.907  -0.732  0.00  0.00    -0.211 NA
ATOM      7  N   UNL     1       3.663  -4.815  -0.208  0.00  0.00    -0.201 N 
ATOM      8  C   UNL     1       3.847  -6.129   0.027  0.00  0.00    +0.063 A 
ATOM      9  C   UNL     1       5.205  -6.341   0.139  0.00  0.00    +0.078 A 
ATOM     10  C   UNL     1       5.840  -5.090  -0.039  0.00  0.00    +0.148 A 
ATOM     11  N   UNL     1       4.916  -4.194  -0.249  0.00  0.00    -0.171 NA
ENDROOT
BRANCH   1  16
ATOM     12  C   UNL     1      -0.007   1.148  -1.825  0.00  0.00    +0.001 A 
ATOM     13  C   UNL     1       1.181   1.834  -2.006  0.00  0.00    +0.003 A 
ATOM     14  C   UNL     1       2.392   1.191  -1.830  0.00  0.00    +0.039 A 
ATOM     15  C   UNL     1       2.422  -0.144  -1.472  0.00  0.00    +0.133 A 
ATOM     16  C   UNL     1       1.227  -0.841  -1.288  0.00  0.00    +0.036 A 
ATOM     17  C   UNL     1       0.010  -0.185  -1.467  0.00  0.00    +0.013 A 
ATOM     18  F   UNL     1       3.606  -0.773  -1.301  0.00  0.00    -0.205 F 
ENDBRANCH   1  16
BRANCH   9  19
ATOM     19  C   UNL     1       5.871  -7.631   0.397  0.00  0.00    +0.247 C 
ATOM     20  O   UNL     1       5.208  -8.641   0.533  0.00  0.00    -0.270 OA
ATOM     21  N   UNL     1       7.215  -7.690   0.482  0.00  0.00    -0.311 N 
ATOM     22  H   UNL     1       7.744  -6.884   0.374  0.00  0.00    +0.149 HD
BRANCH  21  23
ATOM     23  C   UNL     1       7.877  -8.972   0.739  0.00  0.00    +0.106 C 
BRANCH  23  24
ATOM     24  C   UNL     1       9.392  -8.763   0.788  0.00  0.00    -0.008 C 
ATOM     25  C   UNL     1       9.888  -8.316  -0.588  0.00  0.00    +0.002 C 
ATOM     26  C   UNL     1      11.413  -8.173  -0.537  0.00  0.00    -0.018 C 
ATOM     27  C   UNL     1      12.020  -9.512  -0.119  0.00  0.00    -0.078 C 
ATOM     28  N   UNL     1      11.529  -9.898   1.212  0.00  0.00    +0.382 N 
ATOM     29  C   UNL     1      10.075 -10.077   1.182  0.00  0.00    -0.064 C 
ATOM     30  C   UNL     1       9.567 -10.480   2.571  0.00  0.00    -0.015 C 
ATOM     31  C   UNL     1      10.243 -11.780   3.011  0.00  0.00    -0.003 C 
ATOM     32  C   UNL     1      11.761 -11.573   2.997  0.00  0.00    -0.019 C 
ATOM     33  C   UNL     1      12.188 -11.156   1.592  0.00  0.00    -0.078 C 
ATOM     34  H   UNL     1      11.767  -9.179   1.879  0.00  0.00    -0.081 HD
ENDBRANCH  23  24
ENDBRANCH  21  23
ENDBRANCH   9  19
BRANCH   8  35
ATOM     35  C   UNL     1       2.768  -7.174   0.146  0.00  0.00    +0.039 C 
ATOM     36  C   UNL     1       2.930  -8.454  -0.676  0.00  0.00    +0.010 C 
ATOM     37  C   UNL     1       1.880  -7.415  -1.077  0.00  0.00    +0.010 C 
ENDBRANCH   8  35
TORSDOF 5
