REMARK  Name = ZINC17886468
REMARK  4 active torsions:
REMARK  status: ('A' for Active; 'I' for Inactive)
REMARK    1  A    between atoms: C_9  and  O_25
REMARK    2  A    between atoms: C_10  and  C_11
REMARK    3  A    between atoms: N_12  and  C_13
REMARK    4  A    between atoms: C_16  and  N_19
REMARK                            x       y       z     vdW  Elec       q    Type
REMARK                         _______ _______ _______ _____ _____    ______ ____
ROOT
ATOM      1  C   UNL     1       4.981   0.098  -0.106  0.00  0.00    +0.123 C 
ATOM      2  N   UNL     1       6.109  -0.559  -0.158  0.00  0.00    -0.255 NA
ENDROOT
BRANCH   1  12
ATOM      3  C   UNL     1       0.478  -0.566   2.312  0.00  0.00    +0.001 A 
ATOM      4  C   UNL     1       1.660   0.094   2.635  0.00  0.00    +0.001 A 
ATOM      5  C   UNL     1       2.717   0.100   1.773  0.00  0.00    +0.009 A 
ATOM      6  C   UNL     1       2.612  -0.566   0.546  0.00  0.00    -0.006 A 
ATOM      7  C   UNL     1       1.411  -1.238   0.215  0.00  0.00    -0.017 A 
ATOM      8  C   UNL     1       0.343  -1.224   1.127  0.00  0.00    +0.008 A 
ATOM      9  C   UNL     1       1.309  -1.908  -1.018  0.00  0.00    +0.012 A 
ATOM     10  C   UNL     1       2.348  -1.917  -1.894  0.00  0.00    +0.046 A 
ATOM     11  C   UNL     1       3.551  -1.270  -1.614  0.00  0.00    +0.126 A 
ATOM     12  C   UNL     1       3.721  -0.585  -0.408  0.00  0.00    +0.042 A 
BRANCH  11  13
ATOM     13  O   UNL     1       4.562  -1.306  -2.518  0.00  0.00    -0.506 OA
ATOM     14  H   UNL     1       4.503  -0.624  -3.201  0.00  0.00    +0.292 HD
ENDBRANCH  11  13
ENDBRANCH   1  12
BRANCH   2  15
ATOM     15  C   UNL     1       6.104  -1.910  -0.370  0.00  0.00    +0.064 A 
ATOM     16  C   UNL     1       5.338  -2.745   0.449  0.00  0.00    +0.029 A 
ATOM     17  C   UNL     1       5.336  -4.105   0.232  0.00  0.00    +0.025 A 
ATOM     18  C   UNL     1       6.094  -4.649  -0.799  0.00  0.00    +0.030 A 
ATOM     19  C   UNL     1       6.858  -3.821  -1.615  0.00  0.00    +0.025 A 
ATOM     20  C   UNL     1       6.860  -2.459  -1.409  0.00  0.00    +0.029 A 
BRANCH  18  21
ATOM     21  N   UNL     1       6.089  -6.028  -1.015  0.00  0.00    -0.326 N 
ATOM     22  C   UNL     1       6.978  -6.641  -2.014  0.00  0.00    +0.133 C 
ATOM     23  C   UNL     1       7.725  -7.803  -1.348  0.00  0.00    +0.178 C 
ATOM     24  O   UNL     1       6.780  -8.672  -0.721  0.00  0.00    -0.377 OA
ATOM     25  C   UNL     1       6.028  -8.059   0.329  0.00  0.00    +0.178 C 
ATOM     26  C   UNL     1       5.198  -6.912  -0.247  0.00  0.00    +0.133 C 
ENDBRANCH  18  21
ENDBRANCH   2  15
TORSDOF 4
