REMARK  Name = ZINC36145988
REMARK  12 active torsions:
REMARK  status: ('A' for Active; 'I' for Inactive)
REMARK    1  A    between atoms: C_4  and  C_7
REMARK    2  A    between atoms: C_7  and  O_8
REMARK    3  A    between atoms: O_8  and  C_9
REMARK    4  A    between atoms: C_9  and  C_10
REMARK    5  A    between atoms: C_10  and  C_12
REMARK    6  A    between atoms: C_10  and  O_36
REMARK    7  A    between atoms: C_12  and  N_13
REMARK    8  A    between atoms: N_13  and  C_14
REMARK    9  A    between atoms: N_13  and  C_22
REMARK   10  A    between atoms: C_14  and  C_15
REMARK   11  A    between atoms: C_22  and  C_23
REMARK   12  A    between atoms: C_26  and  C_29
REMARK                            x       y       z     vdW  Elec       q    Type
REMARK                         _______ _______ _______ _____ _____    ______ ____
ROOT
ATOM      1  N   UNL     1       7.513  -2.958   4.505  0.00  0.00    +0.387 N 
ATOM      2  H   UNL     1       7.627  -2.217   5.180  0.00  0.00    -0.081 HD
ENDROOT
BRANCH   1   3
ATOM      3  C   UNL     1       7.319  -2.379   3.169  0.00  0.00    -0.044 C 
BRANCH   3   4
ATOM      4  C   UNL     1       6.144  -1.399   3.204  0.00  0.00    +0.124 C 
BRANCH   4   5
ATOM      5  O   UNL     1       6.469  -0.295   4.051  0.00  0.00    -0.391 OA
ATOM      6  H   UNL     1       7.248   0.203   3.767  0.00  0.00    +0.210 HD
ENDBRANCH   4   5
BRANCH   4   7
ATOM      7  C   UNL     1       5.863  -0.890   1.789  0.00  0.00    +0.189 C 
BRANCH   7   8
ATOM      8  O   UNL     1       4.694  -0.067   1.802  0.00  0.00    -0.373 OA
BRANCH   8   9
ATOM      9  C   UNL     1       4.342   0.462   0.523  0.00  0.00    +0.195 C 
BRANCH   9  13
ATOM     10  C   UNL     1       0.829   2.865   0.892  0.00  0.00    +0.000 A 
ATOM     11  C   UNL     1       2.078   3.438   1.044  0.00  0.00    +0.000 A 
ATOM     12  C   UNL     1       3.215   2.661   0.924  0.00  0.00    +0.006 A 
ATOM     13  C   UNL     1       3.103   1.310   0.654  0.00  0.00    -0.022 A 
ATOM     14  C   UNL     1       1.854   0.736   0.503  0.00  0.00    +0.006 A 
ATOM     15  C   UNL     1       0.717   1.514   0.621  0.00  0.00    +0.000 A 
ENDBRANCH   9  13
ENDBRANCH   8   9
ENDBRANCH   7   8
ENDBRANCH   4   7
ENDBRANCH   3   4
ENDBRANCH   1   3
BRANCH   1  16
ATOM     16  C   UNL     1       6.341  -3.769   4.862  0.00  0.00    -0.043 C 
BRANCH  16  17
ATOM     17  C   UNL     1       6.144  -4.848   3.829  0.00  0.00    -0.063 A 
ATOM     18  C   UNL     1       5.390  -4.593   2.699  0.00  0.00    +0.002 A 
ATOM     19  C   UNL     1       5.209  -5.583   1.751  0.00  0.00    +0.002 A 
ATOM     20  C   UNL     1       5.780  -6.828   1.933  0.00  0.00    +0.020 A 
ATOM     21  C   UNL     1       6.534  -7.084   3.064  0.00  0.00    +0.041 A 
ATOM     22  C   UNL     1       6.721  -6.091   4.010  0.00  0.00    +0.021 A 
ATOM     23 CL   UNL     1       7.253  -8.648   3.294  0.00  0.00    -0.084 Cl
ENDBRANCH  16  17
ENDBRANCH   1  16
BRANCH   1  24
ATOM     24  C   UNL     1       8.713  -3.806   4.502  0.00  0.00    -0.030 C 
BRANCH  24  25
ATOM     25  C   UNL     1       9.044  -4.226   5.935  0.00  0.00    +0.194 C 
ATOM     26  C   UNL     1      10.304  -5.124   5.971  0.00  0.00    +0.104 C 
ATOM     27  C   UNL     1       9.958  -6.133   7.050  0.00  0.00    +0.091 C 
ATOM     28  N   UNL     1       8.688  -6.069   7.272  0.00  0.00    -0.089 NA
ATOM     29  O   UNL     1       8.035  -5.112   6.460  0.00  0.00    -0.392 OA
BRANCH  27  30
ATOM     30  C   UNL     1      10.910  -7.034   7.729  0.00  0.00    -0.000 A 
ATOM     31  C   UNL     1      12.266  -6.999   7.398  0.00  0.00    +0.011 A 
ATOM     32  C   UNL     1      13.151  -7.843   8.036  0.00  0.00    +0.020 A 
ATOM     33  C   UNL     1      12.697  -8.724   9.004  0.00  0.00    +0.041 A 
ATOM     34  C   UNL     1      11.353  -8.763   9.336  0.00  0.00    +0.020 A 
ATOM     35  C   UNL     1      10.459  -7.920   8.710  0.00  0.00    +0.011 A 
ATOM     36 CL   UNL     1      13.816  -9.783   9.802  0.00  0.00    -0.084 Cl
ENDBRANCH  27  30
ENDBRANCH  24  25
ENDBRANCH   1  24
TORSDOF 12
