REMARK  Name = ZINC40403839
REMARK  13 active torsions:
REMARK  status: ('A' for Active; 'I' for Inactive)
REMARK    1  A    between atoms: C_1  and  C_2
REMARK    2  A    between atoms: C_5  and  C_39
REMARK    3  A    between atoms: C_6  and  N_8
REMARK    4  A    between atoms: C_9  and  O_35
REMARK    5  A    between atoms: C_10  and  C_22
REMARK    6  A    between atoms: C_11  and  C_13
REMARK    7  A    between atoms: C_25  and  N_28
REMARK    8  A    between atoms: C_29  and  C_31
REMARK    9  A    between atoms: C_31  and  C_32
REMARK   10  A    between atoms: C_32  and  C_33
REMARK   11  A    between atoms: C_32  and  C_34
REMARK   12  A    between atoms: O_35  and  C_36
REMARK   13  A    between atoms: C_36  and  C_38
REMARK                            x       y       z     vdW  Elec       q    Type
REMARK                         _______ _______ _______ _____ _____    ______ ____
ROOT
ATOM      1  N   UNL     1      -0.188  -2.918   2.579  0.00  0.00    -0.199 N 
ATOM      2  C   UNL     1      -0.379  -2.436   3.836  0.00  0.00    +0.235 A 
ATOM      3  C   UNL     1      -0.080  -3.453   4.718  0.00  0.00    +0.072 A 
ATOM      4  C   UNL     1       0.303  -4.580   3.948  0.00  0.00    +0.105 A 
ATOM      5  N   UNL     1       0.230  -4.250   2.677  0.00  0.00    -0.163 NA
ENDROOT
BRANCH   4   6
ATOM      6  C   UNL     1       0.711  -5.901   4.482  0.00  0.00    +0.007 A 
ATOM      7  C   UNL     1       0.010  -6.471   5.544  0.00  0.00    +0.014 A 
ATOM      8  C   UNL     1       0.390  -7.701   6.040  0.00  0.00    +0.050 A 
ATOM      9  C   UNL     1       1.468  -8.374   5.486  0.00  0.00    +0.166 A 
ATOM     10  C   UNL     1       2.172  -7.809   4.424  0.00  0.00    +0.167 A 
ATOM     11  C   UNL     1       1.791  -6.579   3.920  0.00  0.00    +0.059 A 
ATOM     12  O   UNL     1       3.177  -8.661   4.065  0.00  0.00    -0.453 OA
ATOM     13  C   UNL     1       3.336  -9.559   5.179  0.00  0.00    +0.466 C 
ATOM     14  O   UNL     1       2.033  -9.579   5.791  0.00  0.00    -0.453 OA
ENDBRANCH   4   6
BRANCH   1  20
ATOM     15  C   UNL     1       0.545   1.149  -0.086  0.00  0.00    +0.044 C 
ATOM     16  C   UNL     1      -0.037  -0.232   0.070  0.00  0.00    -0.048 A 
ATOM     17  C   UNL     1      -0.765  -0.796  -0.961  0.00  0.00    +0.004 A 
ATOM     18  C   UNL     1      -1.301  -2.063  -0.821  0.00  0.00    +0.006 A 
ATOM     19  C   UNL     1      -1.111  -2.769   0.351  0.00  0.00    -0.025 A 
ATOM     20  C   UNL     1      -0.381  -2.205   1.389  0.00  0.00    +0.072 A 
ATOM     21  C   UNL     1       0.161  -0.935   1.242  0.00  0.00    +0.031 A 
ATOM     22  C   UNL     1      -1.696  -4.149   0.503  0.00  0.00    +0.046 C 
ENDBRANCH   1  20
BRANCH   3  23
ATOM     23  C   UNL     1      -0.146  -3.381   6.197  0.00  0.00    -0.011 A 
ATOM     24  C   UNL     1       1.022  -3.468   6.954  0.00  0.00    +0.010 A 
ATOM     25  C   UNL     1       0.957  -3.401   8.330  0.00  0.00    +0.024 A 
ATOM     26  C   UNL     1      -0.271  -3.246   8.962  0.00  0.00    +0.033 A 
ATOM     27  C   UNL     1      -1.436  -3.159   8.210  0.00  0.00    +0.024 A 
ATOM     28  C   UNL     1      -1.376  -3.219   6.834  0.00  0.00    +0.010 A 
BRANCH  26  29
ATOM     29  N   UNL     1      -0.333  -3.179  10.359  0.00  0.00    -0.285 N 
ATOM     30  C   UNL     1      -1.238  -2.377  10.955  0.00  0.00    +0.217 C 
ATOM     31  O   UNL     1      -2.054  -1.780  10.284  0.00  0.00    -0.275 OA
ATOM     32  H   UNL     1       0.274  -3.709  10.898  0.00  0.00    +0.155 HD
BRANCH  30  33
ATOM     33  C   UNL     1      -1.235  -2.221  12.454  0.00  0.00    +0.099 C 
BRANCH  33  34
ATOM     34  C   UNL     1      -2.353  -1.264  12.869  0.00  0.00    -0.008 C 
ATOM     35  C   UNL     1      -2.431  -1.202  14.396  0.00  0.00    +0.008 C 
ATOM     36  C   UNL     1      -2.060   0.133  12.316  0.00  0.00    +0.008 C 
ENDBRANCH  33  34
ENDBRANCH  30  33
ENDBRANCH  26  29
ENDBRANCH   3  23
BRANCH   2  37
ATOM     37  O   UNL     1      -0.788  -1.184   4.162  0.00  0.00    -0.407 OA
BRANCH  37  38
ATOM     38  C   UNL     1      -2.108  -0.957   4.256  0.00  0.00    +0.310 C 
ATOM     39  O   UNL     1      -2.889  -1.869   4.121  0.00  0.00    -0.251 OA
ATOM     40  C   UNL     1      -2.616   0.435   4.531  0.00  0.00    +0.136 C 
ENDBRANCH  37  38
ENDBRANCH   2  37
TORSDOF 8
