REMARK  Name = ZINC00390181
REMARK  4 active torsions:
REMARK  status: ('A' for Active; 'I' for Inactive)
REMARK    1  A    between atoms: C_1  and  C_2
REMARK    2  A    between atoms: C_4  and  N_23
REMARK    3  A    between atoms: C_14  and  C_16
REMARK    4  A    between atoms: C_18  and  C_22
REMARK                            x       y       z     vdW  Elec       q    Type
REMARK                         _______ _______ _______ _____ _____    ______ ____
ROOT
ATOM      1  C   UNL     1       1.851   0.943   1.435  0.00  0.00    +0.067 C 
ATOM      2  C   UNL     1       0.795   1.680   0.653  0.00  0.00    +0.062 A 
ATOM      3  C   UNL     1       0.269   1.288  -0.582  0.00  0.00    +0.068 A 
ATOM      4  C   UNL     1      -0.653   2.216  -0.958  0.00  0.00    +0.122 A 
ATOM      5  N   UNL     1      -0.705   3.159   0.024  0.00  0.00    -0.200 N 
ATOM      6  N   UNL     1       0.215   2.795   1.016  0.00  0.00    -0.169 NA
ATOM      7  C   UNL     1      -1.524   4.286   0.037  0.00  0.00    +0.168 A 
ATOM      8  C   UNL     1      -0.959   5.584   0.151  0.00  0.00    +0.055 A 
ATOM      9  C   UNL     1       0.450   5.965   0.266  0.00  0.00    -0.024 A 
ATOM     10  C   UNL     1       0.722   7.282   0.361  0.00  0.00    -0.004 A 
ATOM     11  S   UNL     1      -0.856   8.088   0.289  0.00  0.00    -0.073 S 
ATOM     12  C   UNL     1      -1.884   6.650   0.147  0.00  0.00    +0.114 A 
ATOM     13  N   UNL     1      -3.181   6.435   0.055  0.00  0.00    -0.225 NA
ATOM     14  C   UNL     1      -3.646   5.205  -0.041  0.00  0.00    +0.130 A 
ATOM     15  N   UNL     1      -2.837   4.160  -0.050  0.00  0.00    -0.213 NA
ATOM     16  C   UNL     1      -5.133   4.985  -0.144  0.00  0.00    +0.088 C 
ATOM     17  C   UNL     1       2.071   7.923   0.487  0.00  0.00    +0.046 C 
ATOM     18  C   UNL     1       3.089   6.839   0.868  0.00  0.00    -0.009 C 
ATOM     19  C   UNL     1       2.891   5.633  -0.056  0.00  0.00    +0.008 C 
ATOM     20  C   UNL     1       1.574   4.933   0.280  0.00  0.00    +0.037 C 
ATOM     21  C   UNL     1       4.509   7.384   0.703  0.00  0.00    +0.008 C 
ENDROOT
BRANCH   4  22
ATOM     22  N   UNL     1      -1.404   2.203  -2.128  0.00  0.00    -0.343 N 
ATOM     23  H   UNL     1      -1.294   1.481  -2.767  0.00  0.00    +0.144 HD
ATOM     24  H   UNL     1      -2.038   2.915  -2.305  0.00  0.00    +0.144 HD
ENDBRANCH   4  22
TORSDOF 1
