REMARK  Name = ZINC22823607
REMARK  7 active torsions:
REMARK  status: ('A' for Active; 'I' for Inactive)
REMARK    1  A    between atoms: C_3  and  C_6
REMARK    2  A    between atoms: C_6  and  C_8
REMARK    3  A    between atoms: C_6  and  N_15
REMARK    4  A    between atoms: C_16  and  C_18
REMARK    5  A    between atoms: C_18  and  N_19
REMARK    6  A    between atoms: N_22  and  C_25
REMARK    7  A    between atoms: C_25  and  C_26
REMARK                            x       y       z     vdW  Elec       q    Type
REMARK                         _______ _______ _______ _____ _____    ______ ____
ROOT
ATOM      1  N   UNL     1       2.086   5.268   0.897  0.00  0.00    -0.306 N 
ATOM      2  C   UNL     1       1.919   5.461   2.221  0.00  0.00    +0.197 C 
ATOM      3  O   UNL     1       0.802   5.545   2.685  0.00  0.00    -0.278 OA
ATOM      4  H   UNL     1       3.099   5.192   0.476  0.00  0.00    +0.150 HD
ENDROOT
BRANCH   1   5
ATOM      5  C   UNL     1       0.918   5.160   0.020  0.00  0.00    +0.140 C 
BRANCH   5   6
ATOM      6  C   UNL     1       1.304   5.560  -1.381  0.00  0.00    -0.022 A 
ATOM      7  C   UNL     1       2.527   5.175  -1.897  0.00  0.00    +0.008 A 
ATOM      8  C   UNL     1       2.880   5.536  -3.184  0.00  0.00    +0.038 A 
ATOM      9  C   UNL     1       2.012   6.293  -3.952  0.00  0.00    +0.123 A 
ATOM     10  C   UNL     1       0.789   6.683  -3.432  0.00  0.00    +0.038 A 
ATOM     11  C   UNL     1       0.436   6.316  -2.148  0.00  0.00    +0.008 A 
ATOM     12  F   UNL     1       2.358   6.652  -5.208  0.00  0.00    -0.205 F 
ENDBRANCH   5   6
BRANCH   5  15
ATOM     13  C   UNL     1      -1.077   1.915   0.017  0.00  0.00    +0.008 A 
ATOM     14  C   UNL     1      -0.855   3.279   0.027  0.00  0.00    +0.013 A 
ATOM     15  C   UNL     1       0.421   3.738   0.017  0.00  0.00    +0.014 A 
ATOM     16  S   UNL     1       1.359   2.219   0.001  0.00  0.00    -0.099 S 
ATOM     17  C   UNL     1      -0.013   1.076   0.008  0.00  0.00    +0.045 A 
ENDBRANCH   5  15
ENDBRANCH   1   5
BRANCH   2  18
ATOM     18  C   UNL     1       3.121   5.571   3.123  0.00  0.00    +0.019 C 
BRANCH  18  19
ATOM     19  N   UNL     1       2.675   5.777   4.508  0.00  0.00    +0.387 N 
ATOM     20  C   UNL     1       2.008   7.078   4.659  0.00  0.00    -0.063 C 
ATOM     21  C   UNL     1       1.490   7.219   6.092  0.00  0.00    +0.066 C 
ATOM     22  N   UNL     1       2.614   7.096   7.031  0.00  0.00    -0.298 NA
ATOM     23  C   UNL     1       3.282   5.795   6.880  0.00  0.00    +0.066 C 
ATOM     24  C   UNL     1       3.800   5.654   5.447  0.00  0.00    -0.063 C 
ATOM     25  H   UNL     1       1.945   4.991   4.748  0.00  0.00    -0.081 HD
BRANCH  22  26
ATOM     26  C   UNL     1       2.169   7.302   8.415  0.00  0.00    +0.180 C 
BRANCH  26  27
ATOM     27  C   UNL     1       1.715   8.728   8.590  0.00  0.00    +0.230 C 
ATOM     28  O   UNL     1       1.759   9.497   7.654  0.00  0.00    -0.274 OA
ATOM     29  N   UNL     1       1.261   9.149   9.788  0.00  0.00    -0.300 N 
ATOM     30  C   UNL     1       1.150   8.324  11.000  0.00  0.00    +0.108 C 
ATOM     31  C   UNL     1       0.562   9.219  12.111  0.00  0.00    +0.020 C 
ATOM     32  C   UNL     1      -0.160  10.335  11.309  0.00  0.00    +0.020 C 
ATOM     33  C   UNL     1       0.789  10.510  10.097  0.00  0.00    +0.108 C 
ENDBRANCH  26  27
ENDBRANCH  22  26
ENDBRANCH  18  19
ENDBRANCH   2  18
TORSDOF 7
