REMARK  Name = ZINC19974101
REMARK  4 active torsions:
REMARK  status: ('A' for Active; 'I' for Inactive)
REMARK    1  A    between atoms: C_1  and  C_2
REMARK    2  A    between atoms: C_7  and  N_8
REMARK    3  A    between atoms: C_9  and  C_11
REMARK    4  A    between atoms: C_19  and  N_28
REMARK                            x       y       z     vdW  Elec       q    Type
REMARK                         _______ _______ _______ _____ _____    ______ ____
ROOT
ATOM      1  C   UNL     1      -0.168   0.052   4.882  0.00  0.00    +0.121 C 
ATOM      2  C   UNL     1       1.059   0.948   5.063  0.00  0.00    +0.113 C 
ATOM      3  C   UNL     1       2.265   0.103   5.378  0.00  0.00    +0.219 C 
ATOM      4  O   UNL     1       3.346   0.406   4.919  0.00  0.00    -0.275 OA
ATOM      5  N   UNL     1       2.156  -0.984   6.162  0.00  0.00    -0.270 N 
ATOM      6  C   UNL     1       0.915  -1.415   6.608  0.00  0.00    +0.136 A 
ATOM      7  C   UNL     1      -0.244  -0.931   6.018  0.00  0.00    +0.045 A 
ATOM      8  C   UNL     1      -1.474  -1.372   6.495  0.00  0.00    +0.127 A 
ATOM      9  N   UNL     1      -1.496  -2.257   7.490  0.00  0.00    -0.199 NA
ATOM     10  C   UNL     1      -0.369  -2.716   8.013  0.00  0.00    +0.221 A 
ATOM     11  N   UNL     1       0.817  -2.312   7.585  0.00  0.00    -0.199 NA
ATOM     12  N   UNL     1      -0.433  -3.644   9.038  0.00  0.00    -0.300 N 
ATOM     13  C   UNL     1       0.721  -4.242   9.726  0.00  0.00    +0.108 C 
ATOM     14  C   UNL     1       0.168  -5.234  10.771  0.00  0.00    +0.020 C 
ATOM     15  C   UNL     1      -1.248  -5.558  10.227  0.00  0.00    +0.020 C 
ATOM     16  C   UNL     1      -1.669  -4.191   9.626  0.00  0.00    +0.108 C 
ATOM     17  H   UNL     1       2.954  -1.472   6.418  0.00  0.00    +0.156 HD
ENDROOT
BRANCH   1  19
ATOM     18  N   UNL     1       0.025  -0.015   2.417  0.00  0.00    -0.285 N 
ATOM     19  C   UNL     1      -0.056  -0.694   3.578  0.00  0.00    +0.225 C 
ATOM     20  O   UNL     1      -0.040  -1.907   3.573  0.00  0.00    -0.275 OA
ATOM     21  H   UNL     1       0.078   0.954   2.425  0.00  0.00    +0.155 HD
BRANCH  18  28
ATOM     22  C   UNL     1      -1.264   1.183   0.181  0.00  0.00    +0.045 C 
ATOM     23  C   UNL     1      -0.583  -0.158   0.084  0.00  0.00    -0.029 A 
ATOM     24  C   UNL     1      -0.568  -0.840  -1.117  0.00  0.00    +0.005 A 
ATOM     25  C   UNL     1       0.056  -2.071  -1.206  0.00  0.00    +0.000 A 
ATOM     26  C   UNL     1       0.667  -2.622  -0.095  0.00  0.00    +0.002 A 
ATOM     27  C   UNL     1       0.656  -1.945   1.108  0.00  0.00    +0.023 A 
ATOM     28  C   UNL     1       0.034  -0.706   1.201  0.00  0.00    +0.036 A 
ENDBRANCH  18  28
ENDBRANCH   1  19
BRANCH   8  29
ATOM     29  N   UNL     1      -2.655  -0.898   5.946  0.00  0.00    -0.343 N 
ATOM     30  H   UNL     1      -2.628  -0.253   5.221  0.00  0.00    +0.144 HD
ATOM     31  H   UNL     1      -3.507  -1.211   6.285  0.00  0.00    +0.144 HD
ENDBRANCH   8  29
TORSDOF 3
