REMARK  Name = ZINC29403818
REMARK  11 active torsions:
REMARK  status: ('A' for Active; 'I' for Inactive)
REMARK    1  A    between atoms: C_1  and  N_2
REMARK    2  A    between atoms: C_6  and  C_7
REMARK    3  A    between atoms: C_7  and  C_9
REMARK    4  A    between atoms: C_7  and  N_17
REMARK    5  A    between atoms: C_12  and  O_15
REMARK    6  A    between atoms: O_15  and  C_16
REMARK    7  A    between atoms: N_17  and  C_18
REMARK    8  A    between atoms: N_21  and  C_26
REMARK    9  A    between atoms: C_31  and  C_32
REMARK   10  A    between atoms: C_32  and  O_34
REMARK   11  A    between atoms: O_34  and  C_35
REMARK                            x       y       z     vdW  Elec       q    Type
REMARK                         _______ _______ _______ _____ _____    ______ ____
ROOT
ATOM      1  N   UNL     1       5.887   6.019   0.043  0.00  0.00    -0.328 N 
ATOM      2  H   UNL     1       6.648   5.852  -0.734  0.00  0.00    +0.147 HD
ENDROOT
BRANCH   1   3
ATOM      3  C   UNL     1       4.706   5.296   0.022  0.00  0.00    +0.072 A 
ATOM      4  C   UNL     1       3.726   5.505   1.016  0.00  0.00    +0.158 A 
ATOM      5  N   UNL     1       2.611   4.829   0.995  0.00  0.00    -0.170 NA
ATOM      6  N   UNL     1       2.364   3.877   0.001  0.00  0.00    -0.195 N 
ATOM      7  C   UNL     1       3.272   3.646  -0.968  0.00  0.00    +0.292 A 
ATOM      8  O   UNL     1       3.046   2.817  -1.836  0.00  0.00    -0.264 OA
ATOM      9  C   UNL     1       4.477   4.363  -0.973  0.00  0.00    +0.129 A 
ATOM     10 CL   UNL     1       5.663   4.084  -2.209  0.00  0.00    -0.076 Cl
BRANCH   6  11
ATOM     11  C   UNL     1       1.164   3.166   0.008  0.00  0.00    +0.083 A 
ATOM     12  C   UNL     1       1.176   1.778   0.000  0.00  0.00    +0.029 A 
ATOM     13  C   UNL     1      -0.013   1.076   0.008  0.00  0.00    +0.002 A 
ATOM     14  C   UNL     1      -1.224   1.748   0.017  0.00  0.00    +0.001 A 
ATOM     15  C   UNL     1      -1.255   3.126   0.031  0.00  0.00    +0.017 A 
ATOM     16  C   UNL     1      -0.061   3.850   0.023  0.00  0.00    +0.084 A 
BRANCH  16  17
ATOM     17  C   UNL     1      -0.087   5.324   0.032  0.00  0.00    +0.341 C 
ATOM     18  O   UNL     1       0.954   5.951   0.026  0.00  0.00    -0.245 OA
BRANCH  17  19
ATOM     19  O   UNL     1      -1.266   5.977   0.047  0.00  0.00    -0.464 OA
ATOM     20  C   UNL     1      -1.216   7.428   0.054  0.00  0.00    +0.280 C 
ENDBRANCH  17  19
ENDBRANCH  16  17
ENDBRANCH   6  11
ENDBRANCH   1   3
BRANCH   1  21
ATOM     21  C   UNL     1       6.124   7.006   1.100  0.00  0.00    +0.166 C 
BRANCH  21  27
ATOM     22  C   UNL     1       4.416   8.843   2.918  0.00  0.00    +0.150 C 
ATOM     23  N   UNL     1       4.754   9.107   1.518  0.00  0.00    -0.337 N 
ATOM     24  C   UNL     1       4.377  10.199   0.783  0.00  0.00    +0.104 A 
ATOM     25  C   UNL     1       4.901  10.041  -0.447  0.00  0.00    +0.102 A 
ATOM     26  N   UNL     1       5.583   8.886  -0.462  0.00  0.00    -0.348 N 
ATOM     27  C   UNL     1       5.496   8.319   0.710  0.00  0.00    +0.112 A 
ATOM     28  H   UNL     1       6.100   8.564  -1.378  0.00  0.00    +0.167 HD
ENDBRANCH  21  27
BRANCH  21  29
ATOM     29  C   UNL     1       7.607   7.195   1.288  0.00  0.00    -0.020 A 
ATOM     30  C   UNL     1       8.444   7.224   0.189  0.00  0.00    +0.009 A 
ATOM     31  C   UNL     1       9.803   7.402   0.358  0.00  0.00    +0.046 A 
ATOM     32  C   UNL     1      10.330   7.541   1.635  0.00  0.00    +0.120 A 
ATOM     33  C   UNL     1       9.488   7.506   2.737  0.00  0.00    +0.046 A 
ATOM     34  C   UNL     1       8.129   7.333   2.561  0.00  0.00    +0.009 A 
BRANCH  32  35
ATOM     35  O   UNL     1      11.667   7.710   1.805  0.00  0.00    -0.495 OA
ATOM     36  C   UNL     1      12.473   7.737   0.625  0.00  0.00    +0.277 C 
ENDBRANCH  32  35
ENDBRANCH  21  29
ENDBRANCH   1  21
TORSDOF 8
