REMARK  Name = ZINC34749578
REMARK  6 active torsions:
REMARK  status: ('A' for Active; 'I' for Inactive)
REMARK    1  A    between atoms: C_1  and  C_2
REMARK    2  A    between atoms: C_2  and  C_3
REMARK    3  A    between atoms: C_3  and  N_4
REMARK    4  A    between atoms: C_14  and  C_17
REMARK    5  A    between atoms: N_25  and  C_26
REMARK    6  A    between atoms: C_26  and  C_27
REMARK                            x       y       z     vdW  Elec       q    Type
REMARK                         _______ _______ _______ _____ _____    ______ ____
ROOT
ATOM      1  N   UNL     1       0.007  -2.776   0.230  0.00  0.00    +0.382 N 
ATOM      2  C   UNL     1      -0.251  -4.218   0.136  0.00  0.00    -0.060 C 
ATOM      3  C   UNL     1       0.433  -4.936   1.304  0.00  0.00    +0.089 C 
ATOM      4  N   UNL     1       1.858  -4.573   1.303  0.00  0.00    -0.304 N 
ATOM      5  C   UNL     1       2.211  -3.147   1.233  0.00  0.00    +0.089 C 
ATOM      6  C   UNL     1       1.443  -2.513   0.068  0.00  0.00    -0.060 C 
ATOM      7  C   UNL     1       2.832  -5.538   1.366  0.00  0.00    +0.202 A 
ATOM      8  N   UNL     1       3.299  -6.064   0.253  0.00  0.00    -0.208 NA
ATOM      9  C   UNL     1       4.242  -6.999   0.283  0.00  0.00    +0.118 A 
ATOM     10  C   UNL     1       4.784  -7.472   1.490  0.00  0.00    +0.080 A 
ATOM     11  C   UNL     1       5.810  -8.500   1.345  0.00  0.00    +0.004 A 
ATOM     12  C   UNL     1       6.152  -8.908   0.101  0.00  0.00    +0.056 A 
ATOM     13  S   UNL     1       5.106  -7.927  -0.958  0.00  0.00    -0.076 S 
ATOM     14  C   UNL     1       4.258  -6.884   2.681  0.00  0.00    +0.265 A 
ATOM     15  O   UNL     1       4.668  -7.232   3.775  0.00  0.00    -0.267 OA
ATOM     16  N   UNL     1       3.307  -5.936   2.581  0.00  0.00    -0.271 N 
ATOM     17  H   UNL     1      -0.295  -2.440   1.132  0.00  0.00    -0.082 HD
ENDROOT
BRANCH  11  18
ATOM     18  C   UNL     1       6.466  -9.086   2.538  0.00  0.00    -0.017 A 
ATOM     19  C   UNL     1       6.991  -8.255   3.527  0.00  0.00    +0.008 A 
ATOM     20  C   UNL     1       7.600  -8.806   4.636  0.00  0.00    +0.001 A 
ATOM     21  C   UNL     1       7.690 -10.180   4.768  0.00  0.00    +0.000 A 
ATOM     22  C   UNL     1       7.171 -11.009   3.790  0.00  0.00    +0.001 A 
ATOM     23  C   UNL     1       6.555 -10.470   2.679  0.00  0.00    +0.008 A 
ENDBRANCH  11  18
BRANCH   1  24
ATOM     24  C   UNL     1      -0.738  -2.076  -0.826  0.00  0.00    -0.079 C 
BRANCH  24  26
ATOM     25  C   UNL     1      -3.016  -1.518  -1.686  0.00  0.00    +0.002 C 
ATOM     26  C   UNL     1      -2.240  -2.246  -0.587  0.00  0.00    -0.022 C 
ENDBRANCH  24  26
ENDBRANCH   1  24
BRANCH  16  27
ATOM     27  C   UNL     1       2.768  -5.326   3.799  0.00  0.00    +0.223 C 
BRANCH  27  28
ATOM     28  C   UNL     1       1.638  -6.171   4.327  0.00  0.00    +0.230 C 
ATOM     29  O   UNL     1       1.314  -7.184   3.743  0.00  0.00    -0.274 OA
ATOM     30  N   UNL     1       0.987  -5.802   5.447  0.00  0.00    -0.328 N 
ATOM     31  H   UNL     1       1.246  -4.992   5.914  0.00  0.00    +0.145 HD
ATOM     32  H   UNL     1       0.259  -6.346   5.787  0.00  0.00    +0.145 HD
ENDBRANCH  27  28
ENDBRANCH  16  27
TORSDOF 5
