REMARK  Name = ZINC00907722
REMARK  6 active torsions:
REMARK  status: ('A' for Active; 'I' for Inactive)
REMARK    1  A    between atoms: C_1  and  C_2
REMARK    2  A    between atoms: C_9  and  C_14
REMARK    3  A    between atoms: C_14  and  C_16
REMARK    4  A    between atoms: C_14  and  N_60
REMARK    5  A    between atoms: N_20  and  C_21
REMARK    6  A    between atoms: C_21  and  C_22
REMARK                            x       y       z     vdW  Elec       q    Type
REMARK                         _______ _______ _______ _____ _____    ______ ____
ROOT
ATOM      1  C   UNL     1      -2.331  -0.862   1.881  0.00  0.00    +0.039 C 
ENDROOT
BRANCH   1  10
ATOM      2  C   UNL     1      -5.902   5.685   1.842  0.00  0.00    +0.044 C 
ATOM      3  C   UNL     1      -5.176   4.589   2.578  0.00  0.00    -0.050 A 
ATOM      4  C   UNL     1      -4.987   4.689   3.949  0.00  0.00    +0.005 A 
ATOM      5  C   UNL     1      -4.327   3.698   4.643  0.00  0.00    +0.026 A 
ATOM      6  C   UNL     1      -3.842   2.585   3.962  0.00  0.00    +0.049 A 
ATOM      7  C   UNL     1      -4.034   2.488   2.571  0.00  0.00    -0.001 A 
ATOM      8  C   UNL     1      -4.709   3.506   1.889  0.00  0.00    +0.013 A 
ATOM      9  C   UNL     1      -3.515   1.316   1.864  0.00  0.00    +0.017 A 
ATOM     10  C   UNL     1      -2.873   0.359   2.579  0.00  0.00    +0.011 A 
ATOM     11  C   UNL     1      -2.706   0.505   3.972  0.00  0.00    +0.251 A 
ATOM     12  O   UNL     1      -2.122  -0.364   4.595  0.00  0.00    -0.268 OA
ATOM     13  N   UNL     1      -3.176   1.580   4.630  0.00  0.00    -0.322 N 
ATOM     14  H   UNL     1      -3.040   1.651   5.619  0.00  0.00    +0.169 HD
ENDBRANCH   1  10
BRANCH   1  21
ATOM     15  C   UNL     1      -2.185  -3.284   2.013  0.00  0.00    -0.077 C 
ATOM     16  C   UNL     1      -2.865  -4.555   2.444  0.00  0.00    -0.019 C 
ATOM     17  C   UNL     1      -3.864  -4.972   1.345  0.00  0.00    -0.002 C 
ATOM     18  C   UNL     1      -5.099  -4.198   1.399  0.00  0.00    -0.002 C 
ATOM     19  C   UNL     1      -4.851  -2.689   1.189  0.00  0.00    -0.019 C 
ATOM     20  C   UNL     1      -4.331  -2.107   2.475  0.00  0.00    -0.077 C 
ATOM     21  N   UNL     1      -2.833  -2.054   2.583  0.00  0.00    +0.389 N 
ATOM     22  H   UNL     1      -2.582  -1.985   3.576  0.00  0.00    -0.080 HD
ENDBRANCH   1  21
BRANCH   1  23
ATOM     23  C   UNL     1      -0.826  -0.859   1.961  0.00  0.00    +0.143 A 
ATOM     24  N   UNL     1      -0.099  -0.986   3.044  0.00  0.00    -0.115 NA
ATOM     25  N   UNL     1       1.141  -0.932   2.700  0.00  0.00    -0.023 NA
ATOM     26  N   UNL     1       1.225  -0.779   1.425  0.00  0.00    -0.044 NA
ATOM     27  N   UNL     1       0.033  -0.723   0.933  0.00  0.00    -0.226 N 
BRANCH  27  28
ATOM     28  C   UNL     1      -0.319  -0.551  -0.478  0.00  0.00    +0.182 C 
BRANCH  28  29
ATOM     29  C   UNL     1      -0.316   0.917  -0.821  0.00  0.00    -0.026 A 
ATOM     30  C   UNL     1      -1.500   1.630  -0.817  0.00  0.00    +0.008 A 
ATOM     31  C   UNL     1      -1.497   2.977  -1.127  0.00  0.00    +0.038 A 
ATOM     32  C   UNL     1      -0.309   3.609  -1.452  0.00  0.00    +0.123 A 
ATOM     33  C   UNL     1       0.876   2.893  -1.461  0.00  0.00    +0.038 A 
ATOM     34  C   UNL     1       0.871   1.547  -1.146  0.00  0.00    +0.008 A 
ATOM     35  F   UNL     1      -0.305   4.925  -1.760  0.00  0.00    -0.205 F 
ENDBRANCH  28  29
ENDBRANCH  27  28
ENDBRANCH   1  23
TORSDOF 5
