REMARK  Name = ZINC43218785
REMARK  9 active torsions:
REMARK  status: ('A' for Active; 'I' for Inactive)
REMARK    1  A    between atoms: C_1  and  C_2
REMARK    2  A    between atoms: C_2  and  C_4
REMARK    3  A    between atoms: C_7  and  N_10
REMARK    4  A    between atoms: C_15  and  C_32
REMARK    5  A    between atoms: C_18  and  C_23
REMARK    6  A    between atoms: C_18  and  C_29
REMARK    7  A    between atoms: C_35  and  C_38
REMARK    8  A    between atoms: C_38  and  O_40
REMARK    9  A    between atoms: O_40  and  C_41
REMARK                            x       y       z     vdW  Elec       q    Type
REMARK                         _______ _______ _______ _____ _____    ______ ____
ROOT
ATOM      1  N   UNL     1      -5.163  -2.524   0.011  0.00  0.00    -0.210 N 
ATOM      2  C   UNL     1      -6.467  -2.093  -0.007  0.00  0.00    +0.229 C 
ATOM      3  O   UNL     1      -6.874  -0.980  -0.263  0.00  0.00    -0.275 OA
ATOM      4  C   UNL     1      -7.244  -3.255   0.345  0.00  0.00    +0.078 C 
ATOM      5  C   UNL     1      -8.615  -3.783   0.233  0.00  0.00    -0.026 C 
ATOM      6  N   UNL     1      -8.439  -5.210   0.671  0.00  0.00    +0.398 N 
ATOM      7  C   UNL     1      -7.008  -5.580   0.460  0.00  0.00    +0.074 C 
ATOM      8  C   UNL     1      -6.412  -4.412  -0.340  0.00  0.00    +0.090 C 
ATOM      9  C   UNL     1      -5.059  -3.885   0.049  0.00  0.00    +0.229 C 
ATOM     10  O   UNL     1      -4.078  -4.536   0.339  0.00  0.00    -0.275 OA
ATOM     11  H   UNL     1      -8.674  -5.299   1.649  0.00  0.00    -0.083 HD
ATOM     12  H   UNL     1      -9.033  -5.812   0.120  0.00  0.00    -0.083 HD
ENDROOT
BRANCH   1  16
ATOM     13  C   UNL     1      -1.880   0.044  -0.057  0.00  0.00    +0.017 A 
ATOM     14  C   UNL     1      -3.180   0.565  -0.072  0.00  0.00    +0.013 A 
ATOM     15  C   UNL     1      -4.260  -0.287  -0.050  0.00  0.00    +0.024 A 
ATOM     16  C   UNL     1      -4.063  -1.663  -0.012  0.00  0.00    +0.044 A 
ATOM     17  C   UNL     1      -2.774  -2.186   0.003  0.00  0.00    +0.024 A 
ATOM     18  C   UNL     1      -1.687  -1.343  -0.025  0.00  0.00    +0.013 A 
BRANCH  13  20
ATOM     19  C   UNL     1      -0.934   2.441  -0.115  0.00  0.00    +0.091 C 
ATOM     20  C   UNL     1      -0.723   0.949  -0.081  0.00  0.00    +0.160 C 
ATOM     21  O   UNL     1       0.402   0.495  -0.072  0.00  0.00    -0.292 OA
ENDBRANCH  13  20
ENDBRANCH   1  16
BRANCH   7  22
ATOM     22  C   UNL     1      -6.311  -5.747   1.785  0.00  0.00    -0.047 A 
ATOM     23  C   UNL     1      -5.259  -6.636   1.905  0.00  0.00    +0.003 A 
ATOM     24  C   UNL     1      -4.619  -6.789   3.121  0.00  0.00    +0.000 A 
ATOM     25  C   UNL     1      -5.031  -6.053   4.217  0.00  0.00    +0.000 A 
ATOM     26  C   UNL     1      -6.083  -5.164   4.096  0.00  0.00    +0.000 A 
ATOM     27  C   UNL     1      -6.720  -5.008   2.879  0.00  0.00    +0.003 A 
ENDBRANCH   7  22
BRANCH   5  28
ATOM     28  C   UNL     1      -9.551  -3.047   1.158  0.00  0.00    -0.061 A 
ATOM     29  C   UNL     1      -9.713  -3.481   2.462  0.00  0.00    +0.003 A 
ATOM     30  C   UNL     1     -10.568  -2.812   3.313  0.00  0.00    +0.015 A 
ATOM     31  C   UNL     1     -11.271  -1.696   2.856  0.00  0.00    +0.059 A 
ATOM     32  C   UNL     1     -11.103  -1.264   1.539  0.00  0.00    +0.015 A 
ATOM     33  C   UNL     1     -10.240  -1.938   0.700  0.00  0.00    +0.003 A 
BRANCH  31  34
ATOM     34  C   UNL     1     -12.189  -0.975   3.762  0.00  0.00    +0.339 C 
ATOM     35  O   UNL     1     -12.333  -1.353   4.907  0.00  0.00    -0.245 OA
BRANCH  34  36
ATOM     36  O   UNL     1     -12.866   0.102   3.318  0.00  0.00    -0.464 OA
ATOM     37  C   UNL     1     -13.736   0.750   4.248  0.00  0.00    +0.280 C 
ENDBRANCH  34  36
ENDBRANCH  31  34
ENDBRANCH   5  28
BRANCH   7  38
ATOM     38  C   UNL     1      -6.911  -6.851  -0.346  0.00  0.00    +0.350 C 
ATOM     39  O   UNL     1      -7.926  -7.428  -0.697  0.00  0.00    -0.248 OA
ATOM     40  O   UNL     1      -5.818  -7.301  -0.645  0.00  0.00    -0.248 OA
ENDBRANCH   7  38
TORSDOF 7
