REMARK  Name = ZINC11809978
REMARK  9 active torsions:
REMARK  status: ('A' for Active; 'I' for Inactive)
REMARK    1  A    between atoms: C_1  and  C_2
REMARK    2  A    between atoms: C_3  and  C_12
REMARK    3  A    between atoms: C_18  and  C_20
REMARK    4  A    between atoms: C_20  and  C_21
REMARK    5  A    between atoms: C_21  and  C_22
REMARK    6  A    between atoms: C_22  and  N_23
REMARK    7  A    between atoms: N_23  and  C_24
REMARK    8  A    between atoms: N_23  and  S_25
REMARK    9  A    between atoms: S_25  and  C_28
REMARK                            x       y       z     vdW  Elec       q    Type
REMARK                         _______ _______ _______ _____ _____    ______ ____
ROOT
ATOM      1  C   UNL     1       3.607   0.856   0.280  0.00  0.00    +0.082 A 
ATOM      2  C   UNL     1       4.402  -0.255   0.320  0.00  0.00    +0.077 A 
ATOM      3  S   UNL     1       6.012   0.495   0.518  0.00  0.00    -0.060 S 
ATOM      4  C   UNL     1       5.494   2.152   0.529  0.00  0.00    +0.165 A 
ATOM      5  N   UNL     1       4.189   2.042   0.383  0.00  0.00    -0.225 NA
ATOM      6  N   UNL     1       6.262   3.303   0.655  0.00  0.00    -0.265 N 
ATOM      7  C   UNL     1       7.599   3.209   0.792  0.00  0.00    +0.219 C 
ATOM      8  O   UNL     1       8.133   2.120   0.805  0.00  0.00    -0.275 OA
ATOM      9  H   UNL     1       5.835   4.174   0.645  0.00  0.00    +0.157 HD
ENDROOT
BRANCH   1  12
ATOM     10  C   UNL     1       1.849   2.508  -1.678  0.00  0.00    +0.064 C 
ATOM     11  C   UNL     1       1.356   1.448  -0.727  0.00  0.00    +0.023 A 
ATOM     12  C   UNL     1       2.137   0.737   0.121  0.00  0.00    +0.029 A 
ATOM     13  C   UNL     1       1.245  -0.175   0.854  0.00  0.00    +0.009 A 
ATOM     14  C   UNL     1       1.446  -1.139   1.841  0.00  0.00    +0.010 A 
ATOM     15  C   UNL     1       0.381  -1.841   2.333  0.00  0.00    +0.001 A 
ATOM     16  C   UNL     1      -0.901  -1.600   1.856  0.00  0.00    +0.002 A 
ATOM     17  C   UNL     1      -1.120  -0.656   0.877  0.00  0.00    +0.026 A 
ATOM     18  C   UNL     1      -0.050   0.072   0.367  0.00  0.00    +0.047 A 
ATOM     19  N   UNL     1       0.051   1.060  -0.588  0.00  0.00    -0.358 N 
ATOM     20  H   UNL     1      -0.694   1.427  -1.090  0.00  0.00    +0.166 HD
ENDBRANCH   1  12
BRANCH   7  21
ATOM     21  C   UNL     1       8.432   4.458   0.929  0.00  0.00    +0.097 C 
BRANCH  21  22
ATOM     22  C   UNL     1       9.906   4.074   1.069  0.00  0.00    +0.026 C 
BRANCH  22  23
ATOM     23  C   UNL     1      10.752   5.342   1.208  0.00  0.00    +0.109 C 
BRANCH  23  24
ATOM     24  N   UNL     1      12.164   4.975   1.341  0.00  0.00    -0.179 NA
ATOM     25  C   UNL     1      12.975   4.734   0.145  0.00  0.00    +0.131 C 
BRANCH  24  26
ATOM     26  S   UNL     1      12.844   4.833   2.845  0.00  0.00    +0.067 S 
ATOM     27  O   UNL     1      14.241   5.032   2.680  0.00  0.00    -0.152 OA
ATOM     28  O   UNL     1      12.059   5.629   3.722  0.00  0.00    -0.152 OA
BRANCH  26  29
ATOM     29  C   UNL     1      12.630   3.160   3.356  0.00  0.00    +0.143 A 
ATOM     30  C   UNL     1      13.447   2.096   3.159  0.00  0.00    +0.036 A 
ATOM     31  C   UNL     1      13.074   0.863   3.659  0.00  0.00    +0.010 A 
ATOM     32  C   UNL     1      11.898   0.751   4.323  0.00  0.00    +0.047 A 
ATOM     33  S   UNL     1      11.280   2.425   4.263  0.00  0.00    -0.077 S 
ENDBRANCH  26  29
ENDBRANCH  24  26
ENDBRANCH  23  24
ENDBRANCH  22  23
ENDBRANCH  21  22
ENDBRANCH   7  21
TORSDOF 7
