REMARK  Name = ZINC12412767
REMARK  12 active torsions:
REMARK  status: ('A' for Active; 'I' for Inactive)
REMARK    1  A    between atoms: C_1  and  C_2
REMARK    2  A    between atoms: C_2  and  O_3
REMARK    3  A    between atoms: O_3  and  C_4
REMARK    4  A    between atoms: C_4  and  C_6
REMARK    5  A    between atoms: C_7  and  N_33
REMARK    6  A    between atoms: C_11  and  C_13
REMARK    7  A    between atoms: C_15  and  C_18
REMARK    8  A    between atoms: C_18  and  S_19
REMARK    9  A    between atoms: S_19  and  C_20
REMARK   10  A    between atoms: N_24  and  C_25
REMARK   11  A    between atoms: C_29  and  C_31
REMARK   12  A    between atoms: C_29  and  C_32
REMARK                            x       y       z     vdW  Elec       q    Type
REMARK                         _______ _______ _______ _____ _____    ______ ____
ROOT
ATOM      1  C   UNL     1      -2.788  -2.392  -0.010  0.00  0.00    +0.106 C 
ATOM      2  C   UNL     1      -2.944  -3.740  -0.087  0.00  0.00    +0.195 C 
ATOM      3  O   UNL     1      -4.164  -4.298  -0.056  0.00  0.00    -0.446 OA
ATOM      4  C   UNL     1      -5.208  -3.624   0.464  0.00  0.00    +0.115 C 
ATOM      5  C   UNL     1      -5.188  -2.283   0.569  0.00  0.00    +0.046 C 
ATOM      6  C   UNL     1      -3.985  -1.493   0.119  0.00  0.00    +0.104 C 
ATOM      7  C   UNL     1      -6.284  -1.575   1.101  0.00  0.00    +0.164 C 
ATOM      8  O   UNL     1      -6.224  -0.366   1.195  0.00  0.00    -0.292 OA
ATOM      9  C   UNL     1      -7.529  -2.290   1.553  0.00  0.00    +0.086 C 
ATOM     10  C   UNL     1      -7.676  -3.586   0.749  0.00  0.00    -0.021 C 
ATOM     11  C   UNL     1      -6.405  -4.417   0.932  0.00  0.00    +0.081 C 
ATOM     12  C   UNL     1      -8.884  -4.374   1.261  0.00  0.00    +0.012 C 
ATOM     13  C   UNL     1      -7.864  -3.254  -0.733  0.00  0.00    +0.012 C 
ENDROOT
BRANCH   6  14
ATOM     14  C   UNL     1      -4.281  -0.860  -1.216  0.00  0.00    +0.002 A 
ATOM     15  C   UNL     1      -4.304   0.453  -1.552  0.00  0.00    +0.016 A 
ATOM     16  C   UNL     1      -4.603   0.807  -2.854  0.00  0.00    -0.030 A 
ATOM     17  C   UNL     1      -4.864  -0.170  -3.757  0.00  0.00    +0.050 A 
ATOM     18  S   UNL     1      -4.683  -1.645  -2.768  0.00  0.00    -0.100 S 
BRANCH  16  19
ATOM     19  C   UNL     1      -4.638   2.256  -3.264  0.00  0.00    +0.113 C 
BRANCH  19  20
ATOM     20  S   UNL     1      -2.991   2.765  -3.830  0.00  0.00    -0.080 S 
BRANCH  20  21
ATOM     21  C   UNL     1      -3.196   4.460  -4.267  0.00  0.00    +0.209 A 
ATOM     22  N   UNL     1      -4.305   5.161  -4.181  0.00  0.00    -0.102 NA
ATOM     23  N   UNL     1      -4.109   6.365  -4.582  0.00  0.00    -0.022 NA
ATOM     24  N   UNL     1      -2.882   6.521  -4.946  0.00  0.00    -0.043 NA
ATOM     25  N   UNL     1      -2.238   5.287  -4.750  0.00  0.00    -0.223 N 
ATOM     26  C   UNL     1      -0.834   4.964  -5.013  0.00  0.00    +0.177 C 
ENDBRANCH  20  21
ENDBRANCH  19  20
ENDBRANCH  16  19
ENDBRANCH   6  14
BRANCH   2  27
ATOM     27  N   UNL     1      -1.839  -4.540  -0.198  0.00  0.00    -0.329 N 
ATOM     28  H   UNL     1      -0.951  -4.154  -0.131  0.00  0.00    +0.145 HD
ATOM     29  H   UNL     1      -1.943  -5.494  -0.345  0.00  0.00    +0.145 HD
ENDBRANCH   2  27
BRANCH   1  30
ATOM     30  C   UNL     1      -1.500  -1.836  -0.046  0.00  0.00    +0.341 C 
ATOM     31  O   UNL     1      -0.968  -1.464   0.985  0.00  0.00    -0.245 OA
BRANCH  30  32
ATOM     32  O   UNL     1      -0.850  -1.714  -1.223  0.00  0.00    -0.462 OA
BRANCH  32  34
ATOM     33  C   UNL     1       1.032  -1.083  -2.603  0.00  0.00    +0.048 C 
ATOM     34  C   UNL     1       0.458  -1.139  -1.185  0.00  0.00    +0.229 C 
ENDBRANCH  32  34
ENDBRANCH  30  32
ENDBRANCH   1  30
TORSDOF 8
