REMARK  Name = ZINC37443521
REMARK  2 active torsions:
REMARK  status: ('A' for Active; 'I' for Inactive)
REMARK    1  A    between atoms: C_1  and  N_2
REMARK    2  A    between atoms: C_11  and  C_12
REMARK                            x       y       z     vdW  Elec       q    Type
REMARK                         _______ _______ _______ _____ _____    ______ ____
ROOT
ATOM      1  C   UNL     1      -2.680   0.247   0.871  0.00  0.00    +0.151 C 
ATOM      2  N   UNL     1      -1.535  -0.556   0.436  0.00  0.00    -0.326 N 
ATOM      3  C   UNL     1      -1.423  -1.248  -0.755  0.00  0.00    +0.087 A 
ATOM      4  C   UNL     1      -0.160  -1.867  -0.733  0.00  0.00    +0.091 A 
ATOM      5  C   UNL     1       0.241  -2.648  -1.821  0.00  0.00    +0.030 A 
ATOM      6  C   UNL     1      -0.592  -2.804  -2.892  0.00  0.00    +0.004 A 
ATOM      7  C   UNL     1      -1.838  -2.194  -2.915  0.00  0.00    +0.022 A 
ATOM      8  C   UNL     1      -2.256  -1.418  -1.853  0.00  0.00    +0.067 A 
ATOM      9 CL   UNL     1      -3.817  -0.659  -1.889  0.00  0.00    -0.081 Cl
ATOM     10  N   UNL     1       0.428  -1.533   0.441  0.00  0.00    -0.227 NA
ATOM     11  C   UNL     1      -0.373  -0.758   1.131  0.00  0.00    +0.144 A 
ENDROOT
BRANCH  11  12
ATOM     12  C   UNL     1      -0.069  -0.190   2.461  0.00  0.00    +0.049 C 
ATOM     13  C   UNL     1       0.148  -0.993   3.485  0.00  0.00    -0.043 C 
ATOM     14  C   UNL     1       0.524  -0.310   4.801  0.00  0.00    +0.079 C 
ATOM     15  S   UNL     1       0.342   1.462   4.382  0.00  0.00    -0.098 S 
ATOM     16  C   UNL     1      -0.003   1.278   2.639  0.00  0.00    +0.099 C 
ATOM     17  N   UNL     1      -0.161   2.211   1.741  0.00  0.00    -0.292 NA
ATOM     18  C   UNL     1      -0.528  -0.737   5.826  0.00  0.00    +0.019 C 
ATOM     19  C   UNL     1      -0.530  -2.268   5.901  0.00  0.00    +0.002 C 
ATOM     20  C   UNL     1      -0.961  -2.887   4.574  0.00  0.00    +0.004 C 
ATOM     21  C   UNL     1       0.026  -2.514   3.458  0.00  0.00    +0.032 C 
ATOM     22  H   UNL     1      -0.274   1.972   0.808  0.00  0.00    +0.187 HD
ENDBRANCH  11  12
TORSDOF 1
