REMARK  Name = ZINC40986645
REMARK  14 active torsions:
REMARK  status: ('A' for Active; 'I' for Inactive)
REMARK    1  A    between atoms: C_1  and  C_2
REMARK    2  A    between atoms: C_2  and  C_3
REMARK    3  A    between atoms: C_3  and  C_4
REMARK    4  A    between atoms: C_4  and  S_5
REMARK    5  A    between atoms: S_5  and  C_6
REMARK    6  A    between atoms: C_11  and  C_27
REMARK    7  A    between atoms: C_13  and  C_17
REMARK    8  A    between atoms: C_14  and  C_16
REMARK    9  A    between atoms: N_19  and  C_20
REMARK   10  A    between atoms: C_25  and  C_26
REMARK   11  A    between atoms: C_31  and  O_33
REMARK   12  A    between atoms: O_33  and  C_34
REMARK   13  A    between atoms: C_34  and  C_35
REMARK   14  A    between atoms: C_34  and  C_36
REMARK                            x       y       z     vdW  Elec       q    Type
REMARK                         _______ _______ _______ _____ _____    ______ ____
ROOT
ATOM      1  C   UNL     1      -4.052  -3.212  -0.371  0.00  0.00    +0.210 A 
ATOM      2  N   UNL     1      -2.746  -3.517  -0.383  0.00  0.00    -0.187 NA
ATOM      3  C   UNL     1      -2.592  -4.784  -0.108  0.00  0.00    +0.219 A 
ATOM      4  N   UNL     1      -3.820  -5.326   0.083  0.00  0.00    -0.220 N 
ATOM      5  N   UNL     1      -4.743  -4.294  -0.083  0.00  0.00    -0.141 NA
ATOM      6  C   UNL     1      -4.042  -6.734   0.401  0.00  0.00    +0.177 C 
ATOM      7  C   UNL     1      -2.731  -7.378   0.766  0.00  0.00    +0.060 C 
ATOM      8  C   UNL     1      -1.544  -6.790   0.557  0.00  0.00    +0.018 C 
ATOM      9  N   UNL     1      -1.434  -5.541  -0.003  0.00  0.00    -0.287 N 
ATOM     10  C   UNL     1      -0.288  -7.526   0.949  0.00  0.00    +0.061 C 
ATOM     11  H   UNL     1      -0.580  -5.201  -0.313  0.00  0.00    +0.155 HD
ENDROOT
BRANCH   6  12
ATOM     12  C   UNL     1      -4.627  -7.434  -0.799  0.00  0.00    -0.015 A 
ATOM     13  C   UNL     1      -3.924  -7.471  -1.989  0.00  0.00    +0.006 A 
ATOM     14  C   UNL     1      -4.458  -8.111  -3.091  0.00  0.00    +0.004 A 
ATOM     15  C   UNL     1      -5.698  -8.716  -3.006  0.00  0.00    +0.045 A 
ATOM     16  C   UNL     1      -6.405  -8.681  -1.814  0.00  0.00    +0.121 A 
ATOM     17  C   UNL     1      -5.864  -8.042  -0.707  0.00  0.00    +0.051 A 
BRANCH  16  18
ATOM     18  O   UNL     1      -7.625  -9.275  -1.728  0.00  0.00    -0.489 OA
BRANCH  18  19
ATOM     19  C   UNL     1      -8.243  -9.304  -0.440  0.00  0.00    +0.167 C 
ATOM     20  C   UNL     1      -8.982  -7.986  -0.199  0.00  0.00    +0.051 C 
ATOM     21  C   UNL     1      -9.237 -10.466  -0.377  0.00  0.00    +0.051 C 
ENDBRANCH  18  19
ENDBRANCH  16  18
ENDBRANCH   6  12
BRANCH   7  22
ATOM     22  C   UNL     1      -2.752  -8.662   1.360  0.00  0.00    +0.248 C 
ATOM     23  O   UNL     1      -3.022  -8.782   2.541  0.00  0.00    -0.270 OA
ATOM     24  N   UNL     1      -2.475  -9.752   0.617  0.00  0.00    -0.281 N 
ATOM     25  H   UNL     1      -2.210  -9.652  -0.311  0.00  0.00    +0.155 HD
BRANCH  24  26
ATOM     26  C   UNL     1      -2.568 -11.027   1.184  0.00  0.00    +0.037 A 
ATOM     27  C   UNL     1      -2.361 -11.199   2.547  0.00  0.00    +0.023 A 
ATOM     28  C   UNL     1      -2.454 -12.459   3.104  0.00  0.00    +0.002 A 
ATOM     29  C   UNL     1      -2.754 -13.549   2.307  0.00  0.00    +0.000 A 
ATOM     30  C   UNL     1      -2.961 -13.381   0.950  0.00  0.00    +0.005 A 
ATOM     31  C   UNL     1      -2.875 -12.122   0.388  0.00  0.00    -0.029 A 
ATOM     32  C   UNL     1      -3.107 -11.939  -1.090  0.00  0.00    +0.045 C 
ENDBRANCH  24  26
ENDBRANCH   7  22
BRANCH   1  33
ATOM     33  S   UNL     1      -4.733  -1.617  -0.685  0.00  0.00    -0.084 S 
BRANCH  33  34
ATOM     34  C   UNL     1      -3.283  -0.578  -1.013  0.00  0.00    +0.077 C 
BRANCH  34  35
ATOM     35  C   UNL     1      -3.736   0.854  -1.305  0.00  0.00    +0.011 C 
BRANCH  35  37
ATOM     36  C   UNL     1      -2.967   3.162  -1.873  0.00  0.00    +0.004 C 
ATOM     37  C   UNL     1      -2.513   1.730  -1.582  0.00  0.00    -0.003 C 
ENDBRANCH  35  37
ENDBRANCH  34  35
ENDBRANCH  33  34
ENDBRANCH   1  33
TORSDOF 9
