REMARK  Name = ZINC34979259
REMARK  13 active torsions:
REMARK  status: ('A' for Active; 'I' for Inactive)
REMARK    1  A    between atoms: C_1  and  C_2
REMARK    2  A    between atoms: C_2  and  C_3
REMARK    3  A    between atoms: C_3  and  C_5
REMARK    4  A    between atoms: C_3  and  C_6
REMARK    5  A    between atoms: C_6  and  C_8
REMARK    6  A    between atoms: C_6  and  N_27
REMARK    7  A    between atoms: C_14  and  C_17
REMARK    8  A    between atoms: C_18  and  C_20
REMARK    9  A    between atoms: C_20  and  C_21
REMARK   10  A    between atoms: C_21  and  C_22
REMARK   11  A    between atoms: C_28  and  C_30
REMARK   12  A    between atoms: C_31  and  C_32
REMARK   13  A    between atoms: C_35  and  N_38
REMARK                            x       y       z     vdW  Elec       q    Type
REMARK                         _______ _______ _______ _____ _____    ______ ____
ROOT
ATOM      1  C   UNL     1      -1.419  -2.061  -0.121  0.00  0.00    +0.162 C 
ENDROOT
BRANCH   1   2
ATOM      2  C   UNL     1      -0.849  -2.396  -1.476  0.00  0.00    +0.236 C 
ATOM      3  O   UNL     1       0.109  -3.134  -1.565  0.00  0.00    -0.274 OA
ATOM      4  N   UNL     1      -1.404  -1.875  -2.588  0.00  0.00    -0.297 N 
ATOM      5  C   UNL     1      -2.487  -0.887  -2.491  0.00  0.00    +0.127 C 
ATOM      6  C   UNL     1      -3.689  -1.396  -3.296  0.00  0.00    +0.127 C 
ATOM      7  N   UNL     1      -3.222  -1.806  -4.628  0.00  0.00    -0.296 N 
ATOM      8  C   UNL     1      -2.138  -2.794  -4.726  0.00  0.00    +0.090 C 
ATOM      9  C   UNL     1      -0.933  -2.281  -3.920  0.00  0.00    +0.130 C 
ATOM     10  C   UNL     1      -2.612  -4.133  -4.157  0.00  0.00    +0.029 C 
ATOM     11  C   UNL     1      -3.777  -1.285  -5.740  0.00  0.00    +0.216 C 
ATOM     12  O   UNL     1      -3.383  -1.631  -6.834  0.00  0.00    -0.276 OA
BRANCH  11  13
ATOM     13  C   UNL     1      -4.888  -0.273  -5.625  0.00  0.00    +0.096 C 
BRANCH  13  14
ATOM     14  C   UNL     1      -5.336   0.154  -7.024  0.00  0.00    +0.013 C 
BRANCH  14  15
ATOM     15  C   UNL     1      -6.463   1.182  -6.907  0.00  0.00    -0.011 C 
ATOM     16  C   UNL     1      -7.730   0.513  -6.334  0.00  0.00    +0.003 C 
ATOM     17  C   UNL     1      -8.896   1.191  -7.097  0.00  0.00    +0.000 C 
ATOM     18  C   UNL     1      -8.322   1.349  -8.527  0.00  0.00    +0.000 C 
ATOM     19  C   UNL     1      -6.840   1.713  -8.301  0.00  0.00    +0.003 C 
ENDBRANCH  14  15
ENDBRANCH  13  14
ENDBRANCH  11  13
ENDBRANCH   1   2
BRANCH   1  20
ATOM     20  N   UNL     1      -1.012  -3.084   0.846  0.00  0.00    -0.300 N 
ATOM     21  C   UNL     1      -1.758  -3.305   1.946  0.00  0.00    +0.238 C 
ATOM     22  O   UNL     1      -2.769  -2.655   2.137  0.00  0.00    -0.271 OA
ATOM     23  H   UNL     1      -0.206  -3.602   0.694  0.00  0.00    +0.150 HD
BRANCH  21  24
ATOM     24  C   UNL     1      -1.351  -4.327   2.913  0.00  0.00    +0.068 C 
ATOM     25  C   UNL     1      -2.097  -4.548   4.014  0.00  0.00    +0.013 C 
BRANCH  25  26
ATOM     26  C   UNL     1      -1.689  -5.576   4.985  0.00  0.00    -0.025 A 
ATOM     27  C   UNL     1      -0.524  -6.320   4.773  0.00  0.00    +0.010 A 
ATOM     28  C   UNL     1      -0.148  -7.281   5.688  0.00  0.00    +0.033 A 
ATOM     29  C   UNL     1      -0.920  -7.509   6.814  0.00  0.00    +0.126 A 
ATOM     30  C   UNL     1      -2.074  -6.776   7.031  0.00  0.00    +0.033 A 
ATOM     31  C   UNL     1      -2.460  -5.808   6.128  0.00  0.00    +0.010 A 
BRANCH  29  32
ATOM     32  N   UNL     1      -0.509  -8.542   7.791  0.00  0.00    +0.056 N 
ATOM     33  O   UNL     1       0.498  -9.184   7.605  0.00  0.00    -0.126 OA
ATOM     34  O   UNL     1      -1.181  -8.744   8.776  0.00  0.00    -0.126 OA
ENDBRANCH  29  32
ENDBRANCH  25  26
ENDBRANCH  21  24
ENDBRANCH   1  20
BRANCH   1  35
ATOM     35  C   UNL     1      -0.894  -0.696   0.329  0.00  0.00    +0.015 C 
ATOM     36  C   UNL     1      -1.575  -0.296   1.639  0.00  0.00    +0.010 C 
BRANCH  35  38
ATOM     37  C   UNL     1       1.161   0.616   0.873  0.00  0.00    +0.004 C 
ATOM     38  C   UNL     1       0.618  -0.776   0.544  0.00  0.00    +0.002 C 
ENDBRANCH  35  38
ENDBRANCH   1  35
TORSDOF 10
