REMARK  Name = ZINC13660201
REMARK  14 active torsions:
REMARK  status: ('A' for Active; 'I' for Inactive)
REMARK    1  A    between atoms: C_1  and  C_2
REMARK    2  A    between atoms: C_8  and  C_33
REMARK    3  A    between atoms: C_8  and  C_34
REMARK    4  A    between atoms: C_9  and  C_10
REMARK    5  A    between atoms: C_9  and  O_32
REMARK    6  A    between atoms: C_11  and  C_12
REMARK    7  A    between atoms: C_12  and  C_14
REMARK    8  A    between atoms: C_12  and  O_15
REMARK    9  A    between atoms: O_15  and  C_16
REMARK   10  A    between atoms: C_18  and  O_31
REMARK   11  A    between atoms: C_20  and  O_30
REMARK   12  A    between atoms: C_22  and  O_29
REMARK   13  A    between atoms: C_24  and  C_27
REMARK   14  A    between atoms: C_27  and  O_28
REMARK                            x       y       z     vdW  Elec       q    Type
REMARK                         _______ _______ _______ _____ _____    ______ ____
ROOT
ATOM      1  C   UNL     1       5.819   2.847  -1.374  0.00  0.00    +0.141 C 
ATOM      2  C   UNL     1       5.941   4.371  -1.306  0.00  0.00    +0.042 C 
ENDROOT
BRANCH   1   4
ATOM      3  C   UNL     1       3.733   1.727  -0.777  0.00  0.00    +0.006 C 
ATOM      4  C   UNL     1       4.384   2.470  -1.638  0.00  0.00    +0.002 C 
BRANCH   3  12
ATOM      5  C   UNL     1       2.972  -0.838   0.027  0.00  0.00    +0.011 C 
ATOM      6  C   UNL     1       2.197  -0.168  -1.104  0.00  0.00    +0.029 C 
ATOM      7  C   UNL     1       0.753  -0.666  -1.133  0.00  0.00    +0.080 C 
ATOM      8  C   UNL     1       0.002  -0.004   0.002  0.00  0.00    +0.134 C 
ATOM      9  O   UNL     1      -0.552  -0.650   0.854  0.00  0.00    -0.297 OA
ATOM     10  C   UNL     1      -0.018   1.507   0.010  0.00  0.00    +0.083 C 
ATOM     11  C   UNL     1       1.417   2.029  -0.001  0.00  0.00    +0.004 C 
ATOM     12  C   UNL     1       2.288   1.346  -1.042  0.00  0.00    +0.093 C 
ATOM     13  C   UNL     1       1.363   3.534  -0.344  0.00  0.00    +0.014 C 
ATOM     14  C   UNL     1       2.024   1.903   1.399  0.00  0.00    +0.014 C 
BRANCH  12  15
ATOM     15  O   UNL     1       1.942   1.876  -2.336  0.00  0.00    -0.384 OA
ATOM     16  H   UNL     1       2.518   1.575  -3.052  0.00  0.00    +0.211 HD
ENDBRANCH  12  15
ENDBRANCH   3  12
ENDBRANCH   1   4
BRANCH   1  17
ATOM     17  O   UNL     1       6.644   2.350  -2.430  0.00  0.00    -0.342 OA
BRANCH  17  18
ATOM     18  C   UNL     1       7.976   2.030  -2.025  0.00  0.00    +0.282 C 
ATOM     19  C   UNL     1       8.728   1.395  -3.197  0.00  0.00    +0.201 C 
ATOM     20  C   UNL     1       8.820   2.407  -4.343  0.00  0.00    +0.179 C 
ATOM     21  C   UNL     1       9.507   3.678  -3.833  0.00  0.00    +0.177 C 
ATOM     22  C   UNL     1       8.725   4.225  -2.636  0.00  0.00    +0.178 C 
ATOM     23  O   UNL     1       8.650   3.224  -1.619  0.00  0.00    -0.341 OA
BRANCH  21  24
ATOM     24  O   UNL     1      10.843   3.370  -3.431  0.00  0.00    -0.386 OA
ATOM     25  H   UNL     1      11.395   3.013  -4.140  0.00  0.00    +0.210 HD
ENDBRANCH  21  24
BRANCH  20  26
ATOM     26  O   UNL     1       9.584   1.849  -5.414  0.00  0.00    -0.386 OA
ATOM     27  H   UNL     1       9.210   1.036  -5.782  0.00  0.00    +0.210 HD
ENDBRANCH  20  26
BRANCH  19  28
ATOM     28  O   UNL     1       8.024   0.233  -3.642  0.00  0.00    -0.384 OA
ATOM     29  H   UNL     1       7.924  -0.449  -2.965  0.00  0.00    +0.210 HD
ENDBRANCH  19  28
BRANCH  22  30
ATOM     30  C   UNL     1       9.438   5.461  -2.083  0.00  0.00    +0.190 C 
BRANCH  30  31
ATOM     31  O   UNL     1       8.649   6.040  -1.041  0.00  0.00    -0.392 OA
ATOM     32  H   UNL     1       9.041   6.829  -0.644  0.00  0.00    +0.210 HD
ENDBRANCH  30  31
ENDBRANCH  22  30
ENDBRANCH  17  18
ENDBRANCH   1  17
TORSDOF 10
