REMARK  Name = ZINC37819991
REMARK  6 active torsions:
REMARK  status: ('A' for Active; 'I' for Inactive)
REMARK    1  A    between atoms: C_1  and  S_2
REMARK    2  A    between atoms: S_2  and  N_5
REMARK    3  A    between atoms: N_5  and  C_6
REMARK    4  A    between atoms: C_6  and  C_7
REMARK    5  A    between atoms: C_14  and  C_16
REMARK    6  A    between atoms: C_19  and  O_23
REMARK                            x       y       z     vdW  Elec       q    Type
REMARK                         _______ _______ _______ _____ _____    ______ ____
ROOT
ATOM      1  C   UNL     1       2.792  -0.854  -2.733  0.00  0.00    +0.022 C 
ATOM      2  C   UNL     1       2.785  -2.346  -2.395  0.00  0.00    +0.008 C 
ATOM      3  C   UNL     1       3.340  -3.143  -3.578  0.00  0.00    +0.019 C 
ATOM      4  C   UNL     1       4.786  -2.714  -3.843  0.00  0.00    +0.108 C 
ATOM      5  N   UNL     1       4.822  -1.257  -4.027  0.00  0.00    -0.303 N 
ATOM      6  C   UNL     1       4.233  -0.399  -2.990  0.00  0.00    +0.112 C 
ATOM      7  C   UNL     1       5.385  -0.717  -5.125  0.00  0.00    +0.202 C 
ATOM      8  O   UNL     1       5.408   0.487  -5.265  0.00  0.00    -0.277 OA
ENDROOT
BRANCH   7   9
ATOM      9  C   UNL     1       5.986  -1.610  -6.181  0.00  0.00    +0.019 C 
ATOM     10  C   UNL     1       7.395  -2.063  -5.745  0.00  0.00    +0.023 C 
ATOM     11  C   UNL     1       8.197  -2.038  -7.073  0.00  0.00    +0.097 C 
ATOM     12  C   UNL     1       7.574  -0.814  -7.790  0.00  0.00    -0.050 C 
ATOM     13  N   UNL     1       6.135  -0.864  -7.444  0.00  0.00    +0.388 N 
ATOM     14  H   UNL     1       5.622  -1.331  -8.177  0.00  0.00    -0.085 HD
ATOM     15  H   UNL     1       5.780   0.074  -7.328  0.00  0.00    -0.085 HD
BRANCH  11  16
ATOM     16  O   UNL     1       9.589  -1.834  -6.826  0.00  0.00    -0.394 OA
ATOM     17  H   UNL     1      10.131  -1.811  -7.626  0.00  0.00    +0.210 HD
ENDBRANCH  11  16
ENDBRANCH   7   9
BRANCH   1  18
ATOM     18  C   UNL     1       2.207  -0.061  -1.563  0.00  0.00    +0.110 C 
BRANCH  18  19
ATOM     19  N   UNL     1       0.795  -0.411  -1.394  0.00  0.00    -0.194 NA
ATOM     20  H   UNL     1       0.324  -0.881  -2.099  0.00  0.00    +0.148 HD
BRANCH  19  22
ATOM     21  C   UNL     1      -0.022   1.810   0.012  0.00  0.00    +0.214 C 
ATOM     22  S   UNL     1       0.002  -0.004   0.002  0.00  0.00    +0.027 S 
ATOM     23  O   UNL     1       0.835  -0.488   1.046  0.00  0.00    -0.158 OA
ATOM     24  O   UNL     1      -1.315  -0.510  -0.168  0.00  0.00    -0.158 OA
ENDBRANCH  19  22
ENDBRANCH  18  19
ENDBRANCH   1  18
TORSDOF 5
