REMARK  Name = ZINC39693523
REMARK  10 active torsions:
REMARK  status: ('A' for Active; 'I' for Inactive)
REMARK    1  A    between atoms: C_1  and  C_2
REMARK    2  A    between atoms: C_2  and  C_3
REMARK    3  A    between atoms: C_2  and  C_4
REMARK    4  A    between atoms: C_2  and  O_5
REMARK    5  A    between atoms: O_5  and  C_6
REMARK    6  A    between atoms: N_8  and  C_9
REMARK    7  A    between atoms: C_9  and  C_10
REMARK    8  A    between atoms: C_10  and  N_11
REMARK    9  A    between atoms: C_12  and  C_14
REMARK   10  A    between atoms: C_25  and  C_27
REMARK                            x       y       z     vdW  Elec       q    Type
REMARK                         _______ _______ _______ _____ _____    ______ ____
ROOT
ATOM      1  C   UNL     1       8.095  -0.218  -5.353  0.00  0.00    +0.100 C 
ATOM      2  C   UNL     1       8.950  -0.678  -4.151  0.00  0.00    +0.121 C 
ATOM      3  N   UNL     1       9.539  -1.968  -4.582  0.00  0.00    -0.297 N 
ATOM      4  C   UNL     1       9.883  -1.758  -6.009  0.00  0.00    +0.115 C 
ATOM      5  C   UNL     1       8.713  -0.926  -6.571  0.00  0.00    -0.004 C 
ATOM      6  C   UNL     1       9.229   0.102  -7.574  0.00  0.00    -0.010 C 
ATOM      7  C   UNL     1       9.786  -0.624  -8.802  0.00  0.00    -0.082 C 
ATOM      8  N   UNL     1       8.729  -1.442  -9.409  0.00  0.00    +0.379 N 
ATOM      9  C   UNL     1       8.303  -2.487  -8.471  0.00  0.00    -0.082 C 
ATOM     10  C   UNL     1       7.684  -1.840  -7.229  0.00  0.00    -0.010 C 
ATOM     11  C   UNL     1       9.721  -3.081  -3.844  0.00  0.00    +0.260 C 
ATOM     12  O   UNL     1      10.221  -4.066  -4.345  0.00  0.00    -0.271 OA
ATOM     13  H   UNL     1       7.940  -0.855  -9.637  0.00  0.00    -0.086 HD
ATOM     14  H   UNL     1       9.080  -1.871 -10.252  0.00  0.00    -0.086 HD
ENDROOT
BRANCH  11  15
ATOM     15  C   UNL     1       9.303  -3.102  -2.397  0.00  0.00    +0.296 C 
ATOM     16  C   UNL     1      10.164  -2.116  -1.595  0.00  0.00    +0.283 C 
ATOM     17  O   UNL     1       9.750  -2.172  -0.225  0.00  0.00    -0.484 OA
ATOM     18  C   UNL     1       9.584  -3.410   0.314  0.00  0.00    +0.162 A 
ATOM     19  C   UNL     1       9.545  -3.553   1.693  0.00  0.00    +0.049 A 
ATOM     20  C   UNL     1       9.373  -4.803   2.255  0.00  0.00    +0.004 A 
ATOM     21  C   UNL     1       9.241  -5.916   1.445  0.00  0.00    +0.004 A 
ATOM     22  C   UNL     1       9.281  -5.781   0.070  0.00  0.00    +0.049 A 
ATOM     23  C   UNL     1       9.454  -4.529  -0.501  0.00  0.00    +0.163 A 
ATOM     24  O   UNL     1       9.499  -4.413  -1.856  0.00  0.00    -0.473 OA
ENDBRANCH  11  15
BRANCH   1  26
ATOM     25  N   UNL     1       5.668   0.076  -5.730  0.00  0.00    -0.314 N 
ATOM     26  C   UNL     1       6.661  -0.644  -5.171  0.00  0.00    +0.218 C 
ATOM     27  O   UNL     1       6.400  -1.634  -4.521  0.00  0.00    -0.275 OA
ATOM     28  H   UNL     1       5.877   0.868  -6.250  0.00  0.00    +0.149 HD
BRANCH  25  29
ATOM     29  C   UNL     1       4.274  -0.337  -5.553  0.00  0.00    +0.123 C 
BRANCH  29  30
ATOM     30  C   UNL     1       3.355   0.643  -6.283  0.00  0.00    +0.126 C 
BRANCH  30  33
ATOM     31  C   UNL     1       0.968   0.949  -6.665  0.00  0.00    +0.401 C 
ATOM     32  O   UNL     1       1.229   1.941  -7.317  0.00  0.00    -0.226 OA
ATOM     33  N   UNL     1       1.960   0.230  -6.106  0.00  0.00    -0.280 N 
ATOM     34  H   UNL     1       1.752  -0.562  -5.586  0.00  0.00    +0.152 HD
BRANCH  31  35
ATOM     35  O   UNL     1      -0.314   0.569  -6.502  0.00  0.00    -0.445 OA
BRANCH  35  37
ATOM     36  C   UNL     1      -1.083   1.406  -8.635  0.00  0.00    +0.055 C 
ATOM     37  C   UNL     1      -1.314   1.379  -7.123  0.00  0.00    +0.107 C 
ATOM     38  C   UNL     1      -1.234   2.803  -6.569  0.00  0.00    +0.055 C 
ATOM     39  C   UNL     1      -2.697   0.794  -6.829  0.00  0.00    +0.055 C 
ENDBRANCH  35  37
ENDBRANCH  31  35
ENDBRANCH  30  33
ENDBRANCH  29  30
ENDBRANCH  25  29
ENDBRANCH   1  26
TORSDOF 7
