REMARK  Name = ZINC08436133
REMARK  4 active torsions:
REMARK  status: ('A' for Active; 'I' for Inactive)
REMARK    1  A    between atoms: C_4  and  N_7
REMARK    2  A    between atoms: C_10  and  N_15
REMARK    3  A    between atoms: N_15  and  C_16
REMARK    4  A    between atoms: C_19  and  N_22
REMARK                            x       y       z     vdW  Elec       q    Type
REMARK                         _______ _______ _______ _____ _____    ______ ____
ROOT
ATOM      1  N   UNL     1       3.329   0.811   0.350  0.00  0.00    -0.199 N 
ATOM      2  C   UNL     1       2.076   0.714   0.761  0.00  0.00    +0.258 C 
ATOM      3  O   UNL     1       1.781   0.215   1.826  0.00  0.00    -0.272 OA
ATOM      4  C   UNL     1       1.030   1.271  -0.194  0.00  0.00    +0.226 C 
ATOM      5  S   UNL     1       2.123   1.849  -1.554  0.00  0.00    -0.035 S 
ATOM      6  C   UNL     1       3.680   1.361  -0.827  0.00  0.00    +0.287 C 
ATOM      7  O   UNL     1       4.797   1.495  -1.289  0.00  0.00    -0.262 OA
ENDROOT
BRANCH   1  11
ATOM      8  C   UNL     1       6.345  -0.660   2.824  0.00  0.00    +0.000 A 
ATOM      9  C   UNL     1       5.870  -1.433   1.781  0.00  0.00    +0.002 A 
ATOM     10  C   UNL     1       4.870  -0.948   0.959  0.00  0.00    +0.024 A 
ATOM     11  C   UNL     1       4.343   0.317   1.182  0.00  0.00    +0.045 A 
ATOM     12  C   UNL     1       4.826   1.093   2.227  0.00  0.00    +0.024 A 
ATOM     13  C   UNL     1       5.821   0.600   3.049  0.00  0.00    +0.002 A 
ENDBRANCH   1  11
BRANCH   4  14
ATOM     14  N   UNL     1       0.116   0.223  -0.654  0.00  0.00    -0.325 N 
ATOM     15  H   UNL     1       0.463  -0.649  -0.901  0.00  0.00    +0.148 HD
BRANCH  14  16
ATOM     16  C   UNL     1      -1.254   0.481  -0.742  0.00  0.00    +0.028 A 
ATOM     17  C   UNL     1      -1.744   1.748  -0.452  0.00  0.00    +0.025 A 
ATOM     18  C   UNL     1      -3.098   2.000  -0.546  0.00  0.00    +0.034 A 
ATOM     19  C   UNL     1      -3.968   0.991  -0.917  0.00  0.00    +0.126 A 
ATOM     20  C   UNL     1      -3.483  -0.273  -1.202  0.00  0.00    +0.034 A 
ATOM     21  C   UNL     1      -2.130  -0.531  -1.115  0.00  0.00    +0.025 A 
BRANCH  19  22
ATOM     22  N   UNL     1      -5.419   1.264  -1.012  0.00  0.00    +0.056 N 
ATOM     23  O   UNL     1      -6.186   0.376  -1.339  0.00  0.00    -0.126 OA
ATOM     24  O   UNL     1      -5.847   2.377  -0.762  0.00  0.00    -0.126 OA
ENDBRANCH  19  22
ENDBRANCH  14  16
ENDBRANCH   4  14
TORSDOF 4
