REMARK  Name = ZINC33810572
REMARK  7 active torsions:
REMARK  status: ('A' for Active; 'I' for Inactive)
REMARK    1  A    between atoms: C_1  and  C_2
REMARK    2  A    between atoms: C_5  and  C_8
REMARK    3  A    between atoms: C_8  and  S_9
REMARK    4  A    between atoms: S_9  and  C_10
REMARK    5  A    between atoms: C_17  and  C_29
REMARK    6  A    between atoms: C_23  and  C_27
REMARK    7  A    between atoms: C_23  and  C_28
REMARK                            x       y       z     vdW  Elec       q    Type
REMARK                         _______ _______ _______ _____ _____    ______ ____
ROOT
ATOM      1  C   UNL     1       4.644   2.944   3.466  0.00  0.00    +0.171 A 
ATOM      2  N   UNL     1       4.997   2.393   2.271  0.00  0.00    -0.208 NA
ATOM      3  C   UNL     1       4.297   2.710   1.136  0.00  0.00    +0.135 A 
ATOM      4  C   UNL     1       3.248   3.572   1.219  0.00  0.00    +0.069 A 
ATOM      5  C   UNL     1       2.916   4.122   2.475  0.00  0.00    +0.258 A 
ATOM      6  O   UNL     1       1.981   4.903   2.577  0.00  0.00    -0.267 OA
ATOM      7  N   UNL     1       3.633   3.784   3.558  0.00  0.00    -0.302 N 
ATOM      8  C   UNL     1       2.452   3.936   0.000  0.00  0.00    +0.094 C 
ATOM      9  C   UNL     1       3.210   3.615  -1.263  0.00  0.00    +0.024 C 
ATOM     10  C   UNL     1       4.253   2.758  -1.247  0.00  0.00    +0.017 C 
ATOM     11  N   UNL     1       4.653   2.169  -0.078  0.00  0.00    -0.302 N 
ATOM     12  C   UNL     1       5.004   2.425  -2.512  0.00  0.00    +0.058 C 
ATOM     13  C   UNL     1       4.976   3.628  -3.458  0.00  0.00    -0.023 C 
ATOM     14  C   UNL     1       3.514   3.978  -3.754  0.00  0.00    +0.086 C 
ATOM     15  C   UNL     1       2.800   4.235  -2.456  0.00  0.00    +0.162 C 
ATOM     16  O   UNL     1       1.849   4.992  -2.438  0.00  0.00    -0.292 OA
ATOM     17  C   UNL     1       5.666   4.820  -2.794  0.00  0.00    +0.011 C 
ATOM     18  C   UNL     1       5.699   3.275  -4.760  0.00  0.00    +0.011 C 
ATOM     19  H   UNL     1       5.264   1.254  -0.114  0.00  0.00    +0.153 HD
ATOM     20  H   UNL     1       3.366   4.218   4.533  0.00  0.00    +0.171 HD
ENDROOT
BRANCH   8  21
ATOM     21  C   UNL     1       1.157   3.165   0.008  0.00  0.00    -0.017 A 
ATOM     22  C   UNL     1       1.175   1.783   0.000  0.00  0.00    +0.006 A 
ATOM     23  C   UNL     1      -0.013   1.076   0.008  0.00  0.00    +0.000 A 
ATOM     24  C   UNL     1      -1.219   1.750   0.017  0.00  0.00    +0.001 A 
ATOM     25  C   UNL     1      -1.239   3.132   0.031  0.00  0.00    +0.020 A 
ATOM     26  C   UNL     1      -0.050   3.841   0.023  0.00  0.00    +0.045 A 
ATOM     27 CL   UNL     1      -0.074   5.576   0.033  0.00  0.00    -0.083 Cl
ENDBRANCH   8  21
BRANCH   1  28
ATOM     28  S   UNL     1       5.555   2.525   4.914  0.00  0.00    -0.083 S 
BRANCH  28  29
ATOM     29  C   UNL     1       4.668   3.516   6.142  0.00  0.00    +0.112 C 
BRANCH  29  34
ATOM     30  C   UNL     1       7.056   2.730  11.345  0.00  0.00    +0.044 C 
ATOM     31  C   UNL     1       6.433   2.935   9.988  0.00  0.00    -0.050 A 
ATOM     32  C   UNL     1       6.891   3.945   9.163  0.00  0.00    +0.003 A 
ATOM     33  C   UNL     1       6.319   4.133   7.918  0.00  0.00    +0.005 A 
ATOM     34  C   UNL     1       5.291   3.311   7.499  0.00  0.00    -0.037 A 
ATOM     35  C   UNL     1       4.830   2.304   8.326  0.00  0.00    +0.005 A 
ATOM     36  C   UNL     1       5.404   2.113   9.569  0.00  0.00    +0.003 A 
ENDBRANCH  29  34
ENDBRANCH  28  29
ENDBRANCH   1  28
TORSDOF 4
