REMARK  Name = ZINC32703873
REMARK  10 active torsions:
REMARK  status: ('A' for Active; 'I' for Inactive)
REMARK    1  A    between atoms: C_1  and  C_2
REMARK    2  A    between atoms: C_5  and  N_9
REMARK    3  A    between atoms: C_13  and  S_14
REMARK    4  A    between atoms: S_14  and  C_15
REMARK    5  A    between atoms: C_15  and  C_16
REMARK    6  A    between atoms: N_18  and  C_19
REMARK    7  A    between atoms: C_19  and  C_20
REMARK    8  A    between atoms: C_20  and  N_27
REMARK    9  A    between atoms: N_27  and  C_28
REMARK   10  A    between atoms: N_27  and  C_29
REMARK                            x       y       z     vdW  Elec       q    Type
REMARK                         _______ _______ _______ _____ _____    ______ ____
ROOT
ATOM      1  C   UNL     1       0.990   1.203  -0.655  0.00  0.00    +0.223 C 
ATOM      2  O   UNL     1       0.286   2.037  -0.125  0.00  0.00    -0.275 OA
ATOM      3  N   UNL     1       0.655  -0.101  -0.592  0.00  0.00    -0.316 N 
ATOM      4  H   UNL     1       1.291  -0.856  -1.077  0.00  0.00    +0.149 HD
ENDROOT
BRANCH   1   5
ATOM      5  C   UNL     1       2.236   1.627  -1.391  0.00  0.00    +0.173 C 
BRANCH   5   6
ATOM      6  S   UNL     1       2.409   3.426  -1.297  0.00  0.00    -0.076 S 
BRANCH   6  11
ATOM      7  N   UNL     1       4.533   4.821  -2.474  0.00  0.00    -0.277 N 
ATOM      8  C   UNL     1       5.642   4.493  -3.208  0.00  0.00    +0.230 A 
ATOM      9  N   UNL     1       5.641   3.198  -3.353  0.00  0.00    -0.137 NA
ATOM     10  N   UNL     1       4.620   2.687  -2.763  0.00  0.00    -0.122 NA
ATOM     11  C   UNL     1       3.901   3.637  -2.211  0.00  0.00    +0.196 A 
BRANCH   7  16
ATOM     12  C   UNL     1       2.896  10.014  -0.867  0.00  0.00    +0.045 C 
ATOM     13  C   UNL     1       3.331   8.636  -1.293  0.00  0.00    -0.032 A 
ATOM     14  C   UNL     1       2.430   7.788  -1.912  0.00  0.00    +0.007 A 
ATOM     15  C   UNL     1       2.827   6.526  -2.308  0.00  0.00    +0.026 A 
ATOM     16  C   UNL     1       4.129   6.104  -2.077  0.00  0.00    +0.051 A 
ATOM     17  C   UNL     1       5.032   6.956  -1.457  0.00  0.00    +0.046 A 
ATOM     18  C   UNL     1       4.631   8.220  -1.066  0.00  0.00    +0.046 A 
ATOM     19 CL   UNL     1       5.760   9.287  -0.290  0.00  0.00    -0.083 Cl
ENDBRANCH   7  16
ENDBRANCH   6  11
ENDBRANCH   5   6
ENDBRANCH   1   5
BRANCH   3  20
ATOM     20  C   UNL     1      -0.556  -0.512   0.122  0.00  0.00    +0.092 C 
BRANCH  20  21
ATOM     21  C   UNL     1      -0.772  -2.015  -0.064  0.00  0.00    -0.050 C 
ATOM     22  C   UNL     1      -2.243  -2.300  -0.206  0.00  0.00    -0.010 C 
ATOM     23  C   UNL     1      -3.119  -1.229   0.469  0.00  0.00    -0.001 C 
ATOM     24  C   UNL     1      -2.570  -0.783   1.838  0.00  0.00    -0.000 C 
ATOM     25  C   UNL     1      -2.061  -1.938   2.658  0.00  0.00    -0.000 C 
ATOM     26  C   UNL     1      -0.544  -2.081   2.416  0.00  0.00    -0.001 C 
ATOM     27  C   UNL     1      -0.243  -2.772   1.172  0.00  0.00    -0.010 C 
BRANCH  21  28
ATOM     28  N   UNL     1      -0.059  -2.471  -1.264  0.00  0.00    +0.381 N 
ATOM     29  C   UNL     1      -0.157  -3.929  -1.413  0.00  0.00    -0.096 C 
ATOM     30  C   UNL     1      -0.555  -1.785  -2.465  0.00  0.00    -0.096 C 
ATOM     31  H   UNL     1       1.004  -2.214  -1.144  0.00  0.00    -0.082 HD
ENDBRANCH  21  28
ENDBRANCH  20  21
ENDBRANCH   3  20
TORSDOF 7
