REMARK  Name = ZINC00625307
REMARK  4 active torsions:
REMARK  status: ('A' for Active; 'I' for Inactive)
REMARK    1  A    between atoms: C_1  and  C_2
REMARK    2  A    between atoms: C_2  and  C_3
REMARK    3  A    between atoms: C_6  and  N_9
REMARK    4  A    between atoms: C_25  and  C_30
REMARK                            x       y       z     vdW  Elec       q    Type
REMARK                         _______ _______ _______ _____ _____    ______ ____
ROOT
ATOM      1  N   UNL     1       0.110   8.862  -1.302  0.00  0.00    -0.220 N 
ATOM      2  C   UNL     1       0.948   8.214  -0.466  0.00  0.00    +0.246 C 
ATOM      3  O   UNL     1       2.146   8.371  -0.366  0.00  0.00    -0.273 OA
ATOM      4  C   UNL     1       0.084   7.252   0.323  0.00  0.00    +0.167 C 
ATOM      5  C   UNL     1       0.515   5.811   0.026  0.00  0.00    +0.069 C 
ATOM      6  C   UNL     1      -0.651   4.882   0.257  0.00  0.00    -0.015 A 
ATOM      7  C   UNL     1      -0.607   3.447   0.469  0.00  0.00    +0.003 A 
ATOM      8  C   UNL     1       0.449   2.533   0.533  0.00  0.00    +0.010 A 
ATOM      9  C   UNL     1       0.119   1.218   0.750  0.00  0.00    +0.001 A 
ATOM     10  C   UNL     1      -1.195   0.805   0.900  0.00  0.00    +0.002 A 
ATOM     11  C   UNL     1      -2.260   1.687   0.836  0.00  0.00    +0.026 A 
ATOM     12  C   UNL     1      -1.954   3.030   0.622  0.00  0.00    +0.047 A 
ATOM     13  N   UNL     1      -2.738   4.141   0.511  0.00  0.00    -0.356 N 
ATOM     14  H   UNL     1      -3.706   4.150   0.574  0.00  0.00    +0.166 HD
ATOM     15  C   UNL     1      -1.952   5.241   0.296  0.00  0.00    +0.041 A 
ATOM     16  C   UNL     1      -2.435   6.668   0.125  0.00  0.00    +0.120 C 
ATOM     17  N   UNL     1      -1.259   7.457  -0.263  0.00  0.00    -0.292 N 
ATOM     18  C   UNL     1      -1.153   8.432  -1.167  0.00  0.00    +0.148 C 
ATOM     19  S   UNL     1      -2.475   9.062  -2.054  0.00  0.00    -0.018 S 
ATOM     20  C   UNL     1      -3.498   6.734  -0.973  0.00  0.00    +0.035 C 
ENDROOT
BRANCH   1  24
ATOM     21  C   UNL     1       1.301  11.833  -3.972  0.00  0.00    -0.048 A 
ATOM     22  C   UNL     1       1.358  12.066  -2.610  0.00  0.00    +0.005 A 
ATOM     23  C   UNL     1       0.965  11.083  -1.723  0.00  0.00    +0.024 A 
ATOM     24  C   UNL     1       0.511   9.861  -2.199  0.00  0.00    +0.043 A 
ATOM     25  C   UNL     1       0.460   9.628  -3.567  0.00  0.00    +0.024 A 
ATOM     26  C   UNL     1       0.850  10.617  -4.449  0.00  0.00    +0.005 A 
BRANCH  21  28
ATOM     27  C   UNL     1       3.225  12.758  -5.233  0.00  0.00    +0.009 C 
ATOM     28  C   UNL     1       1.731  12.907  -4.937  0.00  0.00    +0.032 C 
ENDBRANCH  21  28
ENDBRANCH   1  24
TORSDOF 2
