REMARK  Name = ZINC49211752
REMARK  5 active torsions:
REMARK  status: ('A' for Active; 'I' for Inactive)
REMARK    1  A    between atoms: C_1  and  C_2
REMARK    2  A    between atoms: N_7  and  C_8
REMARK    3  A    between atoms: N_10  and  C_11
REMARK    4  A    between atoms: C_11  and  C_12
REMARK    5  A    between atoms: C_12  and  C_13
REMARK                            x       y       z     vdW  Elec       q    Type
REMARK                         _______ _______ _______ _____ _____    ______ ____
ROOT
ATOM      1  C   UNL     1       2.399  -3.988  -0.030  0.00  0.00    +0.325 C 
ATOM      2  O   UNL     1       3.148  -3.026  -0.028  0.00  0.00    -0.251 OA
ATOM      3  N   UNL     1       2.907  -5.236  -0.040  0.00  0.00    -0.297 N 
ATOM      4  H   UNL     1       2.311  -6.002  -0.042  0.00  0.00    +0.150 HD
ENDROOT
BRANCH   1  11
ATOM      5  C   UNL     1      -0.018   1.503   0.010  0.00  0.00    +0.053 C 
ATOM      6  C   UNL     1       0.002  -0.004   0.002  0.00  0.00    +0.006 A 
ATOM      7  C   UNL     1      -1.025  -0.859   0.002  0.00  0.00    +0.095 A 
ATOM      8  N   UNL     1      -0.732  -2.188  -0.007  0.00  0.00    -0.342 N 
ATOM      9  H   UNL     1      -1.440  -2.851  -0.008  0.00  0.00    +0.167 HD
ATOM     10  C   UNL     1       0.575  -2.571  -0.014  0.00  0.00    +0.165 A 
ATOM     11  N   UNL     1       1.076  -3.804  -0.024  0.00  0.00    -0.139 NA
ATOM     12  S   UNL     1       1.403  -1.107  -0.018  0.00  0.00    -0.058 S 
ENDBRANCH   1  11
BRANCH   3  13
ATOM     13  C   UNL     1       4.358  -5.438  -0.047  0.00  0.00    +0.110 C 
BRANCH  13  14
ATOM     14  C   UNL     1       4.665  -6.936  -0.058  0.00  0.00    +0.057 C 
BRANCH  14  15
ATOM     15  C   UNL     1       6.157  -7.143  -0.065  0.00  0.00    -0.010 A 
ATOM     16  C   UNL     1       6.824  -7.329  -1.262  0.00  0.00    +0.021 A 
ATOM     17  C   UNL     1       8.194  -7.519  -1.268  0.00  0.00    +0.018 A 
ATOM     18  C   UNL     1       8.898  -7.523  -0.078  0.00  0.00    +0.018 A 
ATOM     19  C   UNL     1       8.233  -7.338   1.119  0.00  0.00    +0.040 A 
ATOM     20  C   UNL     1       6.862  -7.142   1.127  0.00  0.00    +0.127 A 
ATOM     21  F   UNL     1       6.213  -6.955   2.296  0.00  0.00    -0.205 F 
ATOM     22 BR   UNL     1       9.104  -7.773  -2.906  0.00  0.00    -0.050 Br
ENDBRANCH  14  15
ENDBRANCH  13  14
ENDBRANCH   3  13
TORSDOF 4
