REMARK  Name = ZINC09135530
REMARK  7 active torsions:
REMARK  status: ('A' for Active; 'I' for Inactive)
REMARK    1  A    between atoms: C_1  and  N_2
REMARK    2  A    between atoms: C_10  and  C_12
REMARK    3  A    between atoms: C_12  and  C_14
REMARK    4  A    between atoms: C_12  and  N_63
REMARK    5  A    between atoms: C_14  and  N_15
REMARK    6  A    between atoms: C_16  and  C_18
REMARK    7  A    between atoms: N_20  and  C_21
REMARK                            x       y       z     vdW  Elec       q    Type
REMARK                         _______ _______ _______ _____ _____    ______ ____
ROOT
ATOM      1  C   UNL     1       8.628  -4.475   5.343  0.00  0.00    -0.020 C 
ENDROOT
BRANCH   1  11
ATOM      2  C   UNL     1      12.322  -1.931   9.796  0.00  0.00    +0.129 C 
ATOM      3  N   UNL     1      12.755  -2.057   8.398  0.00  0.00    -0.333 N 
ATOM      4  C   UNL     1      14.063  -2.710   8.310  0.00  0.00    +0.105 C 
ATOM      5  C   UNL     1      14.450  -2.838   6.832  0.00  0.00    +0.024 C 
ATOM      6  C   UNL     1      13.498  -3.845   6.181  0.00  0.00    +0.038 C 
ATOM      7  C   UNL     1      12.077  -3.524   6.568  0.00  0.00    -0.026 A 
ATOM      8  C   UNL     1      11.777  -2.683   7.626  0.00  0.00    +0.033 A 
ATOM      9  C   UNL     1      10.442  -2.431   7.944  0.00  0.00    +0.023 A 
ATOM     10  C   UNL     1       9.429  -3.009   7.209  0.00  0.00    +0.004 A 
ATOM     11  C   UNL     1       9.734  -3.844   6.150  0.00  0.00    -0.059 A 
ATOM     12  C   UNL     1      11.053  -4.104   5.836  0.00  0.00    +0.007 A 
ENDBRANCH   1  11
BRANCH   1  17
ATOM     13  C   UNL     1       6.562  -5.754   5.496  0.00  0.00    -0.078 C 
ATOM     14  C   UNL     1       5.919  -6.661   6.575  0.00  0.00    -0.020 C 
ATOM     15  C   UNL     1       7.129  -7.078   7.442  0.00  0.00    -0.020 C 
ATOM     16  C   UNL     1       8.198  -6.000   7.185  0.00  0.00    -0.078 C 
ATOM     17  N   UNL     1       7.594  -5.038   6.263  0.00  0.00    +0.385 N 
ATOM     18  H   UNL     1       7.163  -4.272   6.794  0.00  0.00    -0.081 HD
ENDBRANCH   1  17
BRANCH   1  19
ATOM     19  C   UNL     1       7.994  -3.420   4.435  0.00  0.00    +0.094 C 
BRANCH  19  20
ATOM     20  N   UNL     1       6.989  -4.053   3.578  0.00  0.00    -0.309 N 
ATOM     21  C   UNL     1       6.209  -3.297   2.781  0.00  0.00    +0.299 C 
ATOM     22  O   UNL     1       6.339  -2.090   2.773  0.00  0.00    -0.265 OA
ATOM     23  H   UNL     1       6.885  -5.018   3.584  0.00  0.00    +0.149 HD
BRANCH  21  24
ATOM     24  C   UNL     1       5.184  -3.943   1.907  0.00  0.00    +0.303 C 
ATOM     25  O   UNL     1       5.054  -5.149   1.915  0.00  0.00    -0.265 OA
ATOM     26  N   UNL     1       4.404  -3.186   1.110  0.00  0.00    -0.278 N 
ATOM     27  H   UNL     1       4.552  -2.229   1.055  0.00  0.00    +0.155 HD
BRANCH  26  28
ATOM     28  C   UNL     1       3.383  -3.781   0.363  0.00  0.00    +0.038 A 
ATOM     29  C   UNL     1       2.187  -3.104   0.159  0.00  0.00    +0.027 A 
ATOM     30  C   UNL     1       1.177  -3.690  -0.580  0.00  0.00    +0.051 A 
ATOM     31  C   UNL     1       1.355  -4.954  -1.120  0.00  0.00    +0.166 A 
ATOM     32  C   UNL     1       2.553  -5.635  -0.917  0.00  0.00    +0.168 A 
ATOM     33  C   UNL     1       3.564  -5.047  -0.177  0.00  0.00    +0.072 A 
ATOM     34  O   UNL     1       2.478  -6.845  -1.544  0.00  0.00    -0.453 OA
ATOM     35  C   UNL     1       1.384  -6.730  -2.473  0.00  0.00    +0.466 C 
ATOM     36  O   UNL     1       0.529  -5.739  -1.874  0.00  0.00    -0.453 OA
ENDBRANCH  26  28
ENDBRANCH  21  24
ENDBRANCH  19  20
ENDBRANCH   1  19
TORSDOF 6
