REMARK  Name = ZINC59829699
REMARK  9 active torsions:
REMARK  status: ('A' for Active; 'I' for Inactive)
REMARK    1  A    between atoms: C_1  and  C_2
REMARK    2  A    between atoms: C_6  and  C_8
REMARK    3  A    between atoms: C_8  and  S_9
REMARK    4  A    between atoms: S_9  and  C_10
REMARK    5  A    between atoms: N_14  and  N_15
REMARK    6  A    between atoms: N_16  and  N_17
REMARK    7  A    between atoms: C_18  and  C_19
REMARK    8  A    between atoms: C_18  and  C_20
REMARK    9  A    between atoms: C_25  and  O_26
REMARK                            x       y       z     vdW  Elec       q    Type
REMARK                         _______ _______ _______ _____ _____    ______ ____
ROOT
ATOM      1  C   UNL     1       1.622  -4.015   4.517  0.00  0.00    +0.210 A 
ATOM      2  N   UNL     1       0.499  -4.371   5.095  0.00  0.00    -0.119 NA
ATOM      3  N   UNL     1       0.818  -5.055   6.275  0.00  0.00    -0.109 NA
ATOM      4  C   UNL     1       2.124  -5.096   6.379  0.00  0.00    +0.254 A 
ATOM      5  N   UNL     1       2.655  -4.458   5.292  0.00  0.00    -0.211 N 
ATOM      6  N   UNL     1       2.842  -5.686   7.410  0.00  0.00    -0.204 N 
ATOM      7  H   UNL     1       3.812  -5.664   7.399  0.00  0.00    +0.178 HD
ENDROOT
BRANCH   5   8
ATOM      8  N   UNL     1       3.985  -4.291   5.030  0.00  0.00    -0.294 N 
ATOM      9  H   UNL     1       4.329  -3.434   5.436  0.00  0.00    +0.163 HD
ATOM     10  H   UNL     1       4.520  -5.084   5.352  0.00  0.00    +0.163 HD
ENDBRANCH   5   8
BRANCH   6  11
ATOM     11  N   UNL     1       2.166  -6.313   8.464  0.00  0.00    -0.184 NA
ATOM     12  C   UNL     1       2.838  -6.865   9.429  0.00  0.00    +0.067 C 
ATOM     13  C   UNL     1       4.345  -6.831   9.413  0.00  0.00    +0.068 C 
BRANCH  12  14
ATOM     14  C   UNL     1       2.127  -7.525  10.539  0.00  0.00    +0.039 A 
ATOM     15  C   UNL     1       2.846  -8.115  11.581  0.00  0.00    +0.013 A 
ATOM     16  C   UNL     1       2.175  -8.731  12.616  0.00  0.00    +0.001 A 
ATOM     17  C   UNL     1       0.791  -8.767  12.627  0.00  0.00    +0.004 A 
ATOM     18  C   UNL     1       0.068  -8.186  11.601  0.00  0.00    +0.046 A 
ATOM     19  C   UNL     1       0.727  -7.559  10.557  0.00  0.00    +0.126 A 
BRANCH  19  20
ATOM     20  O   UNL     1       0.017  -6.983   9.552  0.00  0.00    -0.506 OA
ATOM     21  H   UNL     1      -0.176  -7.579   8.815  0.00  0.00    +0.292 HD
ENDBRANCH  19  20
ENDBRANCH  12  14
ENDBRANCH   6  11
BRANCH   1  22
ATOM     22  S   UNL     1       1.770  -3.127   3.002  0.00  0.00    -0.080 S 
BRANCH  22  23
ATOM     23  C   UNL     1       0.054  -2.845   2.489  0.00  0.00    +0.112 C 
BRANCH  23  29
ATOM     24  C   UNL     1      -0.018   1.503   0.010  0.00  0.00    +0.044 C 
ATOM     25  C   UNL     1       0.002  -0.004   0.002  0.00  0.00    -0.050 A 
ATOM     26  C   UNL     1       0.006  -0.689  -1.199  0.00  0.00    +0.003 A 
ATOM     27  C   UNL     1       0.025  -2.071  -1.207  0.00  0.00    +0.001 A 
ATOM     28  C   UNL     1       0.040  -2.768  -0.013  0.00  0.00    +0.004 A 
ATOM     29  C   UNL     1       0.037  -2.084   1.188  0.00  0.00    -0.037 A 
ATOM     30  C   UNL     1       0.023  -0.702   1.195  0.00  0.00    +0.007 A 
ENDBRANCH  23  29
ENDBRANCH  22  23
ENDBRANCH   1  22
TORSDOF 7
