REMARK  Name = ZINC36593613
REMARK  11 active torsions:
REMARK  status: ('A' for Active; 'I' for Inactive)
REMARK    1  A    between atoms: C_1  and  C_2
REMARK    2  A    between atoms: C_2  and  C_3
REMARK    3  A    between atoms: C_2  and  C_4
REMARK    4  A    between atoms: C_2  and  N_5
REMARK    5  A    between atoms: N_5  and  C_6
REMARK    6  A    between atoms: C_6  and  C_8
REMARK    7  A    between atoms: C_6  and  C_18
REMARK    8  A    between atoms: C_10  and  N_15
REMARK    9  A    between atoms: N_20  and  C_21
REMARK   10  A    between atoms: C_27  and  C_29
REMARK   11  A    between atoms: C_32  and  N_35
REMARK                            x       y       z     vdW  Elec       q    Type
REMARK                         _______ _______ _______ _____ _____    ______ ____
ROOT
ATOM      1  C   UNL     1       2.415  -0.520  -1.685  0.00  0.00    +0.194 C 
ENDROOT
BRANCH   1   2
ATOM      2  C   UNL     1       2.293   0.982  -1.724  0.00  0.00    +0.002 A 
ATOM      3  C   UNL     1       1.311   1.615  -0.984  0.00  0.00    +0.040 A 
ATOM      4  C   UNL     1       1.198   2.992  -1.020  0.00  0.00    +0.127 A 
ATOM      5  C   UNL     1       2.067   3.737  -1.795  0.00  0.00    +0.034 A 
ATOM      6  C   UNL     1       3.049   3.106  -2.534  0.00  0.00    +0.022 A 
ATOM      7  C   UNL     1       3.166   1.728  -2.495  0.00  0.00    +0.047 A 
ATOM      8 CL   UNL     1       4.404   0.935  -3.418  0.00  0.00    -0.083 Cl
BRANCH   4   9
ATOM      9  N   UNL     1       0.146   3.668  -0.228  0.00  0.00    +0.056 N 
ATOM     10  O   UNL     1      -0.614   3.016   0.449  0.00  0.00    -0.126 OA
ATOM     11  O   UNL     1       0.048   4.873  -0.259  0.00  0.00    -0.126 OA
ENDBRANCH   4   9
ENDBRANCH   1   2
BRANCH   1  12
ATOM     12  C   UNL     1       3.259  -0.925  -0.504  0.00  0.00    +0.238 C 
ATOM     13  O   UNL     1       2.759  -1.537   0.416  0.00  0.00    -0.273 OA
ATOM     14  N   UNL     1       4.568  -0.607  -0.470  0.00  0.00    -0.311 N 
ATOM     15  H   UNL     1       4.967  -0.117  -1.206  0.00  0.00    +0.149 HD
BRANCH  14  16
ATOM     16  C   UNL     1       5.388  -1.000   0.679  0.00  0.00    +0.073 C 
ATOM     17  C   UNL     1       5.254   0.049   1.784  0.00  0.00    +0.022 C 
ATOM     18  C   UNL     1       6.110  -0.362   2.984  0.00  0.00    +0.002 C 
ATOM     19  C   UNL     1       7.575  -0.467   2.553  0.00  0.00    +0.000 C 
ATOM     20  C   UNL     1       7.708  -1.516   1.448  0.00  0.00    +0.002 C 
ATOM     21  C   UNL     1       6.852  -1.104   0.248  0.00  0.00    +0.022 C 
ENDBRANCH  14  16
ENDBRANCH   1  12
BRANCH   1  22
ATOM     22  N   UNL     1       1.083  -1.115  -1.562  0.00  0.00    -0.277 N 
ATOM     23  C   UNL     1       0.356  -0.915  -0.444  0.00  0.00    +0.248 C 
ATOM     24  O   UNL     1      -0.801  -1.282  -0.398  0.00  0.00    -0.270 OA
BRANCH  23  25
ATOM     25  C   UNL     1       0.967  -0.247   0.725  0.00  0.00    +0.037 A 
ATOM     26  C   UNL     1       2.159   0.464   0.582  0.00  0.00    +0.015 A 
ATOM     27  C   UNL     1       2.724   1.086   1.677  0.00  0.00    +0.033 A 
ATOM     28  C   UNL     1       2.111   1.004   2.914  0.00  0.00    +0.126 A 
ATOM     29  C   UNL     1       0.929   0.300   3.063  0.00  0.00    +0.033 A 
ATOM     30  C   UNL     1       0.351  -0.320   1.975  0.00  0.00    +0.015 A 
BRANCH  28  31
ATOM     31  N   UNL     1       2.722   1.673   4.085  0.00  0.00    +0.056 N 
ATOM     32  O   UNL     1       3.755   2.288   3.958  0.00  0.00    -0.126 OA
ATOM     33  O   UNL     1       2.189   1.603   5.168  0.00  0.00    -0.126 OA
ENDBRANCH  28  31
ENDBRANCH  23  25
BRANCH  22  35
ATOM     34  C   UNL     1       1.659  -2.277  -3.635  0.00  0.00    +0.031 C 
ATOM     35  C   UNL     1       0.540  -1.929  -2.652  0.00  0.00    +0.030 C 
ATOM     36  C   UNL     1      -0.553  -1.144  -3.380  0.00  0.00    +0.031 C 
ATOM     37  C   UNL     1      -0.054  -3.218  -2.079  0.00  0.00    +0.031 C 
ENDBRANCH  22  35
ENDBRANCH   1  22
TORSDOF 8
