REMARK  Name = ZINC20775914
REMARK  9 active torsions:
REMARK  status: ('A' for Active; 'I' for Inactive)
REMARK    1  A    between atoms: C_1  and  N_2
REMARK    2  A    between atoms: C_3  and  C_5
REMARK    3  A    between atoms: C_8  and  N_21
REMARK    4  A    between atoms: N_11  and  C_12
REMARK    5  A    between atoms: C_12  and  C_13
REMARK    6  A    between atoms: C_14  and  C_15
REMARK    7  A    between atoms: N_21  and  C_22
REMARK    8  A    between atoms: C_22  and  C_23
REMARK    9  A    between atoms: C_28  and  C_29
REMARK                            x       y       z     vdW  Elec       q    Type
REMARK                         _______ _______ _______ _____ _____    ______ ____
ROOT
ATOM      1  C   UNL     1      -0.814   1.623   1.220  0.00  0.00    +0.021 C 
ATOM      2  C   UNL     1      -0.013   1.086   0.008  0.00  0.00    +0.010 C 
ATOM      3  C   UNL     1      -0.838   1.637  -1.184  0.00  0.00    +0.036 C 
ATOM      4  C   UNL     1      -1.316   3.011  -0.670  0.00  0.00    -0.059 C 
ATOM      5  N   UNL     1      -1.273   2.966   0.803  0.00  0.00    +0.391 N 
ATOM      6  H   UNL     1      -0.576   3.731   1.175  0.00  0.00    -0.080 HD
ENDROOT
BRANCH   1   9
ATOM      7  C   UNL     1       1.213   0.723   4.340  0.00  0.00    +0.128 C 
ATOM      8  N   UNL     1       0.350   0.624   3.160  0.00  0.00    -0.320 N 
ATOM      9  C   UNL     1       0.074   1.725   2.433  0.00  0.00    +0.199 C 
ATOM     10  O   UNL     1       0.541   2.797   2.755  0.00  0.00    -0.278 OA
ATOM     11  H   UNL     1      -0.074  -0.348   2.869  0.00  0.00    +0.148 HD
ENDBRANCH   1   9
BRANCH   3  12
ATOM     12  N   UNL     1       0.009   1.793  -2.374  0.00  0.00    -0.311 NA
ATOM     13  H   UNL     1       0.519   2.767  -2.336  0.00  0.00    +0.122 HD
BRANCH  12  14
ATOM     14  C   UNL     1      -0.793   1.730  -3.603  0.00  0.00    +0.117 C 
BRANCH  14  15
ATOM     15  C   UNL     1       0.107   1.894  -4.800  0.00  0.00    -0.022 A 
ATOM     16  C   UNL     1       0.200   3.119  -5.433  0.00  0.00    +0.005 A 
ATOM     17  C   UNL     1       1.026   3.270  -6.531  0.00  0.00    +0.000 A 
ATOM     18  C   UNL     1       1.761   2.195  -6.995  0.00  0.00    +0.001 A 
ATOM     19  C   UNL     1       1.669   0.970  -6.362  0.00  0.00    +0.013 A 
ATOM     20  C   UNL     1       0.846   0.821  -5.261  0.00  0.00    +0.059 A 
BRANCH  20  21
ATOM     21  C   UNL     1       0.750  -0.514  -4.567  0.00  0.00    +0.418 C 
ATOM     22  F   UNL     1       1.583  -1.435  -5.212  0.00  0.00    -0.166 F 
ATOM     23  F   UNL     1       1.151  -0.376  -3.234  0.00  0.00    -0.166 F 
ATOM     24  F   UNL     1      -0.572  -0.969  -4.612  0.00  0.00    -0.166 F 
ENDBRANCH  20  21
ENDBRANCH  14  15
ENDBRANCH  12  14
ENDBRANCH   3  12
BRANCH   5  25
ATOM     25  C   UNL     1      -2.589   3.275   1.378  0.00  0.00    -0.050 C 
BRANCH  25  26
ATOM     26  C   UNL     1      -2.905   4.731   1.155  0.00  0.00    -0.045 C 
ATOM     27  C   UNL     1      -4.029   5.080   0.546  0.00  0.00    +0.002 C 
BRANCH  27  28
ATOM     28  C   UNL     1      -4.340   6.509   0.327  0.00  0.00    -0.025 A 
ATOM     29  C   UNL     1      -3.454   7.493   0.767  0.00  0.00    +0.008 A 
ATOM     30  C   UNL     1      -3.746   8.825   0.556  0.00  0.00    +0.001 A 
ATOM     31  C   UNL     1      -4.920   9.185  -0.081  0.00  0.00    +0.000 A 
ATOM     32  C   UNL     1      -5.805   8.214  -0.515  0.00  0.00    +0.001 A 
ATOM     33  C   UNL     1      -5.522   6.879  -0.314  0.00  0.00    +0.008 A 
ENDBRANCH  27  28
ENDBRANCH  25  26
ENDBRANCH   5  25
TORSDOF 8
