REMARK  Name = ZINC47902477
REMARK  8 active torsions:
REMARK  status: ('A' for Active; 'I' for Inactive)
REMARK    1  A    between atoms: C_1  and  C_2
REMARK    2  A    between atoms: C_2  and  C_3
REMARK    3  A    between atoms: C_4  and  C_12
REMARK    4  A    between atoms: N_7  and  C_8
REMARK    5  A    between atoms: C_8  and  C_9
REMARK    6  A    between atoms: C_8  and  C_10
REMARK    7  A    between atoms: C_8  and  C_11
REMARK    8  A    between atoms: C_18  and  C_20
REMARK                            x       y       z     vdW  Elec       q    Type
REMARK                         _______ _______ _______ _____ _____    ______ ____
ROOT
ATOM      1  C   UNL     1       0.659  -0.400  -1.427  0.00  0.00    +0.052 A 
ATOM      2  C   UNL     1       0.057  -0.523  -2.663  0.00  0.00    +0.078 A 
ATOM      3  C   UNL     1       1.042  -0.990  -3.563  0.00  0.00    +0.147 A 
ATOM      4  N   UNL     1       2.157  -1.134  -2.901  0.00  0.00    -0.178 NA
ATOM      5  N   UNL     1       1.943  -0.766  -1.568  0.00  0.00    -0.262 N 
ENDROOT
BRANCH   2   6
ATOM      6  C   UNL     1      -1.350  -0.225  -2.985  0.00  0.00    +0.253 C 
ATOM      7  O   UNL     1      -2.102   0.172  -2.115  0.00  0.00    -0.270 OA
ATOM      8  N   UNL     1      -1.804  -0.392  -4.242  0.00  0.00    -0.261 N 
ATOM      9  C   UNL     1      -3.131  -0.111  -4.545  0.00  0.00    +0.165 A 
ATOM     10  N   UNL     1      -4.077   0.329  -3.744  0.00  0.00    -0.233 NA
ATOM     11  C   UNL     1      -5.300   0.549  -4.189  0.00  0.00    +0.124 A 
ATOM     12  C   UNL     1      -5.532   0.303  -5.502  0.00  0.00    +0.008 A 
ATOM     13  S   UNL     1      -3.915  -0.242  -6.028  0.00  0.00    -0.057 S 
ATOM     14  C   UNL     1      -6.803   0.453  -6.298  0.00  0.00    +0.053 C 
ATOM     15  H   UNL     1      -1.205  -0.709  -4.936  0.00  0.00    +0.157 HD
ENDBRANCH   2   6
BRANCH   5  16
ATOM     16  C   UNL     1       2.950  -0.782  -0.504  0.00  0.00    +0.056 C 
ATOM     17  C   UNL     1       2.583  -1.847   0.531  0.00  0.00    +0.036 C 
ATOM     18  C   UNL     1       4.321  -1.104  -1.103  0.00  0.00    +0.036 C 
ATOM     19  C   UNL     1       2.999   0.590   0.172  0.00  0.00    +0.036 C 
ENDBRANCH   5  16
BRANCH   1  21
ATOM     20  C   UNL     1      -0.005   1.595  -0.113  0.00  0.00    +0.010 C 
ATOM     21  C   UNL     1      -0.002   0.065  -0.155  0.00  0.00    +0.052 C 
ENDBRANCH   1  21
TORSDOF 3
