REMARK  Name = ZINC05883939
REMARK  11 active torsions:
REMARK  status: ('A' for Active; 'I' for Inactive)
REMARK    1  A    between atoms: C_1  and  C_2
REMARK    2  A    between atoms: C_2  and  C_3
REMARK    3  A    between atoms: C_3  and  O_4
REMARK    4  A    between atoms: O_4  and  C_5
REMARK    5  A    between atoms: C_8  and  C_14
REMARK    6  A    between atoms: C_10  and  O_11
REMARK    7  A    between atoms: O_11  and  C_12
REMARK    8  A    between atoms: C_12  and  C_13
REMARK    9  A    between atoms: C_23  and  C_31
REMARK   10  A    between atoms: C_25  and  C_26
REMARK   11  A    between atoms: C_25  and  C_28
REMARK                            x       y       z     vdW  Elec       q    Type
REMARK                         _______ _______ _______ _____ _____    ______ ____
ROOT
ATOM      1  C   UNL     1       2.775  -0.826   3.682  0.00  0.00    +0.066 C 
ATOM      2  C   UNL     1       2.514  -2.067   4.537  0.00  0.00    +0.027 C 
ATOM      3  C   UNL     1       1.581  -3.040   3.859  0.00  0.00    +0.009 C 
ATOM      4  C   UNL     1       0.156  -2.936   4.398  0.00  0.00    +0.005 C 
ATOM      5  C   UNL     1       0.189  -3.201   5.910  0.00  0.00    +0.027 C 
ATOM      6  C   UNL     1       1.043  -2.131   6.542  0.00  0.00    -0.026 C 
ATOM      7  C   UNL     1       2.071  -1.617   5.898  0.00  0.00    -0.047 C 
ATOM      8  C   UNL     1       2.855  -0.523   6.530  0.00  0.00    +0.164 C 
ATOM      9  C   UNL     1       3.703   0.211   5.767  0.00  0.00    +0.065 C 
ATOM     10  C   UNL     1       3.923  -0.029   4.304  0.00  0.00    +0.188 C 
ATOM     11  N   UNL     1       4.395   1.227   6.365  0.00  0.00    -0.304 NA
ATOM     12  H   UNL     1       5.008   1.769   5.844  0.00  0.00    +0.186 HD
ENDROOT
BRANCH   1  16
ATOM     13  C   UNL     1      -0.747   1.598   3.567  0.00  0.00    +0.162 A 
ATOM     14  C   UNL     1       0.161   1.738   4.604  0.00  0.00    +0.050 A 
ATOM     15  C   UNL     1       1.298   0.954   4.639  0.00  0.00    +0.008 A 
ATOM     16  C   UNL     1       1.533   0.028   3.640  0.00  0.00    -0.037 A 
ATOM     17  C   UNL     1       0.629  -0.122   2.604  0.00  0.00    +0.053 A 
ATOM     18  C   UNL     1      -0.510   0.666   2.561  0.00  0.00    +0.162 A 
BRANCH  13  19
ATOM     19  O   UNL     1      -1.867   2.369   3.532  0.00  0.00    -0.488 OA
BRANCH  19  20
ATOM     20  C   UNL     1      -2.044   3.304   4.597  0.00  0.00    +0.229 C 
BRANCH  20  22
ATOM     21  C   UNL     1      -3.540   5.075   5.529  0.00  0.00    +0.007 C 
ATOM     22  C   UNL     1      -3.350   4.074   4.388  0.00  0.00    +0.038 C 
ENDBRANCH  20  22
ENDBRANCH  19  20
ENDBRANCH  13  19
BRANCH  18  23
ATOM     23  O   UNL     1      -1.398   0.524   1.540  0.00  0.00    -0.489 OA
BRANCH  23  24
ATOM     24  C   UNL     1      -1.090  -0.452   0.543  0.00  0.00    +0.226 C 
ATOM     25  C   UNL     1      -2.195  -0.467  -0.514  0.00  0.00    +0.048 C 
ENDBRANCH  23  24
ENDBRANCH  18  23
ENDBRANCH   1  16
BRANCH  10  26
ATOM     26  C   UNL     1       5.178  -0.776   4.124  0.00  0.00    +0.091 C 
ATOM     27  N   UNL     1       6.147  -1.353   3.985  0.00  0.00    -0.195 NA
ENDBRANCH  10  26
BRANCH  10  28
ATOM     28  C   UNL     1       4.035   1.267   3.616  0.00  0.00    +0.091 C 
ATOM     29  N   UNL     1       4.122   2.268   3.085  0.00  0.00    -0.195 NA
ENDBRANCH  10  28
BRANCH   8  30
ATOM     30  C   UNL     1       2.716  -0.248   7.929  0.00  0.00    +0.076 C 
ATOM     31  N   UNL     1       2.606  -0.030   9.038  0.00  0.00    -0.196 NA
ENDBRANCH   8  30
TORSDOF 9
