REMARK  Name = ZINC07203890
REMARK  8 active torsions:
REMARK  status: ('A' for Active; 'I' for Inactive)
REMARK    1  A    between atoms: C_1  and  C_2
REMARK    2  A    between atoms: C_5  and  N_9
REMARK    3  A    between atoms: C_10  and  C_12
REMARK    4  A    between atoms: C_12  and  C_14
REMARK    5  A    between atoms: C_12  and  O_15
REMARK    6  A    between atoms: O_15  and  C_16
REMARK    7  A    between atoms: C_16  and  C_18
REMARK    8  A    between atoms: C_23  and  N_24
REMARK                            x       y       z     vdW  Elec       q    Type
REMARK                         _______ _______ _______ _____ _____    ______ ____
ROOT
ATOM      1  C   UNL     1       0.456  -6.409   1.102  0.00  0.00    +0.259 C 
ATOM      2  C   UNL     1       1.766  -6.848   0.444  0.00  0.00    +0.062 C 
ENDROOT
BRANCH   1   4
ATOM      3  N   UNL     1       0.297  -4.230  -0.058  0.00  0.00    -0.282 N 
ATOM      4  C   UNL     1       0.375  -4.904   1.107  0.00  0.00    +0.258 C 
ATOM      5  O   UNL     1       0.381  -4.300   2.158  0.00  0.00    -0.271 OA
ATOM      6  H   UNL     1       0.217  -4.714  -0.894  0.00  0.00    +0.155 HD
BRANCH   3  11
ATOM      7  C   UNL     1       0.437   1.443  -0.062  0.00  0.00    +0.047 C 
ATOM      8  C   UNL     1       0.399  -0.064  -0.061  0.00  0.00    -0.015 A 
ATOM      9  C   UNL     1       1.120  -0.771   0.882  0.00  0.00    +0.008 A 
ATOM     10  C   UNL     1       1.088  -2.152   0.886  0.00  0.00    +0.024 A 
ATOM     11  C   UNL     1       0.330  -2.831  -0.059  0.00  0.00    +0.036 A 
ATOM     12  C   UNL     1      -0.394  -2.120  -1.006  0.00  0.00    +0.062 A 
ATOM     13  C   UNL     1      -0.362  -0.737  -1.002  0.00  0.00    +0.128 A 
ATOM     14  F   UNL     1      -1.071  -0.042  -1.919  0.00  0.00    -0.205 F 
ENDBRANCH   3  11
ENDBRANCH   1   4
BRANCH   1  15
ATOM     15  O   UNL     1       0.413  -6.893   2.446  0.00  0.00    -0.449 OA
BRANCH  15  16
ATOM     16  C   UNL     1      -0.134  -8.109   2.641  0.00  0.00    +0.342 C 
ATOM     17  O   UNL     1      -0.562  -8.742   1.696  0.00  0.00    -0.245 OA
BRANCH  16  18
ATOM     18  C   UNL     1      -0.212  -8.672   4.000  0.00  0.00    +0.081 A 
ATOM     19  C   UNL     1       0.171  -7.902   5.103  0.00  0.00    +0.032 A 
ATOM     20  C   UNL     1       0.095  -8.435   6.372  0.00  0.00    +0.019 A 
ATOM     21  C   UNL     1      -0.359  -9.732   6.561  0.00  0.00    +0.017 A 
ATOM     22  C   UNL     1      -0.739 -10.504   5.483  0.00  0.00    +0.024 A 
ATOM     23  C   UNL     1      -0.676  -9.982   4.197  0.00  0.00    +0.039 A 
ATOM     24 BR   UNL     1       0.612  -7.392   7.862  0.00  0.00    -0.050 Br
BRANCH  23  25
ATOM     25  N   UNL     1      -1.064 -10.755   3.110  0.00  0.00    -0.357 N 
ATOM     26  H   UNL     1      -1.108 -10.361   2.225  0.00  0.00    +0.142 HD
ATOM     27  H   UNL     1      -1.290 -11.690   3.236  0.00  0.00    +0.142 HD
ENDBRANCH  23  25
ENDBRANCH  16  18
ENDBRANCH  15  16
ENDBRANCH   1  15
TORSDOF 6
