REMARK  Name = ZINC08685891
REMARK  5 active torsions:
REMARK  status: ('A' for Active; 'I' for Inactive)
REMARK    1  A    between atoms: C_3  and  S_27
REMARK    2  A    between atoms: C_6  and  N_7
REMARK    3  A    between atoms: C_8  and  C_10
REMARK    4  A    between atoms: C_11  and  N_26
REMARK    5  A    between atoms: S_27  and  N_30
REMARK                            x       y       z     vdW  Elec       q    Type
REMARK                         _______ _______ _______ _____ _____    ______ ____
ROOT
ATOM      1  C   UNL     1      -2.399  -2.782  -0.198  0.00  0.00    +0.097 A 
ATOM      2  C   UNL     1      -2.579  -4.141  -0.309  0.00  0.00    +0.053 A 
ATOM      3  C   UNL     1      -3.940  -4.656  -0.397  0.00  0.00    +0.028 A 
ATOM      4  C   UNL     1      -4.358  -5.993  -0.515  0.00  0.00    +0.022 A 
ATOM      5  C   UNL     1      -5.728  -6.270  -0.587  0.00  0.00    -0.001 A 
ATOM      6  C   UNL     1      -6.195  -7.591  -0.707  0.00  0.00    +0.014 A 
ATOM      7  C   UNL     1      -7.534  -7.838  -0.779  0.00  0.00    -0.043 A 
ATOM      8  C   UNL     1      -8.456  -6.791  -0.733  0.00  0.00    -0.042 A 
ATOM      9  C   UNL     1      -8.037  -5.498  -0.614  0.00  0.00    +0.030 A 
ATOM     10  C   UNL     1      -6.665  -5.205  -0.539  0.00  0.00    +0.048 A 
ATOM     11  N   UNL     1      -6.235  -3.946  -0.425  0.00  0.00    -0.349 N 
ATOM     12  C   UNL     1      -4.958  -3.664  -0.357  0.00  0.00    +0.088 A 
ATOM     13  S   UNL     1      -4.060  -2.139  -0.199  0.00  0.00    -0.064 S 
ATOM     14  C   UNL     1      -9.861  -7.349  -0.832  0.00  0.00    +0.036 C 
ATOM     15  C   UNL     1      -9.691  -8.780  -1.384  0.00  0.00    +0.009 C 
ATOM     16  C   UNL     1      -8.271  -9.155  -0.912  0.00  0.00    +0.036 C 
ATOM     17  H   UNL     1      -6.883  -3.224  -0.391  0.00  0.00    +0.166 HD
ENDROOT
BRANCH   1  19
ATOM     18  N   UNL     1      -1.198  -0.721   0.010  0.00  0.00    -0.281 N 
ATOM     19  C   UNL     1      -1.182  -2.064  -0.099  0.00  0.00    +0.257 C 
ATOM     20  O   UNL     1      -0.120  -2.661  -0.113  0.00  0.00    -0.269 OA
ATOM     21  H   UNL     1      -2.043  -0.252   0.098  0.00  0.00    +0.155 HD
BRANCH  18  27
ATOM     22  C   UNL     1       1.072  -0.452  -0.767  0.00  0.00    +0.025 A 
ATOM     23  C   UNL     1       2.256   0.259  -0.779  0.00  0.00    +0.030 A 
ATOM     24  C   UNL     1       2.376   1.417  -0.032  0.00  0.00    +0.106 A 
ATOM     25  C   UNL     1       1.312   1.866   0.729  0.00  0.00    +0.030 A 
ATOM     26  C   UNL     1       0.126   1.159   0.746  0.00  0.00    +0.025 A 
ATOM     27  C   UNL     1       0.002  -0.004  -0.004  0.00  0.00    +0.034 A 
BRANCH  24  28
ATOM     28  S   UNL     1       3.888   2.321  -0.050  0.00  0.00    +0.061 S 
ATOM     29  O   UNL     1       3.928   3.069   1.158  0.00  0.00    -0.153 OA
ATOM     30  O   UNL     1       4.909   1.399  -0.408  0.00  0.00    -0.153 OA
BRANCH  28  31
ATOM     31  N   UNL     1       3.788   3.420  -1.284  0.00  0.00    -0.177 NA
ATOM     32  C   UNL     1       4.200   3.185  -2.676  0.00  0.00    +0.109 C 
ATOM     33  C   UNL     1       3.946   4.493  -3.455  0.00  0.00    +0.018 C 
ATOM     34  C   UNL     1       3.934   5.568  -2.337  0.00  0.00    +0.018 C 
ATOM     35  C   UNL     1       3.264   4.793  -1.171  0.00  0.00    +0.109 C 
ENDBRANCH  28  31
ENDBRANCH  24  28
ENDBRANCH  18  27
ENDBRANCH   1  19
BRANCH   2  36
ATOM     36  N   UNL     1      -1.491  -5.002  -0.337  0.00  0.00    -0.356 N 
ATOM     37  H   UNL     1      -0.590  -4.646  -0.277  0.00  0.00    +0.142 HD
ATOM     38  H   UNL     1      -1.631  -5.958  -0.416  0.00  0.00    +0.142 HD
ENDBRANCH   2  36
TORSDOF 5
