REMARK  Name = ZINC25765650
REMARK  5 active torsions:
REMARK  status: ('A' for Active; 'I' for Inactive)
REMARK    1  A    between atoms: C_6  and  C_7
REMARK    2  A    between atoms: C_7  and  N_8
REMARK    3  A    between atoms: N_11  and  C_14
REMARK    4  A    between atoms: C_14  and  C_15
REMARK    5  A    between atoms: C_20  and  O_21
REMARK                            x       y       z     vdW  Elec       q    Type
REMARK                         _______ _______ _______ _____ _____    ______ ____
ROOT
ATOM      1  N   UNL     1       6.054  -1.073   1.226  0.00  0.00    +0.384 N 
ATOM      2  C   UNL     1       5.765  -2.440   0.769  0.00  0.00    -0.063 C 
ATOM      3  C   UNL     1       6.722  -2.807  -0.368  0.00  0.00    +0.066 C 
ATOM      4  N   UNL     1       8.108  -2.695   0.106  0.00  0.00    -0.302 NA
ATOM      5  C   UNL     1       8.397  -1.328   0.563  0.00  0.00    +0.066 C 
ATOM      6  C   UNL     1       7.440  -0.961   1.700  0.00  0.00    -0.063 C 
ATOM      7  H   UNL     1       5.932  -0.395   0.368  0.00  0.00    -0.081 HD
ENDROOT
BRANCH   1   8
ATOM      8  C   UNL     1       5.106  -0.655   2.267  0.00  0.00    -0.043 C 
BRANCH   8  14
ATOM      9  C   UNL     1       2.886  -1.646   1.677  0.00  0.00    +0.005 A 
ATOM     10  C   UNL     1       1.617  -1.552   1.135  0.00  0.00    +0.050 A 
ATOM     11  C   UNL     1       1.183  -0.356   0.589  0.00  0.00    +0.166 A 
ATOM     12  C   UNL     1       2.029   0.752   0.587  0.00  0.00    +0.166 A 
ATOM     13  C   UNL     1       3.298   0.650   1.131  0.00  0.00    +0.051 A 
ATOM     14  C   UNL     1       3.724  -0.547   1.675  0.00  0.00    -0.060 A 
ATOM     15  O   UNL     1       1.376   1.797  -0.001  0.00  0.00    -0.453 OA
ATOM     16  C   UNL     1      -0.018   1.436   0.010  0.00  0.00    +0.466 C 
ATOM     17  O   UNL     1       0.002  -0.004   0.002  0.00  0.00    -0.453 OA
ENDBRANCH   8  14
ENDBRANCH   1   8
BRANCH   4  18
ATOM     18  C   UNL     1       9.056  -3.113  -0.935  0.00  0.00    +0.123 C 
BRANCH  18  19
ATOM     19  C   UNL     1       8.589  -4.408  -1.549  0.00  0.00    +0.008 A 
ATOM     20  C   UNL     1       8.011  -4.409  -2.803  0.00  0.00    +0.012 A 
ATOM     21  C   UNL     1       7.584  -5.596  -3.374  0.00  0.00    -0.044 A 
ATOM     22  C   UNL     1       7.727  -6.785  -2.683  0.00  0.00    -0.041 A 
ATOM     23  C   UNL     1       8.300  -6.787  -1.423  0.00  0.00    +0.049 A 
ATOM     24  C   UNL     1       8.732  -5.599  -0.854  0.00  0.00    +0.122 A 
ATOM     25  C   UNL     1       7.181  -7.928  -3.512  0.00  0.00    +0.036 C 
ATOM     26  C   UNL     1       7.094  -7.377  -4.951  0.00  0.00    +0.009 C 
ATOM     27  C   UNL     1       6.934  -5.860  -4.716  0.00  0.00    +0.036 C 
BRANCH  24  28
ATOM     28  O   UNL     1       9.295  -5.602   0.384  0.00  0.00    -0.506 OA
ATOM     29  H   UNL     1       9.408  -6.547   0.934  0.00  0.00    +0.292 HD
ENDBRANCH  24  28
ENDBRANCH  18  19
ENDBRANCH   4  18
TORSDOF 5
