REMARK  Name = ZINC67577880
REMARK  12 active torsions:
REMARK  status: ('A' for Active; 'I' for Inactive)
REMARK    1  A    between atoms: C_1  and  C_2
REMARK    2  A    between atoms: N_5  and  C_8
REMARK    3  A    between atoms: C_8  and  C_9
REMARK    4  A    between atoms: C_9  and  C_11
REMARK    5  A    between atoms: C_9  and  O_29
REMARK    6  A    between atoms: C_11  and  N_12
REMARK    7  A    between atoms: N_15  and  C_16
REMARK    8  A    between atoms: C_21  and  S_22
REMARK    9  A    between atoms: S_22  and  C_23
REMARK   10  A    between atoms: C_23  and  C_24
REMARK   11  A    between atoms: C_24  and  C_26
REMARK   12  A    between atoms: C_24  and  C_27
REMARK                            x       y       z     vdW  Elec       q    Type
REMARK                         _______ _______ _______ _____ _____    ______ ____
ROOT
ATOM      1  N   UNL     1       0.541  -6.331   4.071  0.00  0.00    -0.297 N 
ATOM      2  C   UNL     1       0.693  -7.642   4.348  0.00  0.00    +0.304 C 
ATOM      3  O   UNL     1       0.345  -8.478   3.537  0.00  0.00    -0.253 OA
ATOM      4  N   UNL     1       1.230  -8.024   5.523  0.00  0.00    -0.268 N 
ATOM      5  H   UNL     1       0.818  -5.664   4.718  0.00  0.00    +0.150 HD
ATOM      6  H   UNL     1       1.567  -7.358   6.142  0.00  0.00    +0.156 HD
ENDROOT
BRANCH   4   7
ATOM      7  C   UNL     1       1.302  -9.386   5.851  0.00  0.00    +0.048 A 
ATOM      8  C   UNL     1       1.528 -10.328   4.859  0.00  0.00    +0.024 A 
ATOM      9  C   UNL     1       1.598 -11.670   5.184  0.00  0.00    +0.002 A 
ATOM     10  C   UNL     1       1.443 -12.077   6.497  0.00  0.00    +0.001 A 
ATOM     11  C   UNL     1       1.218 -11.145   7.492  0.00  0.00    +0.016 A 
ATOM     12  C   UNL     1       1.152  -9.795   7.176  0.00  0.00    +0.029 A 
BRANCH  12  13
ATOM     13  S   UNL     1       0.872  -8.603   8.443  0.00  0.00    -0.122 S 
BRANCH  13  14
ATOM     14  C   UNL     1       0.746  -9.594   9.957  0.00  0.00    +0.092 C 
BRANCH  14  15
ATOM     15  C   UNL     1       0.500  -8.671  11.152  0.00  0.00    +0.099 C 
ATOM     16  C   UNL     1       1.718  -7.769  11.359  0.00  0.00    +0.024 C 
BRANCH  15  17
ATOM     17  C   UNL     1       0.278  -9.481  12.361  0.00  0.00    +0.066 C 
ATOM     18  N   UNL     1       0.107 -10.106  13.294  0.00  0.00    -0.196 NA
ENDBRANCH  15  17
ENDBRANCH  14  15
ENDBRANCH  13  14
ENDBRANCH  12  13
ENDBRANCH   4   7
BRANCH   1  19
ATOM     19  C   UNL     1      -0.043  -5.915   2.794  0.00  0.00    +0.135 C 
BRANCH  19  20
ATOM     20  C   UNL     1      -0.102  -4.387   2.733  0.00  0.00    +0.115 C 
BRANCH  20  21
ATOM     21  O   UNL     1      -0.908  -3.899   3.807  0.00  0.00    -0.392 OA
ATOM     22  H   UNL     1      -1.820  -4.221   3.792  0.00  0.00    +0.210 HD
ENDBRANCH  20  21
BRANCH  20  23
ATOM     23  C   UNL     1      -0.711  -3.953   1.399  0.00  0.00    -0.046 C 
BRANCH  23  28
ATOM     24  C   UNL     1       0.061   1.515  -0.025  0.00  0.00    +0.007 C 
ATOM     25  C   UNL     1       0.071  -0.015  -0.028  0.00  0.00    -0.018 C 
ATOM     26  C   UNL     1      -1.368  -0.537  -0.010  0.00  0.00    -0.016 C 
ATOM     27  C   UNL     1      -1.350  -2.065   0.067  0.00  0.00    -0.078 C 
ATOM     28  N   UNL     1      -0.658  -2.489   1.290  0.00  0.00    +0.381 N 
ATOM     29  C   UNL     1       0.743  -2.053   1.247  0.00  0.00    -0.078 C 
ATOM     30  C   UNL     1       0.805  -0.524   1.216  0.00  0.00    -0.016 C 
ATOM     31  H   UNL     1      -1.113  -2.077   2.092  0.00  0.00    -0.082 HD
ENDBRANCH  23  28
ENDBRANCH  20  23
ENDBRANCH  19  20
ENDBRANCH   1  19
TORSDOF 10
