REMARK  Name = ZINC54554311
REMARK  4 active torsions:
REMARK  status: ('A' for Active; 'I' for Inactive)
REMARK    1  A    between atoms: C_5  and  S_10
REMARK    2  A    between atoms: C_6  and  C_7
REMARK    3  A    between atoms: S_10  and  C_11
REMARK    4  A    between atoms: C_17  and  N_19
REMARK                            x       y       z     vdW  Elec       q    Type
REMARK                         _______ _______ _______ _____ _____    ______ ____
ROOT
ATOM      1  C   UNL     1      -0.017   1.396   0.010  0.00  0.00    +0.023 A 
ATOM      2  C   UNL     1       1.190   2.074   0.002  0.00  0.00    -0.025 A 
ATOM      3  C   UNL     1       2.377   1.362  -0.013  0.00  0.00    +0.046 A 
ATOM      4  N   UNL     1       2.369   0.038  -0.020  0.00  0.00    -0.244 NA
ATOM      5  C   UNL     1       1.247  -0.660  -0.014  0.00  0.00    +0.119 A 
ATOM      6  C   UNL     1       0.002  -0.004   0.002  0.00  0.00    +0.096 A 
ATOM      7  C   UNL     1       3.546   2.326  -0.018  0.00  0.00    +0.056 C 
ATOM      8  C   UNL     1       2.950   3.683  -0.447  0.00  0.00    +0.011 C 
ATOM      9  C   UNL     1       1.480   3.559   0.007  0.00  0.00    +0.037 C 
ENDROOT
BRANCH   6  10
ATOM     10  C   UNL     1      -1.252  -0.773   0.010  0.00  0.00    +0.389 C 
ATOM     11  O   UNL     1      -2.327  -0.189   0.023  0.00  0.00    -0.240 OA
ATOM     12  O   UNL     1      -1.220  -1.996   0.003  0.00  0.00    -0.240 OA
ENDBRANCH   6  10
BRANCH   5  13
ATOM     13  S   UNL     1       1.310  -2.420  -0.024  0.00  0.00    -0.031 S 
BRANCH  13  14
ATOM     14  C   UNL     1       3.033  -2.785  -0.043  0.00  0.00    +0.177 A 
ATOM     15  N   UNL     1       3.440  -4.085  -0.059  0.00  0.00    -0.302 N 
ATOM     16  H   UNL     1       2.782  -4.798  -0.061  0.00  0.00    +0.171 HD
ATOM     17  C   UNL     1       4.756  -4.383  -0.074  0.00  0.00    +0.254 A 
ATOM     18  O   UNL     1       5.129  -5.545  -0.090  0.00  0.00    -0.268 OA
ATOM     19  C   UNL     1       5.685  -3.338  -0.072  0.00  0.00    +0.113 A 
ATOM     20  C   UNL     1       5.219  -2.031  -0.054  0.00  0.00    +0.124 A 
ATOM     21  N   UNL     1       3.901  -1.796  -0.045  0.00  0.00    -0.208 NA
BRANCH  20  22
ATOM     22  N   UNL     1       6.110  -0.977  -0.051  0.00  0.00    -0.343 N 
ATOM     23  H   UNL     1       7.065  -1.149  -0.062  0.00  0.00    +0.144 HD
ATOM     24  H   UNL     1       5.782  -0.064  -0.039  0.00  0.00    +0.144 HD
ENDBRANCH  20  22
ENDBRANCH  13  14
ENDBRANCH   5  13
TORSDOF 4
