REMARK  Name = ZINC16621197
REMARK  9 active torsions:
REMARK  status: ('A' for Active; 'I' for Inactive)
REMARK    1  A    between atoms: C_1  and  C_2
REMARK    2  A    between atoms: C_2  and  N_3
REMARK    3  A    between atoms: C_12  and  S_13
REMARK    4  A    between atoms: S_13  and  C_14
REMARK    5  A    between atoms: C_14  and  C_15
REMARK    6  A    between atoms: C_15  and  C_17
REMARK    7  A    between atoms: C_18  and  N_29
REMARK    8  A    between atoms: N_19  and  C_26
REMARK    9  A    between atoms: C_31  and  C_35
REMARK                            x       y       z     vdW  Elec       q    Type
REMARK                         _______ _______ _______ _____ _____    ______ ____
ROOT
ATOM      1  S   UNL     1       0.486  -4.511  -1.320  0.00  0.00    -0.080 S 
ENDROOT
BRANCH   1  11
ATOM      2  N   UNL     1      -1.285  -6.524  -1.708  0.00  0.00    -0.288 N 
ATOM      3  C   UNL     1      -2.503  -7.094  -1.757  0.00  0.00    +0.263 A 
ATOM      4  O   UNL     1      -2.624  -8.270  -2.058  0.00  0.00    -0.267 OA
ATOM      5  C   UNL     1      -3.655  -6.301  -1.453  0.00  0.00    +0.076 A 
ATOM      6  C   UNL     1      -5.061  -6.710  -1.443  0.00  0.00    -0.023 A 
ATOM      7  C   UNL     1      -5.969  -5.767  -1.121  0.00  0.00    -0.004 A 
ATOM      8  S   UNL     1      -5.022  -4.300  -0.813  0.00  0.00    -0.073 S 
ATOM      9  C   UNL     1      -3.403  -4.960  -1.120  0.00  0.00    +0.117 A 
ATOM     10  N   UNL     1      -2.174  -4.459  -1.083  0.00  0.00    -0.216 NA
ATOM     11  C   UNL     1      -1.130  -5.210  -1.373  0.00  0.00    +0.173 A 
ATOM     12  C   UNL     1      -7.457  -5.929  -1.039  0.00  0.00    +0.046 C 
ATOM     13  C   UNL     1      -7.779  -7.431  -1.014  0.00  0.00    -0.009 C 
ATOM     14  C   UNL     1      -6.987  -8.120  -2.130  0.00  0.00    +0.008 C 
ATOM     15  C   UNL     1      -5.499  -8.132  -1.780  0.00  0.00    +0.037 C 
ATOM     16  C   UNL     1      -9.277  -7.638  -1.245  0.00  0.00    +0.008 C 
BRANCH   2  18
ATOM     17  C   UNL     1       0.425  -7.979  -0.737  0.00  0.00    +0.027 C 
ATOM     18  C   UNL     1      -0.101  -7.330  -2.019  0.00  0.00    +0.124 C 
ENDBRANCH   2  18
ENDBRANCH   1  11
BRANCH   1  19
ATOM     19  C   UNL     1       0.079  -2.814  -0.838  0.00  0.00    +0.157 C 
BRANCH  19  20
ATOM     20  C   UNL     1       1.345  -2.005  -0.728  0.00  0.00    +0.182 C 
ATOM     21  O   UNL     1       2.420  -2.526  -0.953  0.00  0.00    -0.291 OA
BRANCH  20  22
ATOM     22  C   UNL     1       1.283  -0.643  -0.363  0.00  0.00    +0.120 A 
ATOM     23  C   UNL     1       2.435   0.163  -0.373  0.00  0.00    +0.116 A 
ATOM     24  N   UNL     1       2.325   1.475  -0.011  0.00  0.00    -0.278 N 
ATOM     25  C   UNL     1       1.145   2.003   0.351  0.00  0.00    +0.331 A 
ATOM     26  O   UNL     1       1.099   3.176   0.664  0.00  0.00    -0.246 OA
ATOM     27  N   UNL     1       0.012   1.282   0.379  0.00  0.00    -0.274 N 
ATOM     28  H   UNL     1      -0.844   1.718   0.656  0.00  0.00    +0.173 HD
ATOM     29  C   UNL     1       0.014  -0.024   0.040  0.00  0.00    +0.266 A 
ATOM     30  O   UNL     1      -1.014  -0.674   0.066  0.00  0.00    -0.267 OA
BRANCH  24  31
ATOM     31  C   UNL     1       3.518   2.325  -0.018  0.00  0.00    +0.094 C 
ATOM     32  C   UNL     1       3.408   3.693  -0.693  0.00  0.00    +0.027 C 
ATOM     33  C   UNL     1       4.202   2.571  -1.365  0.00  0.00    +0.027 C 
ENDBRANCH  24  31
BRANCH  23  34
ATOM     34  N   UNL     1       3.639  -0.355  -0.736  0.00  0.00    -0.344 N 
ATOM     35  H   UNL     1       3.678  -1.136  -1.310  0.00  0.00    +0.144 HD
ATOM     36  H   UNL     1       4.459   0.056  -0.421  0.00  0.00    +0.144 HD
ENDBRANCH  23  34
ENDBRANCH  20  22
ENDBRANCH  19  20
ENDBRANCH   1  19
TORSDOF 7
