REMARK  Name = ZINC09172492
REMARK  3 active torsions:
REMARK  status: ('A' for Active; 'I' for Inactive)
REMARK    1  A    between atoms: C_1  and  C_2
REMARK    2  A    between atoms: C_10  and  N_15
REMARK    3  A    between atoms: C_16  and  C_18
REMARK                            x       y       z     vdW  Elec       q    Type
REMARK                         _______ _______ _______ _____ _____    ______ ____
ROOT
ATOM      1  C   UNL     1      -2.553   0.199  -2.198  0.00  0.00    +0.053 C 
ATOM      2  C   UNL     1      -2.448  -0.121  -0.706  0.00  0.00    +0.187 C 
ATOM      3  C   UNL     1      -1.201  -0.961  -0.464  0.00  0.00    +0.148 C 
ATOM      4  N   UNL     1      -0.873  -1.006   0.962  0.00  0.00    -0.308 N 
ATOM      5  C   UNL     1      -0.317   0.078   1.554  0.00  0.00    +0.248 C 
ATOM      6  O   UNL     1       0.045   0.032   2.715  0.00  0.00    -0.270 OA
ATOM      7  C   UNL     1      -0.156   1.316   0.767  0.00  0.00    +0.080 A 
ATOM      8  C   UNL     1       1.050   2.012   0.759  0.00  0.00    +0.040 A 
ATOM      9  C   UNL     1       1.166   3.174   0.013  0.00  0.00    +0.034 A 
ATOM     10  C   UNL     1       0.083   3.642  -0.723  0.00  0.00    +0.027 A 
ATOM     11  C   UNL     1      -1.115   2.956  -0.720  0.00  0.00    +0.048 A 
ATOM     12  C   UNL     1      -1.246   1.795   0.024  0.00  0.00    +0.133 A 
ATOM     13  O   UNL     1      -2.410   1.097   0.029  0.00  0.00    -0.487 OA
ATOM     14  H   UNL     1      -1.053  -1.806   1.480  0.00  0.00    +0.149 HD
ENDROOT
BRANCH   9  15
ATOM     15  N   UNL     1       2.377   3.879   0.001  0.00  0.00    -0.285 N 
ATOM     16  C   UNL     1       3.545   3.213   0.089  0.00  0.00    +0.223 C 
ATOM     17  O   UNL     1       3.554   2.000   0.084  0.00  0.00    -0.275 OA
ATOM     18  H   UNL     1       2.374   4.846  -0.072  0.00  0.00    +0.155 HD
BRANCH  16  19
ATOM     19  C   UNL     1       4.841   3.975   0.196  0.00  0.00    +0.048 C 
ATOM     20  C   UNL     1       4.817   4.849   1.452  0.00  0.00    +0.019 C 
ATOM     21  C   UNL     1       6.132   5.623   1.560  0.00  0.00    -0.009 C 
ATOM     22  C   UNL     1       7.298   4.637   1.647  0.00  0.00    +0.007 C 
ATOM     23  C   UNL     1       7.322   3.763   0.391  0.00  0.00    -0.009 C 
ATOM     24  C   UNL     1       6.007   2.989   0.283  0.00  0.00    +0.019 C 
ATOM     25  C   UNL     1       7.495   4.650  -0.844  0.00  0.00    +0.007 C 
ATOM     26  C   UNL     1       6.329   5.636  -0.931  0.00  0.00    -0.009 C 
ATOM     27  C   UNL     1       6.305   6.510   0.325  0.00  0.00    +0.007 C 
ATOM     28  C   UNL     1       5.013   4.862  -1.039  0.00  0.00    +0.019 C 
ENDBRANCH  16  19
ENDBRANCH   9  15
TORSDOF 2
