REMARK  Name = ZINC08075893
REMARK  10 active torsions:
REMARK  status: ('A' for Active; 'I' for Inactive)
REMARK    1  A    between atoms: C_1  and  C_2
REMARK    2  A    between atoms: C_9  and  N_14
REMARK    3  A    between atoms: C_10  and  C_11
REMARK    4  A    between atoms: C_15  and  C_17
REMARK    5  A    between atoms: C_19  and  O_27
REMARK    6  A    between atoms: C_20  and  O_25
REMARK    7  A    between atoms: C_22  and  O_23
REMARK    8  A    between atoms: O_23  and  C_24
REMARK    9  A    between atoms: O_25  and  C_26
REMARK   10  A    between atoms: O_27  and  C_28
REMARK                            x       y       z     vdW  Elec       q    Type
REMARK                         _______ _______ _______ _____ _____    ______ ____
ROOT
ATOM      1  N   UNL     1      -1.316   3.467   0.027  0.00  0.00    -0.275 N 
ATOM      2  C   UNL     1      -1.300   2.120   0.020  0.00  0.00    +0.252 C 
ATOM      3  O   UNL     1      -2.347   1.499   0.021  0.00  0.00    -0.270 OA
ATOM      4  H   UNL     1      -0.481   3.962   0.026  0.00  0.00    +0.156 HD
ENDROOT
BRANCH   1  12
ATOM      5  C   UNL     1      -8.335   6.915   0.176  0.00  0.00    +0.008 C 
ATOM      6  C   UNL     1      -6.859   6.622   0.451  0.00  0.00    -0.009 C 
ATOM      7  C   UNL     1      -5.982   7.559  -0.385  0.00  0.00    +0.008 C 
ATOM      8  C   UNL     1      -4.524   7.446   0.064  0.00  0.00    +0.037 C 
ATOM      9  C   UNL     1      -4.121   5.976   0.054  0.00  0.00    -0.023 A 
ATOM     10  C   UNL     1      -5.053   4.999   0.054  0.00  0.00    -0.004 A 
ATOM     11  S   UNL     1      -4.127   3.490   0.041  0.00  0.00    -0.077 S 
ATOM     12  C   UNL     1      -2.523   4.146   0.036  0.00  0.00    +0.085 A 
ATOM     13  C   UNL     1      -2.742   5.517   0.051  0.00  0.00    +0.068 A 
ATOM     14  C   UNL     1      -6.541   5.170   0.063  0.00  0.00    +0.046 C 
BRANCH  13  15
ATOM     15  C   UNL     1      -1.625   6.465   0.058  0.00  0.00    +0.244 C 
ATOM     16  O   UNL     1      -1.163   6.870  -0.993  0.00  0.00    -0.270 OA
ATOM     17  N   UNL     1      -1.108   6.889   1.228  0.00  0.00    -0.325 N 
ATOM     18  H   UNL     1      -1.476   6.567   2.066  0.00  0.00    +0.145 HD
ATOM     19  H   UNL     1      -0.368   7.517   1.233  0.00  0.00    +0.145 HD
ENDBRANCH  13  15
ENDBRANCH   1  12
BRANCH   2  20
ATOM     20  C   UNL     1      -0.017   1.398   0.010  0.00  0.00    +0.082 A 
ATOM     21  C   UNL     1       1.189   2.109   0.002  0.00  0.00    +0.066 A 
ATOM     22  C   UNL     1       2.388   1.429  -0.013  0.00  0.00    +0.162 A 
ATOM     23  C   UNL     1       2.402   0.033  -0.021  0.00  0.00    +0.165 A 
ATOM     24  C   UNL     1       1.212  -0.677  -0.013  0.00  0.00    +0.095 A 
ATOM     25  C   UNL     1       0.002  -0.004   0.002  0.00  0.00    +0.136 A 
BRANCH  25  26
ATOM     26  O   UNL     1      -1.163  -0.700   0.010  0.00  0.00    -0.494 OA
ATOM     27  C   UNL     1      -1.067  -2.126   0.001  0.00  0.00    +0.277 C 
ENDBRANCH  25  26
BRANCH  23  28
ATOM     28  O   UNL     1       3.587  -0.631  -0.036  0.00  0.00    -0.491 OA
ATOM     29  C   UNL     1       3.529  -2.059  -0.043  0.00  0.00    +0.277 C 
ENDBRANCH  23  28
BRANCH  22  30
ATOM     30  O   UNL     1       3.560   2.120  -0.021  0.00  0.00    -0.491 OA
ATOM     31  C   UNL     1       3.473   3.546  -0.013  0.00  0.00    +0.277 C 
ENDBRANCH  22  30
ENDBRANCH   2  20
TORSDOF 6
