REMARK  Name = ZINC04274433
REMARK  6 active torsions:
REMARK  status: ('A' for Active; 'I' for Inactive)
REMARK    1  A    between atoms: C_1  and  C_2
REMARK    2  A    between atoms: C_4  and  C_28
REMARK    3  A    between atoms: C_6  and  N_8
REMARK    4  A    between atoms: C_9  and  N_16
REMARK    5  A    between atoms: C_17  and  C_19
REMARK    6  A    between atoms: C_23  and  N_25
REMARK                            x       y       z     vdW  Elec       q    Type
REMARK                         _______ _______ _______ _____ _____    ______ ____
ROOT
ATOM      1  N   UNL     1       0.090   8.231  -0.155  0.00  0.00    -0.218 N 
ATOM      2  C   UNL     1       1.165   7.405  -0.143  0.00  0.00    +0.133 A 
ATOM      3  C   UNL     1       2.292   8.187  -0.257  0.00  0.00    +0.026 A 
ATOM      4  C   UNL     1       1.884   9.509  -0.333  0.00  0.00    +0.079 A 
ATOM      5  N   UNL     1       0.561   9.540  -0.269  0.00  0.00    -0.168 NA
ATOM      6  C   UNL     1       2.984  10.561  -0.465  0.00  0.00    +0.127 C 
ATOM      7  S   UNL     1       4.432   9.533  -0.948  0.00  0.00    -0.150 S 
ATOM      8  C   UNL     1       3.796   7.928  -0.314  0.00  0.00    +0.110 C 
ENDROOT
BRANCH   1  14
ATOM      9  C   UNL     1      -3.505   5.115  -1.404  0.00  0.00    +0.044 C 
ATOM     10  C   UNL     1      -3.022   6.335  -0.662  0.00  0.00    -0.048 A 
ATOM     11  C   UNL     1      -3.905   7.069   0.109  0.00  0.00    +0.006 A 
ATOM     12  C   UNL     1      -3.465   8.188   0.792  0.00  0.00    -0.048 A 
ATOM     13  C   UNL     1      -2.142   8.575   0.706  0.00  0.00    +0.031 A 
ATOM     14  C   UNL     1      -1.253   7.840  -0.067  0.00  0.00    +0.068 A 
ATOM     15  C   UNL     1      -1.699   6.720  -0.756  0.00  0.00    +0.031 A 
ATOM     16  C   UNL     1      -4.430   8.986   1.630  0.00  0.00    +0.044 C 
ENDBRANCH   1  14
BRANCH   2  17
ATOM     17  N   UNL     1       1.135   6.015  -0.041  0.00  0.00    -0.266 N 
ATOM     18  C   UNL     1       2.185   5.356   0.488  0.00  0.00    +0.249 C 
ATOM     19  O   UNL     1       3.114   5.977   0.967  0.00  0.00    -0.270 OA
ATOM     20  H   UNL     1       0.359   5.523  -0.349  0.00  0.00    +0.157 HD
BRANCH  18  21
ATOM     21  C   UNL     1       2.207   3.878   0.486  0.00  0.00    +0.039 A 
ATOM     22  C   UNL     1       1.097   3.161   0.033  0.00  0.00    +0.013 A 
ATOM     23  C   UNL     1       1.124   1.782   0.034  0.00  0.00    +0.003 A 
ATOM     24  C   UNL     1       2.247   1.109   0.482  0.00  0.00    +0.033 A 
ATOM     25  C   UNL     1       3.348   1.813   0.936  0.00  0.00    +0.127 A 
ATOM     26  C   UNL     1       3.336   3.193   0.936  0.00  0.00    +0.045 A 
BRANCH  25  27
ATOM     27  N   UNL     1       4.542   1.085   1.420  0.00  0.00    +0.056 N 
ATOM     28  O   UNL     1       4.555  -0.133   1.417  0.00  0.00    -0.126 OA
ATOM     29  O   UNL     1       5.512   1.703   1.820  0.00  0.00    -0.126 OA
ENDBRANCH  25  27
ENDBRANCH  18  21
ENDBRANCH   2  17
TORSDOF 4
