REMARK  Name = ZINC08298704
REMARK  7 active torsions:
REMARK  status: ('A' for Active; 'I' for Inactive)
REMARK    1  A    between atoms: C_6  and  C_7
REMARK    2  A    between atoms: C_7  and  N_8
REMARK    3  A    between atoms: C_9  and  C_11
REMARK    4  A    between atoms: C_19  and  C_21
REMARK    5  A    between atoms: C_21  and  N_22
REMARK    6  A    between atoms: C_24  and  C_27
REMARK    7  A    between atoms: C_27  and  O_33
REMARK                            x       y       z     vdW  Elec       q    Type
REMARK                         _______ _______ _______ _____ _____    ______ ____
ROOT
ATOM      1  C   UNL     1       1.428   2.039  -0.001  0.00  0.00    +0.061 C 
ATOM      2  C   UNL     1       2.131   1.505  -1.252  0.00  0.00    -0.065 C 
ATOM      3  C   UNL     1       0.744  -0.481  -1.250  0.00  0.00    -0.078 C 
ATOM      4  C   UNL     1       0.002  -0.004   0.002  0.00  0.00    -0.015 C 
ATOM      5  C   UNL     1      -0.019   1.530   0.011  0.00  0.00    -0.004 C 
ATOM      6  C   UNL     1      -0.718   2.016  -1.265  0.00  0.00    -0.010 C 
ATOM      7  C   UNL     1       0.044   1.484  -2.481  0.00  0.00    -0.046 C 
ATOM      8  N   UNL     1       1.203   0.674  -2.050  0.00  0.00    +0.383 N 
ATOM      9  H   UNL     1       1.697   0.329  -2.882  0.00  0.00    -0.081 HD
ENDROOT
BRANCH   1  11
ATOM     10  N   UNL     1       3.438   1.873   1.432  0.00  0.00    -0.311 N 
ATOM     11  C   UNL     1       2.146   1.546   1.230  0.00  0.00    +0.215 C 
ATOM     12  O   UNL     1       1.561   0.856   2.037  0.00  0.00    -0.276 OA
ATOM     13  H   UNL     1       3.906   2.425   0.786  0.00  0.00    +0.149 HD
BRANCH  10  14
ATOM     14  C   UNL     1       4.136   1.394   2.628  0.00  0.00    +0.139 C 
BRANCH  14  20
ATOM     15  C   UNL     1       6.551   1.139   2.021  0.00  0.00    +0.008 A 
ATOM     16  C   UNL     1       7.853   1.601   2.003  0.00  0.00    +0.038 A 
ATOM     17  C   UNL     1       8.165   2.815   2.590  0.00  0.00    +0.123 A 
ATOM     18  C   UNL     1       7.170   3.568   3.190  0.00  0.00    +0.038 A 
ATOM     19  C   UNL     1       5.867   3.108   3.201  0.00  0.00    +0.008 A 
ATOM     20  C   UNL     1       5.557   1.895   2.614  0.00  0.00    -0.030 A 
ATOM     21  F   UNL     1       9.439   3.264   2.579  0.00  0.00    -0.205 F 
ENDBRANCH  14  20
ENDBRANCH  10  14
ENDBRANCH   1  11
BRANCH   7  22
ATOM     22  C   UNL     1      -0.886   0.610  -3.325  0.00  0.00    +0.130 C 
BRANCH  22  23
ATOM     23  N   UNL     1      -0.192   0.196  -4.547  0.00  0.00    -0.253 N 
ATOM     24  C   UNL     1      -0.017  -1.079  -4.967  0.00  0.00    +0.136 A 
ATOM     25  C   UNL     1       0.668  -1.001  -6.131  0.00  0.00    +0.114 A 
ATOM     26  N   UNL     1       0.882   0.299  -6.360  0.00  0.00    -0.132 NA
ATOM     27  N   UNL     1       0.360   0.982  -5.403  0.00  0.00    -0.065 NA
BRANCH  25  28
ATOM     28  C   UNL     1       1.107  -2.154  -6.997  0.00  0.00    +0.111 C 
ATOM     29  C   UNL     1       2.632  -2.146  -7.121  0.00  0.00    +0.041 C 
ATOM     30  C   UNL     1       3.078  -3.316  -8.000  0.00  0.00    +0.003 C 
ATOM     31  C   UNL     1       2.453  -3.178  -9.390  0.00  0.00    +0.000 C 
ATOM     32  C   UNL     1       0.928  -3.185  -9.266  0.00  0.00    +0.003 C 
ATOM     33  C   UNL     1       0.482  -2.015  -8.387  0.00  0.00    +0.041 C 
BRANCH  28  34
ATOM     34  O   UNL     1       0.683  -3.383  -6.405  0.00  0.00    -0.382 OA
ATOM     35  H   UNL     1       1.042  -3.538  -5.520  0.00  0.00    +0.211 HD
ENDBRANCH  28  34
ENDBRANCH  25  28
ENDBRANCH  22  23
ENDBRANCH   7  22
TORSDOF 7
