REMARK  Name = ZINC02758854
REMARK  13 active torsions:
REMARK  status: ('A' for Active; 'I' for Inactive)
REMARK    1  A    between atoms: C_1  and  C_2
REMARK    2  A    between atoms: C_3  and  C_28
REMARK    3  A    between atoms: C_4  and  C_23
REMARK    4  A    between atoms: C_10  and  C_15
REMARK    5  A    between atoms: C_19  and  O_21
REMARK    6  A    between atoms: O_21  and  C_22
REMARK    7  A    between atoms: C_28  and  O_30
REMARK    8  A    between atoms: O_30  and  C_31
REMARK    9  A    between atoms: C_31  and  C_32
REMARK   10  A    between atoms: C_32  and  O_33
REMARK   11  A    between atoms: O_33  and  C_34
REMARK   12  A    between atoms: C_34  and  C_35
REMARK   13  A    between atoms: C_34  and  C_36
REMARK                            x       y       z     vdW  Elec       q    Type
REMARK                         _______ _______ _______ _____ _____    ______ ____
ROOT
ATOM      1  C   UNL     1       7.937   2.845   1.291  0.00  0.00    +0.061 C 
ATOM      2  C   UNL     1       7.082   2.466   2.473  0.00  0.00    +0.016 C 
ATOM      3  C   UNL     1       5.823   2.038   2.277  0.00  0.00    +0.066 C 
ATOM      4  C   UNL     1       4.943   1.653   3.430  0.00  0.00    +0.099 C 
ATOM      5  C   UNL     1       5.481   2.197   4.728  0.00  0.00    +0.024 C 
ATOM      6  C   UNL     1       6.761   2.613   4.824  0.00  0.00    +0.016 C 
ATOM      7  N   UNL     1       7.593   2.561   3.738  0.00  0.00    -0.321 N 
ATOM      8  C   UNL     1       7.310   3.142   6.126  0.00  0.00    +0.059 C 
ATOM      9  C   UNL     1       6.191   3.824   6.916  0.00  0.00    +0.032 C 
ATOM     10  C   UNL     1       5.074   2.804   7.156  0.00  0.00    +0.088 C 
ATOM     11  C   UNL     1       4.612   2.261   5.832  0.00  0.00    +0.162 C 
ATOM     12  O   UNL     1       3.468   1.870   5.713  0.00  0.00    -0.292 OA
ATOM     13  H   UNL     1       8.681   2.595   3.890  0.00  0.00    +0.152 HD
ENDROOT
BRANCH   9  14
ATOM     14  C   UNL     1       6.727   4.309   8.238  0.00  0.00    -0.040 A 
ATOM     15  C   UNL     1       7.266   3.407   9.138  0.00  0.00    +0.004 A 
ATOM     16  C   UNL     1       7.759   3.848  10.352  0.00  0.00    +0.004 A 
ATOM     17  C   UNL     1       7.715   5.192  10.669  0.00  0.00    +0.045 A 
ATOM     18  C   UNL     1       7.175   6.099   9.768  0.00  0.00    +0.120 A 
ATOM     19  C   UNL     1       6.685   5.654   8.549  0.00  0.00    +0.049 A 
BRANCH  18  20
ATOM     20  O   UNL     1       7.131   7.421  10.078  0.00  0.00    -0.495 OA
ATOM     21  C   UNL     1       7.659   7.808  11.348  0.00  0.00    +0.277 C 
ENDBRANCH  18  20
ENDBRANCH   9  14
BRANCH   4  22
ATOM     22  C   UNL     1       4.875   0.150   3.520  0.00  0.00    +0.002 A 
ATOM     23  C   UNL     1       3.793  -0.661   3.435  0.00  0.00    +0.012 A 
ATOM     24  C   UNL     1       3.970  -2.028   3.546  0.00  0.00    +0.008 A 
ATOM     25  C   UNL     1       5.220  -2.515   3.737  0.00  0.00    +0.045 A 
ATOM     26  S   UNL     1       6.199  -1.023   3.758  0.00  0.00    -0.101 S 
ENDBRANCH   4  22
BRANCH   3  27
ATOM     27  C   UNL     1       5.316   1.956   0.959  0.00  0.00    +0.338 C 
ATOM     28  O   UNL     1       5.978   2.368   0.025  0.00  0.00    -0.245 OA
BRANCH  27  29
ATOM     29  O   UNL     1       4.098   1.419   0.738  0.00  0.00    -0.459 OA
BRANCH  29  30
ATOM     30  C   UNL     1       3.648   1.367  -0.618  0.00  0.00    +0.260 C 
BRANCH  30  31
ATOM     31  C   UNL     1       2.257   0.732  -0.670  0.00  0.00    +0.201 C 
BRANCH  31  32
ATOM     32  O   UNL     1       1.323   1.575   0.006  0.00  0.00    -0.374 OA
BRANCH  32  33
ATOM     33  C   UNL     1      -0.014   1.071   0.015  0.00  0.00    +0.112 C 
ATOM     34  C   UNL     1      -0.761   1.583  -1.218  0.00  0.00    +0.037 C 
ATOM     35  C   UNL     1      -0.731   1.548   1.280  0.00  0.00    +0.037 C 
ENDBRANCH  32  33
ENDBRANCH  31  32
ENDBRANCH  30  31
ENDBRANCH  29  30
ENDBRANCH  27  29
ENDBRANCH   3  27
TORSDOF 9
