REMARK  Name = ZINC00917765
REMARK  9 active torsions:
REMARK  status: ('A' for Active; 'I' for Inactive)
REMARK    1  A    between atoms: C_1  and  C_2
REMARK    2  A    between atoms: C_2  and  C_3
REMARK    3  A    between atoms: C_9  and  C_11
REMARK    4  A    between atoms: C_11  and  S_12
REMARK    5  A    between atoms: S_12  and  C_13
REMARK    6  A    between atoms: C_16  and  C_26
REMARK    7  A    between atoms: N_17  and  C_18
REMARK    8  A    between atoms: C_21  and  O_24
REMARK    9  A    between atoms: O_24  and  C_25
REMARK                            x       y       z     vdW  Elec       q    Type
REMARK                         _______ _______ _______ _____ _____    ______ ____
ROOT
ATOM      1  C   UNL     1       5.191  -3.409  -8.529  0.00  0.00    +0.197 A 
ATOM      2  N   UNL     1       4.215  -3.503  -9.405  0.00  0.00    -0.122 NA
ATOM      3  N   UNL     1       4.671  -3.918 -10.533  0.00  0.00    -0.128 NA
ATOM      4  C   UNL     1       5.967  -4.114 -10.448  0.00  0.00    +0.169 A 
ATOM      5  N   UNL     1       6.342  -3.789  -9.163  0.00  0.00    -0.270 N 
ENDROOT
BRANCH   4   6
ATOM      6  C   UNL     1       6.856  -4.589 -11.529  0.00  0.00    +0.020 A 
ATOM      7  C   UNL     1       8.137  -5.056 -11.229  0.00  0.00    +0.012 A 
ATOM      8  C   UNL     1       8.962  -5.498 -12.242  0.00  0.00    +0.016 A 
ATOM      9  C   UNL     1       8.521  -5.481 -13.554  0.00  0.00    +0.018 A 
ATOM     10  C   UNL     1       7.252  -5.019 -13.858  0.00  0.00    +0.016 A 
ATOM     11  C   UNL     1       6.416  -4.579 -12.854  0.00  0.00    +0.012 A 
ATOM     12 BR   UNL     1       9.659  -6.089 -14.937  0.00  0.00    -0.050 Br
ENDBRANCH   4   6
BRANCH   5  13
ATOM     13  C   UNL     1       7.634  -3.839  -8.617  0.00  0.00    +0.051 A 
ATOM     14  C   UNL     1       8.623  -2.992  -9.097  0.00  0.00    +0.030 A 
ATOM     15  C   UNL     1       9.894  -3.042  -8.560  0.00  0.00    +0.047 A 
ATOM     16  C   UNL     1      10.182  -3.939  -7.542  0.00  0.00    +0.120 A 
ATOM     17  C   UNL     1       9.194  -4.786  -7.062  0.00  0.00    +0.047 A 
ATOM     18  C   UNL     1       7.921  -4.732  -7.595  0.00  0.00    +0.030 A 
BRANCH  16  19
ATOM     19  O   UNL     1      11.434  -3.989  -7.014  0.00  0.00    -0.495 OA
ATOM     20  C   UNL     1      11.661  -4.937  -5.968  0.00  0.00    +0.277 C 
ENDBRANCH  16  19
ENDBRANCH   5  13
BRANCH   1  21
ATOM     21  S   UNL     1       5.044  -2.884  -6.854  0.00  0.00    -0.076 S 
BRANCH  21  22
ATOM     22  C   UNL     1       3.275  -2.533  -6.657  0.00  0.00    +0.173 C 
BRANCH  22  29
ATOM     23  C   UNL     1       0.707  -0.490  -1.238  0.00  0.00    +0.103 A 
ATOM     24  N   UNL     1       1.983  -0.759  -1.434  0.00  0.00    -0.145 NA
ATOM     25  N   UNL     1       2.358  -1.161  -2.572  0.00  0.00    -0.126 NA
ATOM     26  C   UNL     1       1.510  -1.319  -3.570  0.00  0.00    +0.188 A 
ATOM     27  S   UNL     1       0.050  -0.872  -2.855  0.00  0.00    -0.035 S 
ATOM     28  N   UNL     1       1.756  -1.748  -4.870  0.00  0.00    -0.263 N 
ATOM     29  C   UNL     1       3.009  -2.068  -5.248  0.00  0.00    +0.229 C 
ATOM     30  O   UNL     1       3.923  -1.982  -4.455  0.00  0.00    -0.275 OA
ATOM     31  H   UNL     1       1.025  -1.817  -5.504  0.00  0.00    +0.157 HD
BRANCH  23  33
ATOM     32  C   UNL     1      -0.019   1.526   0.010  0.00  0.00    +0.011 C 
ATOM     33  C   UNL     1       0.002  -0.004   0.002  0.00  0.00    +0.061 C 
ENDBRANCH  23  33
ENDBRANCH  22  29
ENDBRANCH  21  22
ENDBRANCH   1  21
TORSDOF 7
