REMARK  Name = ZINC35343130
REMARK  13 active torsions:
REMARK  status: ('A' for Active; 'I' for Inactive)
REMARK    1  A    between atoms: C_1  and  C_2
REMARK    2  A    between atoms: C_5  and  N_8
REMARK    3  A    between atoms: C_9  and  C_28
REMARK    4  A    between atoms: C_12  and  S_13
REMARK    5  A    between atoms: S_13  and  C_14
REMARK    6  A    between atoms: C_14  and  C_15
REMARK    7  A    between atoms: C_17  and  C_20
REMARK    8  A    between atoms: N_22  and  C_23
REMARK    9  A    between atoms: C_23  and  C_24
REMARK   10  A    between atoms: C_24  and  N_25
REMARK   11  A    between atoms: N_25  and  C_26
REMARK   12  A    between atoms: N_25  and  C_27
REMARK   13  A    between atoms: C_28  and  C_29
REMARK                            x       y       z     vdW  Elec       q    Type
REMARK                         _______ _______ _______ _____ _____    ______ ____
ROOT
ATOM      1  N   UNL     1       0.058  -4.173  -0.021  0.00  0.00    -0.274 N 
ATOM      2  C   UNL     1      -0.920  -5.016   0.436  0.00  0.00    +0.143 A 
ATOM      3  N   UNL     1      -0.502  -6.235   0.242  0.00  0.00    -0.133 NA
ATOM      4  N   UNL     1       0.663  -6.223  -0.301  0.00  0.00    -0.122 NA
ATOM      5  C   UNL     1       1.054  -4.984  -0.491  0.00  0.00    +0.197 A 
ENDROOT
BRANCH   1  10
ATOM      6  C   UNL     1      -0.018   1.503   0.010  0.00  0.00    +0.044 C 
ATOM      7  C   UNL     1       0.002  -0.004   0.002  0.00  0.00    -0.050 A 
ATOM      8  C   UNL     1       0.006  -0.688  -1.200  0.00  0.00    +0.005 A 
ATOM      9  C   UNL     1       0.024  -2.069  -1.211  0.00  0.00    +0.026 A 
ATOM     10  C   UNL     1       0.040  -2.771  -0.013  0.00  0.00    +0.050 A 
ATOM     11  C   UNL     1       0.036  -2.082   1.192  0.00  0.00    +0.026 A 
ATOM     12  C   UNL     1       0.023  -0.700   1.196  0.00  0.00    +0.005 A 
ENDBRANCH   1  10
BRANCH   5  13
ATOM     13  S   UNL     1       2.576  -4.465  -1.212  0.00  0.00    -0.079 S 
BRANCH  13  14
ATOM     14  C   UNL     1       3.425  -6.017  -1.612  0.00  0.00    +0.140 C 
BRANCH  14  15
ATOM     15  C   UNL     1       4.759  -5.712  -2.243  0.00  0.00    +0.089 A 
ATOM     16  N   UNL     1       5.912  -5.554  -1.652  0.00  0.00    -0.239 NA
ATOM     17  C   UNL     1       6.981  -5.287  -2.409  0.00  0.00    +0.133 A 
ATOM     18  C   UNL     1       6.759  -5.204  -3.757  0.00  0.00    +0.080 A 
ATOM     19  S   UNL     1       5.110  -5.505  -3.871  0.00  0.00    -0.079 S 
BRANCH  17  20
ATOM     20  C   UNL     1       8.319  -5.093  -1.825  0.00  0.00    +0.263 C 
ATOM     21  O   UNL     1       9.268  -4.851  -2.547  0.00  0.00    -0.269 OA
ATOM     22  N   UNL     1       8.493  -5.183  -0.492  0.00  0.00    -0.312 N 
ATOM     23  H   UNL     1       7.736  -5.376   0.084  0.00  0.00    +0.149 HD
BRANCH  22  24
ATOM     24  C   UNL     1       9.824  -4.990   0.088  0.00  0.00    +0.086 C 
BRANCH  24  25
ATOM     25  C   UNL     1       9.745  -5.145   1.609  0.00  0.00    -0.061 C 
BRANCH  25  26
ATOM     26  N   UNL     1      11.080  -4.951   2.190  0.00  0.00    +0.377 N 
ATOM     27  C   UNL     1      10.985  -4.981   3.656  0.00  0.00    -0.097 C 
ATOM     28  C   UNL     1      11.973  -6.026   1.736  0.00  0.00    -0.097 C 
ATOM     29  H   UNL     1      11.450  -4.060   1.895  0.00  0.00    -0.083 HD
ENDBRANCH  25  26
ENDBRANCH  24  25
ENDBRANCH  22  24
ENDBRANCH  17  20
ENDBRANCH  14  15
ENDBRANCH  13  14
ENDBRANCH   5  13
BRANCH   2  30
ATOM     30  C   UNL     1      -2.235  -4.610   1.049  0.00  0.00    +0.111 C 
BRANCH  30  31
ATOM     31  C   UNL     1      -3.274  -4.474  -0.034  0.00  0.00    -0.040 A 
ATOM     32  C   UNL     1      -3.454  -3.261  -0.671  0.00  0.00    +0.004 A 
ATOM     33  C   UNL     1      -4.407  -3.137  -1.665  0.00  0.00    +0.000 A 
ATOM     34  C   UNL     1      -5.180  -4.226  -2.021  0.00  0.00    +0.000 A 
ATOM     35  C   UNL     1      -4.999  -5.440  -1.384  0.00  0.00    +0.000 A 
ATOM     36  C   UNL     1      -4.043  -5.565  -0.394  0.00  0.00    +0.004 A 
ENDBRANCH  30  31
ENDBRANCH   2  30
TORSDOF 10
