REMARK  Name = ZINC06443602
REMARK  9 active torsions:
REMARK  status: ('A' for Active; 'I' for Inactive)
REMARK    1  A    between atoms: C_1  and  C_2
REMARK    2  A    between atoms: C_12  and  C_14
REMARK    3  A    between atoms: C_14  and  C_16
REMARK    4  A    between atoms: C_14  and  N_67
REMARK    5  A    between atoms: N_20  and  C_21
REMARK    6  A    between atoms: C_26  and  C_27
REMARK    7  A    between atoms: C_26  and  N_67
REMARK    8  A    between atoms: C_34  and  C_35
REMARK    9  A    between atoms: C_34  and  N_67
REMARK                            x       y       z     vdW  Elec       q    Type
REMARK                         _______ _______ _______ _____ _____    ______ ____
ROOT
ATOM      1  C   UNL     1      -0.278  -2.265   4.329  0.00  0.00    +0.040 C 
ENDROOT
BRANCH   1  13
ATOM      2  C   UNL     1      -0.815   3.716   1.657  0.00  0.00    +0.046 C 
ATOM      3  C   UNL     1      -1.258   2.362   1.165  0.00  0.00    -0.026 A 
ATOM      4  C   UNL     1      -1.905   2.245  -0.047  0.00  0.00    +0.005 A 
ATOM      5  C   UNL     1      -2.313   1.003  -0.515  0.00  0.00    +0.001 A 
ATOM      6  C   UNL     1      -2.091  -0.125   0.224  0.00  0.00    +0.010 A 
ATOM      7  C   UNL     1      -1.442  -0.029   1.459  0.00  0.00    -0.001 A 
ATOM      8  C   UNL     1      -1.021   1.228   1.933  0.00  0.00    +0.052 A 
ATOM      9  N   UNL     1      -0.381   1.317   3.151  0.00  0.00    -0.322 N 
ATOM     10  H   UNL     1      -0.091   2.184   3.477  0.00  0.00    +0.169 HD
ATOM     11  C   UNL     1      -0.153   0.220   3.894  0.00  0.00    +0.251 A 
ATOM     12  O   UNL     1       0.415   0.336   4.967  0.00  0.00    -0.268 OA
ATOM     13  C   UNL     1      -0.554  -1.063   3.464  0.00  0.00    +0.011 A 
ATOM     14  C   UNL     1      -1.188  -1.217   2.275  0.00  0.00    +0.017 A 
ENDBRANCH   1  13
BRANCH   1  15
ATOM     15  C   UNL     1       1.211  -2.459   4.459  0.00  0.00    +0.143 A 
ATOM     16  N   UNL     1       2.032  -1.748   5.193  0.00  0.00    -0.115 NA
ATOM     17  N   UNL     1       3.219  -2.224   5.037  0.00  0.00    -0.023 NA
ATOM     18  N   UNL     1       3.177  -3.220   4.222  0.00  0.00    -0.044 NA
ATOM     19  N   UNL     1       1.955  -3.400   3.848  0.00  0.00    -0.227 N 
BRANCH  19  20
ATOM     20  C   UNL     1       1.470  -4.431   2.928  0.00  0.00    +0.111 C 
ATOM     21  C   UNL     1       1.830  -5.832   3.466  0.00  0.00    +0.027 C 
ATOM     22  C   UNL     1       2.182  -6.647   2.196  0.00  0.00    +0.002 C 
ATOM     23  C   UNL     1       2.928  -5.611   1.319  0.00  0.00    +0.002 C 
ATOM     24  C   UNL     1       2.167  -4.291   1.563  0.00  0.00    +0.027 C 
ENDBRANCH  19  20
ENDBRANCH   1  15
BRANCH   1  25
ATOM     25  N   UNL     1      -0.846  -2.036   5.674  0.00  0.00    +0.397 N 
ATOM     26  H   UNL     1      -0.288  -1.321   6.155  0.00  0.00    -0.079 HD
BRANCH  25  27
ATOM     27  C   UNL     1      -2.240  -1.558   5.558  0.00  0.00    -0.041 C 
BRANCH  27  28
ATOM     28  C   UNL     1      -2.668  -0.986   6.886  0.00  0.00    -0.064 A 
ATOM     29  C   UNL     1      -3.294  -1.794   7.816  0.00  0.00    +0.004 A 
ATOM     30  C   UNL     1      -3.683  -1.272   9.035  0.00  0.00    +0.038 A 
ATOM     31  C   UNL     1      -3.453   0.063   9.321  0.00  0.00    +0.123 A 
ATOM     32  C   UNL     1      -2.831   0.873   8.386  0.00  0.00    +0.038 A 
ATOM     33  C   UNL     1      -2.439   0.347   7.169  0.00  0.00    +0.004 A 
ATOM     34  F   UNL     1      -3.837   0.576  10.510  0.00  0.00    -0.205 F 
ENDBRANCH  27  28
ENDBRANCH  25  27
BRANCH  25  35
ATOM     35  C   UNL     1      -0.805  -3.286   6.461  0.00  0.00    -0.001 C 
BRANCH  35  36
ATOM     36  C   UNL     1       0.591  -3.471   6.998  0.00  0.00    +0.089 A 
ATOM     37  C   UNL     1       1.092  -2.890   8.103  0.00  0.00    +0.042 A 
ATOM     38  C   UNL     1       2.426  -3.339   8.233  0.00  0.00    +0.041 A 
ATOM     39  C   UNL     1       2.661  -4.169   7.200  0.00  0.00    +0.195 A 
ATOM     40  O   UNL     1       1.544  -4.250   6.459  0.00  0.00    -0.470 OA
ENDBRANCH  35  36
ENDBRANCH  25  35
ENDBRANCH   1  25
TORSDOF 8
