REMARK  Name = ZINC40347622
REMARK  6 active torsions:
REMARK  status: ('A' for Active; 'I' for Inactive)
REMARK    1  A    between atoms: C_1  and  C_2
REMARK    2  A    between atoms: C_5  and  S_9
REMARK    3  A    between atoms: C_6  and  N_8
REMARK    4  A    between atoms: S_9  and  N_12
REMARK    5  A    between atoms: N_12  and  C_13
REMARK    6  A    between atoms: C_13  and  C_14
REMARK                            x       y       z     vdW  Elec       q    Type
REMARK                         _______ _______ _______ _____ _____    ______ ____
ROOT
ATOM      1  S   UNL     1       0.105  -4.487   0.014  0.00  0.00    +0.060 S 
ATOM      2  O   UNL     1      -0.839  -4.919   0.984  0.00  0.00    -0.153 OA
ATOM      3  O   UNL     1      -0.052  -4.754  -1.373  0.00  0.00    -0.153 OA
ENDROOT
BRANCH   1   8
ATOM      4  C   UNL     1       0.533   1.509   0.584  0.00  0.00    +0.044 C 
ATOM      5  C   UNL     1       0.429   0.013   0.439  0.00  0.00    -0.049 A 
ATOM      6  C   UNL     1      -0.457  -0.698   1.228  0.00  0.00    +0.005 A 
ATOM      7  C   UNL     1      -0.555  -2.071   1.098  0.00  0.00    +0.030 A 
ATOM      8  C   UNL     1       0.231  -2.737   0.178  0.00  0.00    +0.126 A 
ATOM      9  C   UNL     1       1.121  -2.026  -0.617  0.00  0.00    +0.051 A 
ATOM     10  C   UNL     1       1.213  -0.646  -0.487  0.00  0.00    +0.028 A 
BRANCH   9  11
ATOM     11  N   UNL     1       1.917  -2.697  -1.548  0.00  0.00    -0.356 N 
ATOM     12  H   UNL     1       1.805  -3.651  -1.684  0.00  0.00    +0.142 HD
ATOM     13  H   UNL     1       2.581  -2.208  -2.059  0.00  0.00    +0.142 HD
ENDBRANCH   9  11
ENDBRANCH   1   8
BRANCH   1  14
ATOM     14  N   UNL     1       1.566  -5.127   0.457  0.00  0.00    -0.190 NA
ATOM     15  H   UNL     1       2.112  -5.589  -0.198  0.00  0.00    +0.148 HD
BRANCH  14  16
ATOM     16  C   UNL     1       2.035  -4.994   1.839  0.00  0.00    +0.111 C 
BRANCH  16  17
ATOM     17  C   UNL     1       3.184  -5.974   2.083  0.00  0.00    +0.030 C 
ATOM     18  C   UNL     1       3.756  -5.752   3.487  0.00  0.00    +0.009 C 
ATOM     19  C   UNL     1       4.852  -6.789   3.750  0.00  0.00    +0.028 C 
ATOM     20  C   UNL     1       4.269  -8.193   3.575  0.00  0.00    +0.160 C 
ATOM     21  O   UNL     1       3.727  -8.322   2.259  0.00  0.00    -0.379 OA
ATOM     22  C   UNL     1       2.665  -7.410   1.972  0.00  0.00    +0.164 C 
ENDBRANCH  16  17
ENDBRANCH  14  16
ENDBRANCH   1  14
TORSDOF 5
