REMARK  Name = ZINC35870350
REMARK  7 active torsions:
REMARK  status: ('A' for Active; 'I' for Inactive)
REMARK    1  A    between atoms: C_4  and  C_7
REMARK    2  A    between atoms: C_7  and  C_8
REMARK    3  A    between atoms: C_8  and  N_9
REMARK    4  A    between atoms: C_10  and  C_12
REMARK    5  A    between atoms: C_17  and  N_36
REMARK    6  A    between atoms: N_25  and  C_28
REMARK    7  A    between atoms: C_28  and  C_29
REMARK                            x       y       z     vdW  Elec       q    Type
REMARK                         _______ _______ _______ _____ _____    ______ ____
ROOT
ATOM      1  C   UNL     1       7.365  -2.749   2.524  0.00  0.00    +0.098 C 
ATOM      2  C   UNL     1       7.193  -4.083   1.798  0.00  0.00    +0.051 C 
ATOM      3  C   UNL     1       6.265  -4.968   2.590  0.00  0.00    -0.023 A 
ATOM      4  C   UNL     1       5.548  -5.953   1.935  0.00  0.00    +0.038 A 
ATOM      5  C   UNL     1       4.688  -6.772   2.642  0.00  0.00    +0.127 A 
ATOM      6  C   UNL     1       4.541  -6.609   4.008  0.00  0.00    +0.034 A 
ATOM      7  C   UNL     1       5.256  -5.630   4.667  0.00  0.00    +0.025 A 
ATOM      8  C   UNL     1       6.125  -4.805   3.957  0.00  0.00    +0.033 A 
ATOM      9  N   UNL     1       6.847  -3.826   4.658  0.00  0.00    -0.329 N 
ATOM     10  C   UNL     1       7.826  -3.006   3.963  0.00  0.00    +0.069 C 
ATOM     11  C   UNL     1       8.089  -1.671   4.642  0.00  0.00    -0.055 C 
ATOM     12  N   UNL     1       8.101  -1.792   6.099  0.00  0.00    +0.385 N 
ATOM     13  C   UNL     1       6.779  -2.255   6.549  0.00  0.00    -0.059 C 
ATOM     14  C   UNL     1       6.594  -3.701   6.096  0.00  0.00    +0.087 C 
ATOM     15  H   UNL     1       8.805  -2.459   6.377  0.00  0.00    -0.081 HD
ENDROOT
BRANCH   1  17
ATOM     16  N   UNL     1       5.450  -1.678   1.382  0.00  0.00    -0.315 N 
ATOM     17  C   UNL     1       6.050  -2.013   2.541  0.00  0.00    +0.218 C 
ATOM     18  O   UNL     1       5.532  -1.722   3.599  0.00  0.00    -0.275 OA
ATOM     19  H   UNL     1       5.864  -1.911   0.536  0.00  0.00    +0.149 HD
BRANCH  16  20
ATOM     20  C   UNL     1       4.171  -0.963   1.399  0.00  0.00    +0.109 C 
BRANCH  20  21
ATOM     21  C   UNL     1       3.711  -0.707  -0.038  0.00  0.00    +0.054 C 
BRANCH  21  25
ATOM     22  C   UNL     1      -0.017   1.378   0.010  0.00  0.00    +0.000 A 
ATOM     23  C   UNL     1       1.171   2.086   0.002  0.00  0.00    +0.000 A 
ATOM     24  C   UNL     1       2.377   1.411  -0.013  0.00  0.00    +0.004 A 
ATOM     25  C   UNL     1       2.396   0.029  -0.020  0.00  0.00    -0.046 A 
ATOM     26  C   UNL     1       1.208  -0.679  -0.012  0.00  0.00    +0.004 A 
ATOM     27  C   UNL     1       0.002  -0.004   0.002  0.00  0.00    +0.000 A 
ENDBRANCH  21  25
ENDBRANCH  20  21
ENDBRANCH  16  20
ENDBRANCH   1  17
BRANCH   5  28
ATOM     28  N   UNL     1       3.923  -7.824   1.937  0.00  0.00    +0.056 N 
ATOM     29  O   UNL     1       4.050  -7.967   0.743  0.00  0.00    -0.126 OA
ATOM     30  O   UNL     1       3.170  -8.541   2.555  0.00  0.00    -0.126 OA
ENDBRANCH   5  28
BRANCH  12  31
ATOM     31  C   UNL     1       8.395  -0.484   6.699  0.00  0.00    -0.043 C 
BRANCH  31  32
ATOM     32  C   UNL     1       8.528  -0.635   8.193  0.00  0.00    -0.064 A 
ATOM     33  C   UNL     1       7.415  -0.504   9.002  0.00  0.00    +0.003 A 
ATOM     34  C   UNL     1       7.536  -0.642  10.372  0.00  0.00    +0.020 A 
ATOM     35  C   UNL     1       8.772  -0.912  10.933  0.00  0.00    +0.041 A 
ATOM     36  C   UNL     1       9.885  -1.043  10.122  0.00  0.00    +0.020 A 
ATOM     37  C   UNL     1       9.762  -0.910   8.752  0.00  0.00    +0.003 A 
ATOM     38 CL   UNL     1       8.925  -1.085  12.654  0.00  0.00    -0.084 Cl
ENDBRANCH  31  32
ENDBRANCH  12  31
TORSDOF 7
