REMARK  Name = ZINC39935803
REMARK  6 active torsions:
REMARK  status: ('A' for Active; 'I' for Inactive)
REMARK    1  A    between atoms: C_4  and  C_7
REMARK    2  A    between atoms: C_7  and  O_8
REMARK    3  A    between atoms: O_8  and  C_9
REMARK    4  A    between atoms: C_11  and  N_32
REMARK    5  A    between atoms: C_13  and  O_31
REMARK    6  A    between atoms: C_22  and  C_25
REMARK                            x       y       z     vdW  Elec       q    Type
REMARK                         _______ _______ _______ _____ _____    ______ ____
ROOT
ATOM      1  C   UNL     1       5.085  -1.641   0.953  0.00  0.00    +0.274 C 
ATOM      2  C   UNL     1       5.485  -1.712   2.427  0.00  0.00    +0.172 C 
ATOM      3  C   UNL     1       6.775  -2.528   2.573  0.00  0.00    +0.172 C 
ATOM      4  C   UNL     1       6.549  -3.906   1.953  0.00  0.00    +0.183 C 
ATOM      5  C   UNL     1       6.155  -3.723   0.482  0.00  0.00    +0.178 C 
ATOM      6  O   UNL     1       4.950  -2.963   0.420  0.00  0.00    -0.341 OA
ATOM      7  C   UNL     1       5.970  -5.105  -0.146  0.00  0.00    +0.197 C 
ATOM      8  O   UNL     1       7.179  -5.851   0.046  0.00  0.00    -0.345 OA
ATOM      9  C   UNL     1       7.577  -5.989   1.411  0.00  0.00    +0.282 C 
ATOM     10  O   UNL     1       7.735  -4.699   2.010  0.00  0.00    -0.339 OA
ENDROOT
BRANCH   2  11
ATOM     11  N   UNL     1       4.414  -2.354   3.193  0.00  0.00    -0.224 N 
ATOM     12  C   UNL     1       4.400  -2.468   4.533  0.00  0.00    +0.254 C 
ATOM     13  O   UNL     1       5.260  -2.062   5.288  0.00  0.00    -0.270 OA
ATOM     14  C   UNL     1       3.162  -3.170   4.933  0.00  0.00    +0.049 A 
ATOM     15  C   UNL     1       2.620  -3.561   6.147  0.00  0.00    +0.014 A 
ATOM     16  C   UNL     1       1.402  -4.222   6.175  0.00  0.00    +0.001 A 
ATOM     17  C   UNL     1       0.726  -4.495   5.000  0.00  0.00    +0.001 A 
ATOM     18  C   UNL     1       1.256  -4.110   3.779  0.00  0.00    +0.014 A 
ATOM     19  C   UNL     1       2.472  -3.448   3.736  0.00  0.00    +0.049 A 
ATOM     20  C   UNL     1       3.312  -2.901   2.649  0.00  0.00    +0.254 C 
ATOM     21  O   UNL     1       3.052  -2.941   1.464  0.00  0.00    -0.270 OA
ENDBRANCH   2  11
BRANCH   9  22
ATOM     22  C   UNL     1       6.523  -6.761   2.163  0.00  0.00    +0.008 A 
ATOM     23  C   UNL     1       5.742  -7.689   1.501  0.00  0.00    +0.008 A 
ATOM     24  C   UNL     1       4.775  -8.397   2.191  0.00  0.00    +0.000 A 
ATOM     25  C   UNL     1       4.591  -8.177   3.543  0.00  0.00    +0.000 A 
ATOM     26  C   UNL     1       5.373  -7.250   4.205  0.00  0.00    +0.000 A 
ATOM     27  C   UNL     1       6.343  -6.545   3.516  0.00  0.00    +0.008 A 
ENDBRANCH   9  22
BRANCH   3  28
ATOM     28  O   UNL     1       7.844  -1.862   1.897  0.00  0.00    -0.387 OA
ATOM     29  H   UNL     1       8.691  -2.325   1.950  0.00  0.00    +0.210 HD
ENDBRANCH   3  28
BRANCH   1  30
ATOM     30  O   UNL     1       3.839  -0.952   0.832  0.00  0.00    -0.345 OA
BRANCH  30  31
ATOM     31  C   UNL     1       3.428  -0.726  -0.518  0.00  0.00    +0.198 C 
BRANCH  31  35
ATOM     32  C   UNL     1      -0.310   1.343  -0.544  0.00  0.00    +0.000 A 
ATOM     33  C   UNL     1       0.875   2.055  -0.539  0.00  0.00    +0.000 A 
ATOM     34  C   UNL     1       2.084   1.386  -0.531  0.00  0.00    +0.006 A 
ATOM     35  C   UNL     1       2.109   0.004  -0.526  0.00  0.00    -0.022 A 
ATOM     36  C   UNL     1       0.925  -0.709  -0.530  0.00  0.00    +0.006 A 
ATOM     37  C   UNL     1      -0.284  -0.040  -0.540  0.00  0.00    +0.000 A 
ENDBRANCH  31  35
ENDBRANCH  30  31
ENDBRANCH   1  30
TORSDOF 6
