REMARK  Name = ZINC51236522
REMARK  6 active torsions:
REMARK  status: ('A' for Active; 'I' for Inactive)
REMARK    1  A    between atoms: C_1  and  C_2
REMARK    2  A    between atoms: C_5  and  C_8
REMARK    3  A    between atoms: C_8  and  N_9
REMARK    4  A    between atoms: N_12  and  C_13
REMARK    5  A    between atoms: C_16  and  N_20
REMARK    6  A    between atoms: C_18  and  C_19
REMARK                            x       y       z     vdW  Elec       q    Type
REMARK                         _______ _______ _______ _____ _____    ______ ____
ROOT
ATOM      1  N   UNL     1       1.587  -4.713  -0.594  0.00  0.00    -0.295 N 
ATOM      2  C   UNL     1       1.856  -6.034  -0.617  0.00  0.00    +0.304 C 
ATOM      3  O   UNL     1       1.080  -6.803  -1.149  0.00  0.00    -0.252 OA
ATOM      4  N   UNL     1       2.986  -6.500  -0.050  0.00  0.00    -0.269 N 
ATOM      5  H   UNL     1       2.206  -4.099  -0.170  0.00  0.00    +0.151 HD
ATOM      6  H   UNL     1       3.645  -5.880   0.300  0.00  0.00    +0.156 HD
ENDROOT
BRANCH   4   7
ATOM      7  C   UNL     1       3.210  -7.882   0.034  0.00  0.00    +0.038 A 
ATOM      8  C   UNL     1       2.134  -8.760   0.032  0.00  0.00    +0.025 A 
ATOM      9  C   UNL     1       2.354 -10.121   0.114  0.00  0.00    +0.025 A 
ATOM     10  C   UNL     1       3.651 -10.611   0.199  0.00  0.00    +0.030 A 
ATOM     11  C   UNL     1       4.726  -9.732   0.201  0.00  0.00    +0.028 A 
ATOM     12  C   UNL     1       4.506  -8.372   0.113  0.00  0.00    -0.027 A 
ATOM     13  C   UNL     1       5.673  -7.418   0.110  0.00  0.00    +0.046 C 
BRANCH  10  14
ATOM     14  N   UNL     1       3.874 -11.990   0.282  0.00  0.00    -0.328 N 
ATOM     15  C   UNL     1       2.746 -12.913   0.152  0.00  0.00    +0.116 C 
ATOM     16  C   UNL     1       2.909 -13.743  -1.127  0.00  0.00    +0.088 C 
ATOM     17  S   UNL     1       4.506 -14.611  -1.056  0.00  0.00    -0.158 S 
ATOM     18  C   UNL     1       5.692 -13.270  -0.740  0.00  0.00    +0.088 C 
ATOM     19  C   UNL     1       5.233 -12.491   0.493  0.00  0.00    +0.116 C 
ENDBRANCH  10  14
ENDBRANCH   4   7
BRANCH   1  20
ATOM     20  C   UNL     1       0.358  -4.206  -1.210  0.00  0.00    +0.141 C 
BRANCH  20  25
ATOM     21  C   UNL     1       0.119   1.535  -0.593  0.00  0.00    +0.044 C 
ATOM     22  C   UNL     1       0.182   0.038  -0.754  0.00  0.00    -0.050 A 
ATOM     23  C   UNL     1       0.789  -0.513  -1.867  0.00  0.00    +0.003 A 
ATOM     24  C   UNL     1       0.846  -1.886  -2.015  0.00  0.00    +0.005 A 
ATOM     25  C   UNL     1       0.297  -2.709  -1.049  0.00  0.00    -0.030 A 
ATOM     26  C   UNL     1      -0.310  -2.158   0.065  0.00  0.00    +0.005 A 
ATOM     27  C   UNL     1      -0.363  -0.785   0.214  0.00  0.00    +0.003 A 
ENDBRANCH  20  25
ENDBRANCH   1  20
TORSDOF 4
