REMARK  Name = ZINC09396031
REMARK  8 active torsions:
REMARK  status: ('A' for Active; 'I' for Inactive)
REMARK    1  A    between atoms: C_1  and  C_2
REMARK    2  A    between atoms: C_2  and  C_3
REMARK    3  A    between atoms: C_3  and  N_4
REMARK    4  A    between atoms: C_17  and  S_18
REMARK    5  A    between atoms: S_18  and  C_19
REMARK    6  A    between atoms: C_19  and  C_20
REMARK    7  A    between atoms: N_25  and  C_26
REMARK    8  A    between atoms: C_32  and  C_34
REMARK                            x       y       z     vdW  Elec       q    Type
REMARK                         _______ _______ _______ _____ _____    ______ ____
ROOT
ATOM      1  N   UNL     1     -11.273   2.644   6.931  0.00  0.00    -0.277 N 
ATOM      2  C   UNL     1     -12.413   2.491   6.227  0.00  0.00    +0.263 A 
ATOM      3  O   UNL     1     -13.490   2.751   6.728  0.00  0.00    -0.267 OA
ATOM      4  C   UNL     1     -12.330   2.003   4.838  0.00  0.00    +0.064 A 
ATOM      5  C   UNL     1     -13.475   1.826   4.064  0.00  0.00    +0.015 A 
ATOM      6  C   UNL     1     -13.357   1.369   2.768  0.00  0.00    +0.001 A 
ATOM      7  C   UNL     1     -12.109   1.086   2.235  0.00  0.00    +0.002 A 
ATOM      8  C   UNL     1     -10.967   1.257   2.993  0.00  0.00    +0.027 A 
ATOM      9  C   UNL     1     -11.067   1.716   4.297  0.00  0.00    +0.064 A 
ATOM     10  N   UNL     1      -9.931   1.898   5.083  0.00  0.00    -0.256 N 
ATOM     11  C   UNL     1     -10.040   2.352   6.369  0.00  0.00    +0.240 A 
ATOM     12  N   UNL     1      -8.828   2.430   6.871  0.00  0.00    -0.109 NA
ATOM     13  N   UNL     1      -7.922   2.013   5.888  0.00  0.00    -0.120 NA
ATOM     14  C   UNL     1      -8.604   1.700   4.814  0.00  0.00    +0.198 A 
ENDROOT
BRANCH   1  15
ATOM     15  C   UNL     1     -11.339   3.128   8.312  0.00  0.00    +0.128 C 
BRANCH  15  17
ATOM     16  C   UNL     1     -11.323   5.160   9.765  0.00  0.00    +0.005 C 
ATOM     17  C   UNL     1     -11.255   4.655   8.323  0.00  0.00    +0.018 C 
ENDBRANCH  15  17
ENDBRANCH   1  15
BRANCH  14  18
ATOM     18  S   UNL     1      -7.931   1.119   3.292  0.00  0.00    -0.076 S 
BRANCH  18  19
ATOM     19  C   UNL     1      -6.142   1.080   3.590  0.00  0.00    +0.173 C 
BRANCH  19  20
ATOM     20  C   UNL     1      -5.436   0.594   2.350  0.00  0.00    +0.231 C 
ATOM     21  O   UNL     1      -6.077   0.303   1.363  0.00  0.00    -0.274 OA
ATOM     22  N   UNL     1      -4.093   0.484   2.339  0.00  0.00    -0.239 N 
ATOM     23  C   UNL     1      -3.462   0.049   1.230  0.00  0.00    +0.306 C 
ATOM     24  O   UNL     1      -4.105  -0.243   0.240  0.00  0.00    -0.252 OA
ATOM     25  N   UNL     1      -2.119  -0.061   1.218  0.00  0.00    -0.296 N 
ATOM     26  H   UNL     1      -3.580   0.717   3.128  0.00  0.00    +0.159 HD
ATOM     27  H   UNL     1      -1.606   0.172   2.008  0.00  0.00    +0.151 HD
BRANCH  25  28
ATOM     28  C   UNL     1      -1.433  -0.534   0.013  0.00  0.00    +0.077 C 
ATOM     29  C   UNL     1      -1.413  -2.063   0.004  0.00  0.00    +0.022 C 
ATOM     30  C   UNL     1      -0.673  -2.570   1.244  0.00  0.00    +0.002 C 
ATOM     31  C   UNL     1       0.763  -2.041   1.233  0.00  0.00    +0.000 C 
ATOM     32  C   UNL     1       0.742  -0.511   1.242  0.00  0.00    +0.005 C 
ATOM     33  C   UNL     1       0.002  -0.004   0.002  0.00  0.00    +0.006 C 
ATOM     34  C   UNL     1      -0.019   1.526   0.010  0.00  0.00    +0.009 C 
ENDBRANCH  25  28
ENDBRANCH  19  20
ENDBRANCH  18  19
ENDBRANCH  14  18
TORSDOF 6
