REMARK  Name = ZINC30427106
REMARK  7 active torsions:
REMARK  status: ('A' for Active; 'I' for Inactive)
REMARK    1  A    between atoms: C_3  and  S_11
REMARK    2  A    between atoms: C_6  and  S_7
REMARK    3  A    between atoms: S_7  and  N_10
REMARK    4  A    between atoms: S_11  and  N_14
REMARK    5  A    between atoms: N_14  and  C_15
REMARK    6  A    between atoms: C_15  and  C_16
REMARK    7  A    between atoms: C_16  and  C_17
REMARK                            x       y       z     vdW  Elec       q    Type
REMARK                         _______ _______ _______ _____ _____    ______ ____
ROOT
ATOM      1  C   UNL     1       8.135   2.898   4.451  0.00  0.00    +0.030 A 
ATOM      2  C   UNL     1       7.997   2.797   3.079  0.00  0.00    +0.030 A 
ATOM      3  C   UNL     1       6.947   3.431   2.441  0.00  0.00    +0.105 A 
ATOM      4  C   UNL     1       6.039   4.172   3.175  0.00  0.00    +0.030 A 
ATOM      5  C   UNL     1       6.175   4.270   4.547  0.00  0.00    +0.030 A 
ATOM      6  C   UNL     1       7.224   3.635   5.185  0.00  0.00    +0.105 A 
ENDROOT
BRANCH   6   7
ATOM      7  S   UNL     1       7.399   3.763   6.933  0.00  0.00    +0.056 S 
ATOM      8  O   UNL     1       6.109   4.056   7.450  0.00  0.00    -0.153 OA
ATOM      9  O   UNL     1       8.148   2.629   7.351  0.00  0.00    -0.153 OA
BRANCH   7  10
ATOM     10  N   UNL     1       8.343   5.090   7.235  0.00  0.00    -0.204 NA
ATOM     11  H   UNL     1       8.477   5.206   8.320  0.00  0.00    +0.144 HD
ATOM     12  H   UNL     1       7.854   5.987   6.828  0.00  0.00    +0.144 HD
ENDBRANCH   7  10
ENDBRANCH   6   7
BRANCH   3  13
ATOM     13  S   UNL     1       6.771   3.302   0.693  0.00  0.00    +0.058 S 
ATOM     14  O   UNL     1       8.062   3.009   0.175  0.00  0.00    -0.153 OA
ATOM     15  O   UNL     1       6.022   4.435   0.275  0.00  0.00    -0.153 OA
BRANCH  13  16
ATOM     16  N   UNL     1       5.829   1.974   0.393  0.00  0.00    -0.190 NA
ATOM     17  H   UNL     1       6.300   1.055   0.013  0.00  0.00    +0.148 HD
BRANCH  16  18
ATOM     18  C   UNL     1       4.432   1.952   0.833  0.00  0.00    +0.106 C 
BRANCH  18  19
ATOM     19  C   UNL     1       3.692   0.815   0.127  0.00  0.00    +0.020 C 
BRANCH  19  20
ATOM     20  C   UNL     1       2.232   0.792   0.586  0.00  0.00    -0.010 C 
ATOM     21  C   UNL     1       1.453   1.995  -0.001  0.00  0.00    +0.003 C 
ATOM     22  C   UNL     1      -0.019   1.534   0.011  0.00  0.00    +0.000 C 
ATOM     23  C   UNL     1       0.002  -0.004   0.002  0.00  0.00    +0.000 C 
ATOM     24  C   UNL     1       1.486  -0.425  -0.014  0.00  0.00    +0.003 C 
ENDBRANCH  19  20
ENDBRANCH  18  19
ENDBRANCH  16  18
ENDBRANCH  13  16
ENDBRANCH   3  13
TORSDOF 7
