REMARK  Name = ZINC01164760
REMARK  9 active torsions:
REMARK  status: ('A' for Active; 'I' for Inactive)
REMARK    1  A    between atoms: C_1  and  C_2
REMARK    2  A    between atoms: C_2  and  C_3
REMARK    3  A    between atoms: C_2  and  C_4
REMARK    4  A    between atoms: C_2  and  C_5
REMARK    5  A    between atoms: C_8  and  C_11
REMARK    6  A    between atoms: C_13  and  C_25
REMARK    7  A    between atoms: C_15  and  C_20
REMARK    8  A    between atoms: C_15  and  O_24
REMARK    9  A    between atoms: C_25  and  C_27
REMARK                            x       y       z     vdW  Elec       q    Type
REMARK                         _______ _______ _______ _____ _____    ______ ____
ROOT
ATOM      1  C   UNL     1       2.707  -1.868  -4.752  0.00  0.00    +0.120 C 
ATOM      2  C   UNL     1       3.586  -3.074  -4.401  0.00  0.00    +0.145 C 
ATOM      3  C   UNL     1       4.380  -3.478  -5.648  0.00  0.00    +0.243 C 
ATOM      4  N   UNL     1       5.133  -2.321  -6.134  0.00  0.00    -0.264 N 
ATOM      5  C   UNL     1       4.691  -1.069  -5.939  0.00  0.00    +0.302 C 
ATOM      6  O   UNL     1       5.350  -0.143  -6.373  0.00  0.00    -0.253 OA
ATOM      7  N   UNL     1       3.550  -0.798  -5.288  0.00  0.00    -0.292 N 
ATOM      8  H   UNL     1       5.968  -2.462  -6.606  0.00  0.00    +0.153 HD
ATOM      9  H   UNL     1       3.278   0.126  -5.168  0.00  0.00    +0.151 HD
ENDROOT
BRANCH   1  13
ATOM     10  C   UNL     1       0.707  -0.490  -1.238  0.00  0.00    -0.042 A 
ATOM     11  C   UNL     1       0.036  -1.284  -2.148  0.00  0.00    +0.004 A 
ATOM     12  C   UNL     1       0.683  -1.730  -3.286  0.00  0.00    +0.006 A 
ATOM     13  C   UNL     1       2.001  -1.381  -3.513  0.00  0.00    -0.026 A 
ATOM     14  C   UNL     1       2.672  -0.586  -2.603  0.00  0.00    +0.006 A 
ATOM     15  C   UNL     1       2.024  -0.137  -1.467  0.00  0.00    +0.004 A 
BRANCH  10  17
ATOM     16  C   UNL     1      -0.019   1.526   0.010  0.00  0.00    +0.015 C 
ATOM     17  C   UNL     1       0.002  -0.004   0.002  0.00  0.00    -0.013 C 
ATOM     18  C   UNL     1       0.742  -0.511   1.242  0.00  0.00    +0.015 C 
ATOM     19  C   UNL     1      -1.433  -0.534   0.013  0.00  0.00    +0.015 C 
ENDBRANCH  10  17
ENDBRANCH   1  13
BRANCH   3  20
ATOM     20  C   UNL     1       5.350  -4.607  -5.292  0.00  0.00    +0.436 C 
ATOM     21  F   UNL     1       4.629  -5.709  -4.821  0.00  0.00    -0.166 F 
ATOM     22  F   UNL     1       6.074  -4.975  -6.431  0.00  0.00    -0.166 F 
ATOM     23  F   UNL     1       6.232  -4.168  -4.300  0.00  0.00    -0.166 F 
ENDBRANCH   3  20
BRANCH   3  24
ATOM     24  O   UNL     1       3.479  -3.923  -6.664  0.00  0.00    -0.364 OA
ATOM     25  H   UNL     1       3.914  -4.195  -7.484  0.00  0.00    +0.212 HD
ENDBRANCH   3  24
BRANCH   2  26
ATOM     26  C   UNL     1       2.716  -4.221  -3.956  0.00  0.00    +0.179 C 
ATOM     27  O   UNL     1       1.591  -4.338  -4.400  0.00  0.00    -0.291 OA
BRANCH  26  28
ATOM     28  C   UNL     1       3.209  -5.160  -3.023  0.00  0.00    +0.055 A 
ATOM     29  C   UNL     1       2.579  -6.282  -2.492  0.00  0.00    +0.019 A 
ATOM     30  C   UNL     1       3.320  -7.011  -1.596  0.00  0.00    +0.008 A 
ATOM     31  C   UNL     1       4.581  -6.604  -1.296  0.00  0.00    +0.046 A 
ATOM     32  S   UNL     1       4.802  -5.222  -2.226  0.00  0.00    -0.094 S 
ENDBRANCH  26  28
ENDBRANCH   2  26
TORSDOF 6
