REMARK  Name = ZINC57244047
REMARK  5 active torsions:
REMARK  status: ('A' for Active; 'I' for Inactive)
REMARK    1  A    between atoms: C_1  and  C_2
REMARK    2  A    between atoms: C_2  and  C_3
REMARK    3  A    between atoms: C_3  and  C_5
REMARK    4  A    between atoms: C_3  and  N_10
REMARK    5  A    between atoms: N_16  and  C_19
REMARK                            x       y       z     vdW  Elec       q    Type
REMARK                         _______ _______ _______ _____ _____    ______ ____
ROOT
ATOM      1  N   UNL     1      -2.094  -0.160   1.265  0.00  0.00    -0.292 N 
ATOM      2  C   UNL     1      -2.666   1.054   1.397  0.00  0.00    +0.303 C 
ATOM      3  O   UNL     1      -2.565   1.873   0.505  0.00  0.00    -0.253 OA
ATOM      4  N   UNL     1      -3.349   1.358   2.518  0.00  0.00    -0.283 N 
ATOM      5  C   UNL     1      -3.377   0.425   3.654  0.00  0.00    +0.128 C 
ATOM      6  C   UNL     1      -2.890   1.163   4.907  0.00  0.00    +0.124 C 
ATOM      7  N   UNL     1      -3.619   2.434   5.016  0.00  0.00    -0.327 N 
ATOM      8  C   UNL     1      -3.591   3.367   3.881  0.00  0.00    +0.124 C 
ATOM      9  C   UNL     1      -4.074   2.631   2.630  0.00  0.00    +0.128 C 
ATOM     10  H   UNL     1      -2.122  -0.792   2.000  0.00  0.00    +0.151 HD
ENDROOT
BRANCH   7  11
ATOM     11  C   UNL     1      -4.325   2.748   6.174  0.00  0.00    +0.033 A 
ATOM     12  C   UNL     1      -5.113   3.897   6.242  0.00  0.00    +0.040 A 
ATOM     13  C   UNL     1      -5.797   4.172   7.408  0.00  0.00    +0.084 A 
ATOM     14  N   UNL     1      -5.711   3.365   8.449  0.00  0.00    -0.367 N 
ATOM     15  C   UNL     1      -4.975   2.270   8.425  0.00  0.00    +0.084 A 
ATOM     16  C   UNL     1      -4.266   1.920   7.295  0.00  0.00    +0.040 A 
ATOM     17  H   UNL     1      -6.203   3.584   9.256  0.00  0.00    +0.165 HD
ENDBRANCH   7  11
BRANCH   1  18
ATOM     18  C   UNL     1      -1.431  -0.524   0.010  0.00  0.00    +0.111 C 
BRANCH  18  19
ATOM     19  C   UNL     1      -1.427  -2.024  -0.139  0.00  0.00    +0.010 A 
ATOM     20  C   UNL     1      -1.627  -2.772  -1.252  0.00  0.00    +0.013 A 
ATOM     21  C   UNL     1      -1.577  -4.149  -1.152  0.00  0.00    +0.008 A 
ATOM     22  C   UNL     1      -1.329  -4.712   0.056  0.00  0.00    +0.045 A 
ATOM     23  S   UNL     1      -1.151  -3.276   1.103  0.00  0.00    -0.100 S 
ENDBRANCH  18  19
BRANCH  18  25
ATOM     24  C   UNL     1       0.004   1.520   0.052  0.00  0.00    +0.006 C 
ATOM     25  C   UNL     1       0.009  -0.010   0.027  0.00  0.00    +0.024 C 
ENDBRANCH  18  25
ENDBRANCH   1  18
TORSDOF 4
