REMARK  Name = ZINC24768421
REMARK  10 active torsions:
REMARK  status: ('A' for Active; 'I' for Inactive)
REMARK    1  A    between atoms: C_1  and  C_2
REMARK    2  A    between atoms: C_2  and  C_3
REMARK    3  A    between atoms: N_11  and  C_15
REMARK    4  A    between atoms: C_15  and  C_16
REMARK    5  A    between atoms: N_18  and  C_19
REMARK    6  A    between atoms: C_21  and  C_29
REMARK    7  A    between atoms: C_22  and  C_24
REMARK    8  A    between atoms: C_24  and  O_26
REMARK    9  A    between atoms: O_26  and  C_27
REMARK   10  A    between atoms: C_27  and  C_28
REMARK                            x       y       z     vdW  Elec       q    Type
REMARK                         _______ _______ _______ _____ _____    ______ ____
ROOT
ATOM      1  C   UNL     1       0.002  -0.004   0.002  0.00  0.00    +0.214 C 
ENDROOT
BRANCH   1  10
ATOM      2  C   UNL     1       3.038   5.238   0.002  0.00  0.00    -0.011 C 
ATOM      3  C   UNL     1       2.591   4.477   1.252  0.00  0.00    +0.006 C 
ATOM      4  C   UNL     1       1.064   4.381   1.270  0.00  0.00    +0.035 C 
ATOM      5  C   UNL     1       0.583   3.659   0.016  0.00  0.00    +0.113 C 
ATOM      6  C   UNL     1       1.040   4.395  -1.239  0.00  0.00    +0.035 C 
ATOM      7  C   UNL     1       2.568   4.491  -1.248  0.00  0.00    +0.006 C 
ATOM      8  C   UNL     1       1.088   2.234   0.004  0.00  0.00    +0.247 C 
ATOM      9  O   UNL     1       2.242   1.864  -0.009  0.00  0.00    -0.273 OA
ATOM     10  N   UNL     1      -0.018   1.461   0.010  0.00  0.00    -0.215 N 
ATOM     11  C   UNL     1      -1.135   2.198   0.019  0.00  0.00    +0.310 C 
ATOM     12  O   UNL     1      -2.256   1.727   0.021  0.00  0.00    -0.252 OA
ATOM     13  N   UNL     1      -0.878   3.520   0.029  0.00  0.00    -0.285 N 
ATOM     14  H   UNL     1      -1.516   4.416   0.045  0.00  0.00    +0.151 HD
BRANCH   2  16
ATOM     15  C   UNL     1       5.005   6.210  -1.194  0.00  0.00    +0.004 C 
ATOM     16  C   UNL     1       4.564   5.344  -0.012  0.00  0.00    -0.000 C 
ENDBRANCH   2  16
ENDBRANCH   1  10
BRANCH   1  17
ATOM     17  C   UNL     1       0.022  -0.514   1.420  0.00  0.00    +0.236 C 
ATOM     18  O   UNL     1       0.021   0.269   2.346  0.00  0.00    -0.274 OA
ATOM     19  N   UNL     1       0.043  -1.840   1.659  0.00  0.00    -0.279 N 
ATOM     20  H   UNL     1       0.044  -2.550   0.819  0.00  0.00    +0.155 HD
BRANCH  19  21
ATOM     21  C   UNL     1       0.062  -2.310   2.966  0.00  0.00    +0.073 A 
ATOM     22  C   UNL     1       0.084  -3.617   3.407  0.00  0.00    +0.035 A 
ATOM     23  C   UNL     1       0.100  -3.857   4.754  0.00  0.00    -0.028 A 
ATOM     24  C   UNL     1       0.094  -2.754   5.598  0.00  0.00    +0.101 A 
ATOM     25  S   UNL     1       0.071  -1.397   4.440  0.00  0.00    -0.067 S 
ATOM     26  C   UNL     1       0.124  -5.261   5.300  0.00  0.00    +0.045 C 
BRANCH  24  27
ATOM     27  C   UNL     1       0.108  -2.716   7.013  0.00  0.00    +0.346 C 
ATOM     28  O   UNL     1       0.128  -3.753   7.650  0.00  0.00    -0.244 OA
BRANCH  27  29
ATOM     29  O   UNL     1       0.098  -1.529   7.657  0.00  0.00    -0.461 OA
BRANCH  29  30
ATOM     30  C   UNL     1       0.113  -1.566   9.085  0.00  0.00    +0.229 C 
ATOM     31  C   UNL     1       0.100  -0.137   9.632  0.00  0.00    +0.048 C 
ENDBRANCH  29  30
ENDBRANCH  27  29
ENDBRANCH  24  27
ENDBRANCH  19  21
ENDBRANCH   1  17
TORSDOF 7
