REMARK  Name = ZINC13711956
REMARK  3 active torsions:
REMARK  status: ('A' for Active; 'I' for Inactive)
REMARK    1  A    between atoms: C_9  and  O_24
REMARK    2  A    between atoms: C_10  and  C_11
REMARK    3  A    between atoms: N_12  and  N_13
REMARK                            x       y       z     vdW  Elec       q    Type
REMARK                         _______ _______ _______ _____ _____    ______ ____
ROOT
ATOM      1  C   UNL     1      -5.745   4.684   0.083  0.00  0.00    +0.147 C 
ATOM      2  N   UNL     1      -4.444   4.909   0.071  0.00  0.00    -0.156 NA
ENDROOT
BRANCH   2   3
ATOM      3  N   UNL     1      -3.618   3.918   0.058  0.00  0.00    -0.144 NA
ATOM      4  C   UNL     1      -2.317   4.143   0.046  0.00  0.00    +0.157 C 
ATOM      5  C   UNL     1      -1.230   3.141   0.031  0.00  0.00    +0.028 A 
ATOM      6  C   UNL     1      -1.218   1.748   0.017  0.00  0.00    +0.012 A 
ATOM      7  C   UNL     1      -0.013   1.076   0.008  0.00  0.00    +0.001 A 
ATOM      8  C   UNL     1       1.178   1.784   0.000  0.00  0.00    +0.002 A 
ATOM      9  C   UNL     1       1.176   3.164   0.007  0.00  0.00    +0.024 A 
ATOM     10  C   UNL     1      -0.027   3.860   0.023  0.00  0.00    +0.043 A 
ATOM     11  N   UNL     1      -0.307   5.222   0.032  0.00  0.00    -0.280 N 
ATOM     12  C   UNL     1      -1.632   5.449   0.046  0.00  0.00    +0.269 C 
ATOM     13  O   UNL     1      -2.171   6.540   0.057  0.00  0.00    -0.268 OA
ATOM     14  H   UNL     1       0.367   5.919   0.029  0.00  0.00    +0.155 HD
ENDBRANCH   2   3
BRANCH   1  24
ATOM     15  C   UNL     1     -10.842   5.168   0.136  0.00  0.00    +0.001 A 
ATOM     16  C   UNL     1      -9.983   4.073   0.122  0.00  0.00    +0.001 A 
ATOM     17  C   UNL     1      -8.629   4.246   0.109  0.00  0.00    +0.009 A 
ATOM     18  C   UNL     1      -8.097   5.538   0.111  0.00  0.00    -0.006 A 
ATOM     19  C   UNL     1      -8.966   6.654   0.125  0.00  0.00    -0.017 A 
ATOM     20  C   UNL     1     -10.355   6.441   0.138  0.00  0.00    +0.008 A 
ATOM     21  C   UNL     1      -8.428   7.955   0.127  0.00  0.00    +0.012 A 
ATOM     22  C   UNL     1      -7.084   8.155   0.115  0.00  0.00    +0.046 A 
ATOM     23  C   UNL     1      -6.182   7.093   0.106  0.00  0.00    +0.126 A 
ATOM     24  C   UNL     1      -6.649   5.768   0.098  0.00  0.00    +0.044 A 
BRANCH  23  25
ATOM     25  O   UNL     1      -4.850   7.338   0.100  0.00  0.00    -0.506 OA
ATOM     26  H   UNL     1      -4.469   7.417  -0.785  0.00  0.00    +0.292 HD
ENDBRANCH  23  25
ENDBRANCH   1  24
TORSDOF 3
