REMARK  Name = ZINC39608884
REMARK  9 active torsions:
REMARK  status: ('A' for Active; 'I' for Inactive)
REMARK    1  A    between atoms: C_1  and  C_2
REMARK    2  A    between atoms: C_2  and  O_4
REMARK    3  A    between atoms: O_4  and  C_5
REMARK    4  A    between atoms: C_10  and  C_11
REMARK    5  A    between atoms: C_15  and  C_24
REMARK    6  A    between atoms: N_26  and  C_27
REMARK    7  A    between atoms: C_32  and  O_34
REMARK    8  A    between atoms: O_34  and  C_35
REMARK    9  A    between atoms: C_35  and  C_36
REMARK                            x       y       z     vdW  Elec       q    Type
REMARK                         _______ _______ _______ _____ _____    ______ ____
ROOT
ATOM      1  C   UNL     1      -3.422  -2.267  -0.122  0.00  0.00    +0.250 C 
ATOM      2  O   UNL     1      -3.537  -1.060  -0.204  0.00  0.00    -0.270 OA
ATOM      3  N   UNL     1      -4.519  -3.048  -0.087  0.00  0.00    -0.296 N 
ATOM      4  C   UNL     1      -4.580  -4.529  -0.051  0.00  0.00    +0.121 C 
ATOM      5  C   UNL     1      -5.738  -4.848   0.921  0.00  0.00    +0.100 C 
ATOM      6  C   UNL     1      -6.627  -3.594   0.898  0.00  0.00    -0.004 C 
ATOM      7  C   UNL     1      -5.939  -2.621  -0.070  0.00  0.00    +0.115 C 
ATOM      8  C   UNL     1      -6.704  -2.975   2.291  0.00  0.00    -0.010 C 
ATOM      9  C   UNL     1      -7.639  -1.763   2.255  0.00  0.00    -0.082 C 
ATOM     10  N   UNL     1      -8.973  -2.184   1.810  0.00  0.00    +0.379 N 
ATOM     11  C   UNL     1      -8.905  -2.692   0.434  0.00  0.00    -0.082 C 
ATOM     12  C   UNL     1      -8.023  -3.944   0.393  0.00  0.00    -0.010 C 
ATOM     13  H   UNL     1      -9.315  -2.912   2.419  0.00  0.00    -0.086 HD
ATOM     14  H   UNL     1      -9.602  -1.397   1.845  0.00  0.00    -0.086 HD
ENDROOT
BRANCH   1  20
ATOM     15  C   UNL     1      -1.044  -2.233   0.630  0.00  0.00    +0.144 A 
ATOM     16  C   UNL     1       0.212  -2.819   0.687  0.00  0.00    +0.047 A 
ATOM     17  C   UNL     1       0.441  -4.029   0.062  0.00  0.00    +0.004 A 
ATOM     18  C   UNL     1      -0.579  -4.666  -0.626  0.00  0.00    +0.001 A 
ATOM     19  C   UNL     1      -1.833  -4.098  -0.693  0.00  0.00    +0.017 A 
ATOM     20  C   UNL     1      -2.079  -2.878  -0.060  0.00  0.00    +0.079 A 
BRANCH  15  21
ATOM     21  O   UNL     1      -1.270  -1.044   1.244  0.00  0.00    -0.425 OA
BRANCH  21  23
ATOM     22  C   UNL     1      -1.881   0.226   3.272  0.00  0.00    +0.136 C 
ATOM     23  C   UNL     1      -1.722  -1.064   2.509  0.00  0.00    +0.309 C 
ATOM     24  O   UNL     1      -2.001  -2.115   3.034  0.00  0.00    -0.251 OA
ENDBRANCH  21  23
ENDBRANCH  15  21
ENDBRANCH   1  20
BRANCH   5  25
ATOM     25  C   UNL     1      -6.510  -6.050   0.440  0.00  0.00    +0.218 C 
ATOM     26  O   UNL     1      -6.513  -6.337  -0.738  0.00  0.00    -0.275 OA
ATOM     27  N   UNL     1      -7.197  -6.805   1.319  0.00  0.00    -0.310 N 
ATOM     28  H   UNL     1      -7.195  -6.575   2.262  0.00  0.00    +0.149 HD
BRANCH  27  29
ATOM     29  C   UNL     1      -7.948  -7.973   0.852  0.00  0.00    +0.102 C 
ATOM     30  C   UNL     1      -9.362  -7.551   0.416  0.00  0.00    +0.025 C 
ATOM     31  C   UNL     1     -10.349  -8.320   1.319  0.00  0.00    +0.004 C 
ATOM     32  C   UNL     1      -9.548  -9.558   1.791  0.00  0.00    +0.033 C 
ATOM     33  C   UNL     1      -8.124  -8.984   2.005  0.00  0.00    +0.139 C 
BRANCH  33  34
ATOM     34  O   UNL     1      -7.146 -10.022   1.913  0.00  0.00    -0.370 OA
BRANCH  34  35
ATOM     35  C   UNL     1      -6.768 -10.576   3.175  0.00  0.00    +0.195 C 
BRANCH  35  36
ATOM     36  C   UNL     1      -5.739 -11.655   2.961  0.00  0.00    -0.022 A 
ATOM     37  C   UNL     1      -6.139 -12.963   2.761  0.00  0.00    +0.006 A 
ATOM     38  C   UNL     1      -5.194 -13.953   2.565  0.00  0.00    +0.000 A 
ATOM     39  C   UNL     1      -3.849 -13.635   2.568  0.00  0.00    +0.000 A 
ATOM     40  C   UNL     1      -3.449 -12.327   2.768  0.00  0.00    +0.000 A 
ATOM     41  C   UNL     1      -4.393 -11.337   2.959  0.00  0.00    +0.006 A 
ENDBRANCH  35  36
ENDBRANCH  34  35
ENDBRANCH  33  34
ENDBRANCH  27  29
ENDBRANCH   5  25
TORSDOF 8
