REMARK  Name = ZINC12641960
REMARK  11 active torsions:
REMARK  status: ('A' for Active; 'I' for Inactive)
REMARK    1  A    between atoms: C_1  and  C_2
REMARK    2  A    between atoms: C_2  and  C_3
REMARK    3  A    between atoms: C_2  and  C_4
REMARK    4  A    between atoms: C_2  and  N_5
REMARK    5  A    between atoms: C_6  and  C_8
REMARK    6  A    between atoms: C_8  and  C_10
REMARK    7  A    between atoms: C_8  and  N_16
REMARK    8  A    between atoms: N_16  and  C_17
REMARK    9  A    between atoms: C_17  and  C_18
REMARK   10  A    between atoms: C_23  and  C_25
REMARK   11  A    between atoms: N_27  and  C_28
REMARK                            x       y       z     vdW  Elec       q    Type
REMARK                         _______ _______ _______ _____ _____    ______ ____
ROOT
ATOM      1  N   UNL     1      -3.862  -2.447  -0.194  0.00  0.00    -0.271 N 
ATOM      2  C   UNL     1      -4.269  -1.326  -0.821  0.00  0.00    +0.303 C 
ATOM      3  O   UNL     1      -5.421  -1.219  -1.186  0.00  0.00    -0.265 OA
ENDROOT
BRANCH   2   4
ATOM      4  C   UNL     1      -3.301  -0.215  -1.068  0.00  0.00    +0.303 C 
ATOM      5  O   UNL     1      -2.132  -0.352  -0.772  0.00  0.00    -0.265 OA
ATOM      6  N   UNL     1      -3.727   0.939  -1.619  0.00  0.00    -0.278 N 
ATOM      7  H   UNL     1      -4.672   1.075  -1.791  0.00  0.00    +0.155 HD
BRANCH   6   8
ATOM      8  C   UNL     1      -2.807   1.939  -1.942  0.00  0.00    +0.034 A 
ATOM      9  C   UNL     1      -3.170   3.277  -1.847  0.00  0.00    +0.023 A 
ATOM     10  C   UNL     1      -2.255   4.261  -2.163  0.00  0.00    +0.006 A 
ATOM     11  C   UNL     1      -0.978   3.921  -2.579  0.00  0.00    -0.044 A 
ATOM     12  C   UNL     1      -0.615   2.590  -2.679  0.00  0.00    -0.042 A 
ATOM     13  C   UNL     1      -1.528   1.600  -2.364  0.00  0.00    +0.027 A 
ATOM     14  C   UNL     1       0.820   2.485  -3.150  0.00  0.00    +0.036 C 
ATOM     15  C   UNL     1       1.428   3.883  -2.907  0.00  0.00    +0.009 C 
ATOM     16  C   UNL     1       0.189   4.800  -2.976  0.00  0.00    +0.036 C 
ENDBRANCH   6   8
ENDBRANCH   2   4
BRANCH   1  17
ATOM     17  C   UNL     1      -4.821  -3.518   0.090  0.00  0.00    +0.193 C 
BRANCH  17  18
ATOM     18  C   UNL     1      -5.580  -3.190   1.351  0.00  0.00    -0.018 A 
ATOM     19  C   UNL     1      -4.930  -2.591   2.413  0.00  0.00    +0.006 A 
ATOM     20  C   UNL     1      -5.627  -2.287   3.567  0.00  0.00    +0.000 A 
ATOM     21  C   UNL     1      -6.972  -2.591   3.663  0.00  0.00    +0.000 A 
ATOM     22  C   UNL     1      -7.621  -3.193   2.602  0.00  0.00    +0.000 A 
ATOM     23  C   UNL     1      -6.925  -3.494   1.446  0.00  0.00    +0.006 A 
ENDBRANCH  17  18
BRANCH  17  25
ATOM     24  N   UNL     1      -4.766  -5.949   0.543  0.00  0.00    -0.309 N 
ATOM     25  C   UNL     1      -4.083  -4.819   0.272  0.00  0.00    +0.239 C 
ATOM     26  O   UNL     1      -2.875  -4.849   0.174  0.00  0.00    -0.273 OA
ATOM     27  H   UNL     1      -5.733  -5.924   0.621  0.00  0.00    +0.149 HD
BRANCH  24  29
ATOM     28  C   UNL     1      -3.069  -7.086   1.887  0.00  0.00    +0.031 C 
ATOM     29  C   UNL     1      -4.049  -7.214   0.719  0.00  0.00    +0.026 C 
ATOM     30  C   UNL     1      -5.051  -8.331   1.015  0.00  0.00    +0.031 C 
ATOM     31  C   UNL     1      -3.278  -7.546  -0.560  0.00  0.00    +0.031 C 
ENDBRANCH  24  29
ENDBRANCH  17  25
ENDBRANCH   1  17
BRANCH   1  32
ATOM     32  C   UNL     1      -2.460  -2.596   0.204  0.00  0.00    +0.183 C 
BRANCH  32  33
ATOM     33  C   UNL     1      -1.644  -3.035  -0.985  0.00  0.00    +0.122 A 
ATOM     34  C   UNL     1      -0.910  -2.231  -1.775  0.00  0.00    +0.046 A 
ATOM     35  C   UNL     1      -0.316  -3.055  -2.758  0.00  0.00    +0.041 A 
ATOM     36  C   UNL     1      -0.722  -4.313  -2.510  0.00  0.00    +0.195 A 
ATOM     37  O   UNL     1      -1.522  -4.296  -1.431  0.00  0.00    -0.466 OA
ENDBRANCH  32  33
ENDBRANCH   1  32
TORSDOF 8
