REMARK  Name = ZINC59117912
REMARK  8 active torsions:
REMARK  status: ('A' for Active; 'I' for Inactive)
REMARK    1  A    between atoms: C_1  and  C_2
REMARK    2  A    between atoms: C_2  and  C_3
REMARK    3  A    between atoms: C_3  and  C_4
REMARK    4  A    between atoms: C_4  and  C_5
REMARK    5  A    between atoms: C_5  and  N_6
REMARK    6  A    between atoms: C_15  and  C_17
REMARK    7  A    between atoms: N_19  and  C_20
REMARK    8  A    between atoms: C_20  and  C_21
REMARK                            x       y       z     vdW  Elec       q    Type
REMARK                         _______ _______ _______ _____ _____    ______ ____
ROOT
ATOM      1  C   UNL     1       3.944  -6.465  -1.532  0.00  0.00    +0.265 C 
ATOM      2  O   UNL     1       3.953  -7.664  -1.333  0.00  0.00    -0.268 OA
ATOM      3  N   UNL     1       4.862  -5.676  -0.940  0.00  0.00    -0.306 N 
ATOM      4  H   UNL     1       4.855  -4.719  -1.099  0.00  0.00    +0.149 HD
ENDROOT
BRANCH   1  14
ATOM      5  N   UNL     1       2.063  -3.989  -3.399  0.00  0.00    -0.228 N 
ATOM      6  C   UNL     1       1.082  -4.633  -4.064  0.00  0.00    +0.275 A 
ATOM      7  O   UNL     1       0.303  -4.020  -4.772  0.00  0.00    -0.266 OA
ATOM      8  C   UNL     1       0.975  -6.090  -3.914  0.00  0.00    +0.050 A 
ATOM      9  C   UNL     1      -0.002  -6.846  -4.556  0.00  0.00    +0.014 A 
ATOM     10  C   UNL     1      -0.035  -8.211  -4.363  0.00  0.00    +0.001 A 
ATOM     11  C   UNL     1       0.892  -8.834  -3.538  0.00  0.00    +0.001 A 
ATOM     12  C   UNL     1       1.867  -8.102  -2.893  0.00  0.00    +0.011 A 
ATOM     13  C   UNL     1       1.919  -6.724  -3.074  0.00  0.00    +0.020 A 
ATOM     14  C   UNL     1       2.926  -5.872  -2.423  0.00  0.00    +0.154 A 
ATOM     15  N   UNL     1       2.912  -4.580  -2.647  0.00  0.00    -0.163 NA
BRANCH   5  16
ATOM     16  C   UNL     1       2.167  -2.535  -3.552  0.00  0.00    +0.147 C 
BRANCH  16  17
ATOM     17  C   UNL     1       1.326  -1.848  -2.474  0.00  0.00    +0.023 C 
BRANCH  17  18
ATOM     18  C   UNL     1       1.434  -0.331  -2.634  0.00  0.00    +0.002 C 
BRANCH  18  20
ATOM     19  C   UNL     1       0.701   1.874  -1.715  0.00  0.00    +0.004 C 
ATOM     20  C   UNL     1       0.593   0.356  -1.556  0.00  0.00    -0.003 C 
ENDBRANCH  18  20
ENDBRANCH  17  18
ENDBRANCH  16  17
ENDBRANCH   5  16
ENDBRANCH   1  14
BRANCH   3  21
ATOM     21  C   UNL     1       5.872  -6.264  -0.056  0.00  0.00    +0.141 C 
BRANCH  21  22
ATOM     22  C   UNL     1       6.771  -5.177   0.473  0.00  0.00    -0.014 A 
ATOM     23  C   UNL     1       7.919  -4.817  -0.220  0.00  0.00    +0.010 A 
ATOM     24  C   UNL     1       8.717  -3.815   0.300  0.00  0.00    +0.042 A 
ATOM     25  C   UNL     1       8.345  -3.204   1.493  0.00  0.00    +0.099 A 
ATOM     26  N   UNL     1       7.242  -3.575   2.125  0.00  0.00    -0.349 N 
ATOM     27  C   UNL     1       6.459  -4.525   1.649  0.00  0.00    +0.089 A 
ATOM     28  N   UNL     1       9.138  -2.195   2.027  0.00  0.00    -0.317 N 
ATOM     29  C   UNL     1      10.254  -1.706   1.250  0.00  0.00    +0.106 C 
ATOM     30  C   UNL     1      11.516  -2.545   1.567  0.00  0.00    +0.019 C 
ATOM     31  C   UNL     1      12.006  -2.239   2.920  0.00  0.00    +0.002 C 
ATOM     32  C   UNL     1      11.028  -2.591   4.037  0.00  0.00    +0.002 C 
ATOM     33  C   UNL     1      10.060  -1.450   4.231  0.00  0.00    +0.019 C 
ATOM     34  C   UNL     1       8.802  -1.663   3.363  0.00  0.00    +0.106 C 
ATOM     35  H   UNL     1       7.002  -3.136   2.955  0.00  0.00    +0.167 HD
ENDBRANCH  21  22
ENDBRANCH   3  21
TORSDOF 7
