REMARK  Name = ZINC01703741
REMARK  2 active torsions:
REMARK  status: ('A' for Active; 'I' for Inactive)
REMARK    1  A    between atoms: C_1  and  C_2
REMARK    2  A    between atoms: C_2  and  C_6
REMARK                            x       y       z     vdW  Elec       q    Type
REMARK                         _______ _______ _______ _____ _____    ______ ____
ROOT
ATOM      1  C   UNL     1      -0.815  -0.563   1.169  0.00  0.00    +0.013 C 
ATOM      2  C   UNL     1       0.002  -0.004   0.002  0.00  0.00    +0.080 C 
ATOM      3  C   UNL     1       1.541  -1.785  -0.695  0.00  0.00    -0.069 C 
ATOM      4  C   UNL     1       0.870  -1.631  -2.093  0.00  0.00    +0.049 C 
ATOM      5  S   UNL     1      -0.620  -0.658  -1.603  0.00  0.00    -0.164 S 
ATOM      6  N   UNL     1       1.411  -0.506   0.051  0.00  0.00    +0.396 N 
ATOM      7  H   UNL     1       1.680  -0.658   1.030  0.00  0.00    -0.083 HD
ATOM      8  H   UNL     1       2.032   0.195  -0.371  0.00  0.00    -0.083 HD
ENDROOT
BRANCH   2   9
ATOM      9  C   UNL     1      -0.018   1.503   0.010  0.00  0.00    +0.355 C 
ATOM     10  O   UNL     1       1.020   2.121   0.004  0.00  0.00    -0.247 OA
ATOM     11  O   UNL     1      -1.190   2.158   0.019  0.00  0.00    -0.247 OA
ENDBRANCH   2   9
TORSDOF 1
