REMARK  Name = ZINC20911547
REMARK  14 active torsions:
REMARK  status: ('A' for Active; 'I' for Inactive)
REMARK    1  A    between atoms: C_1  and  C_2
REMARK    2  A    between atoms: C_4  and  C_30
REMARK    3  A    between atoms: C_5  and  C_9
REMARK    4  A    between atoms: C_6  and  C_8
REMARK    5  A    between atoms: C_9  and  S_10
REMARK    6  A    between atoms: S_10  and  C_11
REMARK    7  A    between atoms: N_15  and  N_16
REMARK    8  A    between atoms: N_17  and  N_18
REMARK    9  A    between atoms: C_19  and  C_20
REMARK   10  A    between atoms: C_21  and  C_29
REMARK   11  A    between atoms: N_23  and  C_26
REMARK   12  A    between atoms: C_24  and  C_25
REMARK   13  A    between atoms: C_26  and  C_27
REMARK   14  A    between atoms: C_26  and  C_28
REMARK                            x       y       z     vdW  Elec       q    Type
REMARK                         _______ _______ _______ _____ _____    ______ ____
ROOT
ATOM      1  C   UNL     1       5.755  -1.851  -1.605  0.00  0.00    +0.210 A 
ATOM      2  N   UNL     1       6.347  -2.182  -0.482  0.00  0.00    -0.119 NA
ATOM      3  N   UNL     1       7.537  -2.848  -0.800  0.00  0.00    -0.109 NA
ATOM      4  C   UNL     1       7.634  -2.903  -2.107  0.00  0.00    +0.254 A 
ATOM      5  N   UNL     1       6.532  -2.292  -2.638  0.00  0.00    -0.211 N 
ATOM      6  N   UNL     1       8.670  -3.483  -2.824  0.00  0.00    -0.204 N 
ATOM      7  H   UNL     1       8.651  -3.472  -3.924  0.00  0.00    +0.177 HD
ENDROOT
BRANCH   5   8
ATOM      8  N   UNL     1       6.258  -2.146  -3.968  0.00  0.00    -0.294 N 
ATOM      9  H   UNL     1       6.957  -2.542  -4.720  0.00  0.00    +0.163 HD
ATOM     10  H   UNL     1       5.339  -1.633  -4.287  0.00  0.00    +0.163 HD
ENDBRANCH   5   8
BRANCH   6  11
ATOM     11  N   UNL     1       9.741  -4.082  -2.148  0.00  0.00    -0.187 NA
ATOM     12  C   UNL     1      10.710  -4.624  -2.819  0.00  0.00    +0.141 C 
BRANCH  12  13
ATOM     13  C   UNL     1      11.839  -5.255  -2.106  0.00  0.00    +0.038 A 
ATOM     14  C   UNL     1      11.999  -5.345  -0.707  0.00  0.00    +0.069 A 
ATOM     15  N   UNL     1      13.119  -5.972  -0.466  0.00  0.00    -0.175 NA
ATOM     16  N   UNL     1      13.720  -6.308  -1.684  0.00  0.00    -0.265 N 
ATOM     17  C   UNL     1      12.928  -5.871  -2.684  0.00  0.00    +0.045 A 
ATOM     18  C   UNL     1      13.187  -6.024  -4.160  0.00  0.00    +0.066 C 
ATOM     19  C   UNL     1      11.045  -4.811   0.329  0.00  0.00    +0.068 C 
BRANCH  16  20
ATOM     20  C   UNL     1      14.991  -7.019  -1.846  0.00  0.00    +0.101 C 
ATOM     21  C   UNL     1      16.113  -6.216  -1.185  0.00  0.00    +0.032 C 
ATOM     22  C   UNL     1      14.893  -8.396  -1.186  0.00  0.00    +0.032 C 
ENDBRANCH  16  20
ENDBRANCH  12  13
ENDBRANCH   6  11
BRANCH   1  23
ATOM     23  S   UNL     1       4.223  -0.994  -1.754  0.00  0.00    -0.080 S 
BRANCH  23  24
ATOM     24  C   UNL     1       3.711  -0.707  -0.037  0.00  0.00    +0.113 C 
BRANCH  24  29
ATOM     25  C   UNL     1      -1.332   2.114   0.020  0.00  0.00    +0.044 C 
ATOM     26  C   UNL     1      -0.017   1.378   0.010  0.00  0.00    -0.050 A 
ATOM     27  C   UNL     1       1.171   2.086   0.002  0.00  0.00    +0.007 A 
ATOM     28  C   UNL     1       2.377   1.411  -0.014  0.00  0.00    -0.046 A 
ATOM     29  C   UNL     1       2.396   0.029  -0.021  0.00  0.00    -0.031 A 
ATOM     30  C   UNL     1       1.208  -0.679  -0.014  0.00  0.00    -0.046 A 
ATOM     31  C   UNL     1       0.002  -0.004   0.002  0.00  0.00    +0.007 A 
ATOM     32  C   UNL     1       1.229  -2.186  -0.022  0.00  0.00    +0.044 C 
ATOM     33  C   UNL     1       3.672   2.182  -0.021  0.00  0.00    +0.044 C 
ENDBRANCH  24  29
ENDBRANCH  23  24
ENDBRANCH   1  23
TORSDOF 7
