REMARK  Name = ZINC41584564
REMARK  10 active torsions:
REMARK  status: ('A' for Active; 'I' for Inactive)
REMARK    1  A    between atoms: C_1  and  C_2
REMARK    2  A    between atoms: C_4  and  O_37
REMARK    3  A    between atoms: C_5  and  C_23
REMARK    4  A    between atoms: C_11  and  C_12
REMARK    5  A    between atoms: C_15  and  O_20
REMARK    6  A    between atoms: C_17  and  O_18
REMARK    7  A    between atoms: O_18  and  C_19
REMARK    8  A    between atoms: O_20  and  C_21
REMARK    9  A    between atoms: C_23  and  N_24
REMARK   10  A    between atoms: C_29  and  C_31
REMARK                            x       y       z     vdW  Elec       q    Type
REMARK                         _______ _______ _______ _____ _____    ______ ____
ROOT
ATOM      1  C   UNL     1       0.654   0.168  -0.204  0.00  0.00    +0.045 C 
ATOM      2  C   UNL     1       0.350  -1.239   0.244  0.00  0.00    -0.033 A 
ATOM      3  C   UNL     1      -0.053  -2.175  -0.667  0.00  0.00    +0.050 A 
ATOM      4  C   UNL     1      -0.335  -3.474  -0.256  0.00  0.00    +0.122 A 
ATOM      5  C   UNL     1      -0.210  -3.835   1.076  0.00  0.00    +0.020 A 
ATOM      6  C   UNL     1       0.199  -2.896   2.014  0.00  0.00    +0.145 A 
ATOM      7  C   UNL     1       0.485  -1.589   1.587  0.00  0.00    +0.071 A 
ATOM      8  C   UNL     1       0.892  -0.839   2.789  0.00  0.00    +0.232 C 
ATOM      9  O   UNL     1       1.221   0.333   2.861  0.00  0.00    -0.283 OA
ATOM     10  C   UNL     1       0.814  -1.819   3.880  0.00  0.00    +0.176 C 
ATOM     11  C   UNL     1       1.099  -1.587   5.189  0.00  0.00    +0.061 C 
ATOM     12  O   UNL     1       0.396  -2.992   3.347  0.00  0.00    -0.451 OA
ENDROOT
BRANCH  11  13
ATOM     13  C   UNL     1       1.108  -2.699   6.144  0.00  0.00    +0.020 A 
ATOM     14  C   UNL     1       1.175  -4.021   5.685  0.00  0.00    +0.015 A 
ATOM     15  C   UNL     1       1.183  -5.054   6.577  0.00  0.00    +0.046 A 
ATOM     16  C   UNL     1       1.125  -4.804   7.945  0.00  0.00    +0.124 A 
ATOM     17  C   UNL     1       1.058  -3.501   8.418  0.00  0.00    +0.091 A 
ATOM     18  C   UNL     1       1.054  -2.443   7.526  0.00  0.00    +0.131 A 
BRANCH  18  19
ATOM     19  O   UNL     1       0.994  -1.166   7.982  0.00  0.00    -0.494 OA
ATOM     20  C   UNL     1       0.942  -0.985   9.399  0.00  0.00    +0.277 C 
ENDBRANCH  18  19
BRANCH  16  21
ATOM     21  O   UNL     1       1.133  -5.840   8.822  0.00  0.00    -0.495 OA
ATOM     22  C   UNL     1       1.085  -7.158   8.270  0.00  0.00    +0.277 C 
ENDBRANCH  16  21
ENDBRANCH  11  13
BRANCH   4  23
ATOM     23  O   UNL     1      -0.735  -4.397  -1.168  0.00  0.00    -0.506 OA
ATOM     24  H   UNL     1      -0.009  -4.891  -1.573  0.00  0.00    +0.292 HD
ENDBRANCH   4  23
BRANCH   5  25
ATOM     25  C   UNL     1      -0.518  -5.246   1.506  0.00  0.00    -0.035 C 
BRANCH  25  26
ATOM     26  N   UNL     1      -1.968  -5.396   1.692  0.00  0.00    +0.387 N 
ATOM     27  C   UNL     1      -2.407  -4.549   2.808  0.00  0.00    -0.078 C 
ATOM     28  C   UNL     1      -3.927  -4.639   2.954  0.00  0.00    -0.019 C 
ATOM     29  C   UNL     1      -4.324  -6.092   3.227  0.00  0.00    -0.003 C 
ATOM     30  C   UNL     1      -3.796  -6.977   2.094  0.00  0.00    -0.011 C 
ATOM     31  C   UNL     1      -2.280  -6.801   1.980  0.00  0.00    -0.036 C 
ATOM     32  H   UNL     1      -2.445  -5.112   0.849  0.00  0.00    -0.080 HD
BRANCH  31  33
ATOM     33  C   UNL     1      -1.757  -7.670   0.866  0.00  0.00    -0.043 A 
ATOM     34  C   UNL     1      -1.075  -8.843   1.151  0.00  0.00    +0.005 A 
ATOM     35  C   UNL     1      -0.611  -9.611   0.095  0.00  0.00    +0.020 A 
ATOM     36  C   UNL     1      -0.842  -9.184  -1.200  0.00  0.00    +0.111 A 
ATOM     37  N   UNL     1      -1.494  -8.063  -1.434  0.00  0.00    -0.263 NA
ATOM     38  C   UNL     1      -1.955  -7.310  -0.454  0.00  0.00    +0.112 A 
ENDBRANCH  31  33
ENDBRANCH  25  26
ENDBRANCH   5  25
TORSDOF 7
