REMARK  Name = ZINC12715737
REMARK  10 active torsions:
REMARK  status: ('A' for Active; 'I' for Inactive)
REMARK    1  A    between atoms: C_1  and  C_2
REMARK    2  A    between atoms: C_5  and  C_7
REMARK    3  A    between atoms: C_7  and  C_9
REMARK    4  A    between atoms: C_7  and  N_18
REMARK    5  A    between atoms: N_11  and  C_12
REMARK    6  A    between atoms: N_18  and  C_19
REMARK    7  A    between atoms: C_19  and  C_20
REMARK    8  A    between atoms: C_25  and  C_27
REMARK    9  A    between atoms: C_28  and  N_35
REMARK   10  A    between atoms: C_29  and  C_32
REMARK                            x       y       z     vdW  Elec       q    Type
REMARK                         _______ _______ _______ _____ _____    ______ ____
ROOT
ATOM      1  N   UNL     1      -3.401  -0.529   3.525  0.00  0.00    -0.274 N 
ATOM      2  C   UNL     1      -4.682  -0.942   3.447  0.00  0.00    +0.258 C 
ATOM      3  O   UNL     1      -5.543  -0.379   4.097  0.00  0.00    -0.269 OA
ENDROOT
BRANCH   2   4
ATOM      4  C   UNL     1      -5.037  -2.067   2.579  0.00  0.00    +0.115 A 
ATOM      5  C   UNL     1      -6.297  -2.575   2.260  0.00  0.00    +0.076 A 
ATOM      6  C   UNL     1      -6.230  -3.662   1.389  0.00  0.00    +0.155 A 
ATOM      7  N   UNL     1      -5.055  -4.089   0.983  0.00  0.00    -0.203 NA
ATOM      8  S   UNL     1      -3.976  -3.158   1.655  0.00  0.00    +0.019 S 
BRANCH   6   9
ATOM      9  C   UNL     1      -7.463  -4.330   0.935  0.00  0.00    +0.262 C 
ATOM     10  O   UNL     1      -8.547  -3.930   1.315  0.00  0.00    -0.269 OA
ATOM     11  N   UNL     1      -7.390  -5.383   0.097  0.00  0.00    -0.324 N 
ATOM     12  H   UNL     1      -6.526  -5.702  -0.206  0.00  0.00    +0.145 HD
ATOM     13  H   UNL     1      -8.202  -5.823  -0.202  0.00  0.00    +0.145 HD
ENDBRANCH   6   9
BRANCH   5  14
ATOM     14  N   UNL     1      -7.486  -2.053   2.753  0.00  0.00    -0.355 N 
ATOM     15  H   UNL     1      -7.470  -1.293   3.355  0.00  0.00    +0.142 HD
ATOM     16  H   UNL     1      -8.333  -2.449   2.495  0.00  0.00    +0.142 HD
ENDBRANCH   5  14
ENDBRANCH   2   4
BRANCH   1  17
ATOM     17  C   UNL     1      -3.030   0.534   4.463  0.00  0.00    +0.229 C 
BRANCH  17  22
ATOM     18  C   UNL     1       0.051   2.873   1.226  0.00  0.00    +0.086 C 
ATOM     19  C   UNL     1      -0.968   2.646   2.312  0.00  0.00    +0.102 A 
ATOM     20  C   UNL     1      -1.591   3.605   3.020  0.00  0.00    +0.045 A 
ATOM     21  C   UNL     1      -2.459   2.949   3.924  0.00  0.00    +0.047 A 
ATOM     22  C   UNL     1      -2.307   1.628   3.720  0.00  0.00    +0.135 A 
ATOM     23  O   UNL     1      -1.403   1.450   2.743  0.00  0.00    -0.462 OA
ENDBRANCH  17  22
BRANCH  17  24
ATOM     24  C   UNL     1      -2.128  -0.030   5.530  0.00  0.00    +0.241 C 
ATOM     25  O   UNL     1      -1.974  -1.229   5.623  0.00  0.00    -0.273 OA
ATOM     26  N   UNL     1      -1.491   0.799   6.381  0.00  0.00    -0.311 N 
ATOM     27  H   UNL     1      -1.614   1.758   6.306  0.00  0.00    +0.149 HD
BRANCH  26  28
ATOM     28  C   UNL     1      -0.614   0.251   7.418  0.00  0.00    +0.073 C 
ATOM     29  C   UNL     1      -1.448  -0.129   8.643  0.00  0.00    +0.022 C 
ATOM     30  C   UNL     1      -0.532  -0.701   9.727  0.00  0.00    +0.002 C 
ATOM     31  C   UNL     1       0.507   0.349  10.123  0.00  0.00    +0.000 C 
ATOM     32  C   UNL     1       1.341   0.729   8.898  0.00  0.00    +0.002 C 
ATOM     33  C   UNL     1       0.425   1.301   7.815  0.00  0.00    +0.022 C 
ENDBRANCH  26  28
ENDBRANCH  17  24
ENDBRANCH   1  17
BRANCH   1  34
ATOM     34  C   UNL     1      -2.380  -1.144   2.673  0.00  0.00    +0.151 C 
BRANCH  34  35
ATOM     35  C   UNL     1      -1.645  -2.203   3.454  0.00  0.00    +0.007 A 
ATOM     36  C   UNL     1      -2.050  -3.453   3.787  0.00  0.00    +0.013 A 
ATOM     37  C   UNL     1      -1.199  -4.261   4.516  0.00  0.00    +0.008 A 
ATOM     38  C   UNL     1       0.016  -3.780   4.876  0.00  0.00    +0.045 A 
ATOM     39  S   UNL     1      -0.012  -2.140   4.172  0.00  0.00    -0.100 S 
ENDBRANCH  34  35
ENDBRANCH   1  34
TORSDOF 9
