REMARK  Name = ZINC09137377
REMARK  8 active torsions:
REMARK  status: ('A' for Active; 'I' for Inactive)
REMARK    1  A    between atoms: C_1  and  N_2
REMARK    2  A    between atoms: C_10  and  C_12
REMARK    3  A    between atoms: C_12  and  C_14
REMARK    4  A    between atoms: C_12  and  N_63
REMARK    5  A    between atoms: C_14  and  N_15
REMARK    6  A    between atoms: C_16  and  C_18
REMARK    7  A    between atoms: C_18  and  O_19
REMARK    8  A    between atoms: O_19  and  C_20
REMARK                            x       y       z     vdW  Elec       q    Type
REMARK                         _______ _______ _______ _____ _____    ______ ____
ROOT
ATOM      1  C   UNL     1       3.612   8.789   0.998  0.00  0.00    -0.020 C 
ENDROOT
BRANCH   1  11
ATOM      2  C   UNL     1       0.442  11.824  -3.546  0.00  0.00    +0.129 C 
ATOM      3  N   UNL     1       1.482  12.484  -2.746  0.00  0.00    -0.333 N 
ATOM      4  C   UNL     1       0.988  13.738  -2.174  0.00  0.00    +0.105 C 
ATOM      5  C   UNL     1       2.105  14.366  -1.331  0.00  0.00    +0.024 C 
ATOM      6  C   UNL     1       2.330  13.475  -0.107  0.00  0.00    +0.038 C 
ATOM      7  C   UNL     1       2.424  12.033  -0.540  0.00  0.00    -0.026 A 
ATOM      8  C   UNL     1       2.005  11.614  -1.791  0.00  0.00    +0.033 A 
ATOM      9  C   UNL     1       2.107  10.264  -2.130  0.00  0.00    +0.023 A 
ATOM     10  C   UNL     1       2.629   9.356  -1.234  0.00  0.00    +0.004 A 
ATOM     11  C   UNL     1       3.044   9.780   0.015  0.00  0.00    -0.059 A 
ATOM     12  C   UNL     1       2.943  11.114   0.358  0.00  0.00    +0.007 A 
ENDBRANCH   1  11
BRANCH   1  18
ATOM     13  C   UNL     1       5.918   9.488   0.765  0.00  0.00    -0.078 C 
ATOM     14  C   UNL     1       7.331   8.995   0.448  0.00  0.00    -0.019 C 
ATOM     15  C   UNL     1       7.381   8.500  -1.001  0.00  0.00    -0.004 C 
ATOM     16  C   UNL     1       6.340   7.393  -1.189  0.00  0.00    -0.019 C 
ATOM     17  C   UNL     1       4.956   7.933  -0.824  0.00  0.00    -0.078 C 
ATOM     18  N   UNL     1       4.968   8.369   0.588  0.00  0.00    +0.385 N 
ATOM     19  H   UNL     1       5.266   7.583   1.177  0.00  0.00    -0.081 HD
ENDBRANCH   1  18
BRANCH   1  20
ATOM     20  C   UNL     1       2.711   7.554   1.055  0.00  0.00    +0.093 C 
BRANCH  20  21
ATOM     21  N   UNL     1       3.330   6.537   1.909  0.00  0.00    -0.314 N 
ATOM     22  C   UNL     1       2.677   5.387   2.169  0.00  0.00    +0.251 C 
ATOM     23  O   UNL     1       1.577   5.194   1.696  0.00  0.00    -0.272 OA
ATOM     24  H   UNL     1       4.210   6.691   2.287  0.00  0.00    +0.149 HD
BRANCH  22  25
ATOM     25  C   UNL     1       3.314   4.341   3.047  0.00  0.00    +0.324 C 
BRANCH  25  26
ATOM     26  O   UNL     1       2.432   3.223   3.171  0.00  0.00    -0.483 OA
BRANCH  26  27
ATOM     27  C   UNL     1       2.859   2.183   3.936  0.00  0.00    +0.121 A 
ATOM     28  C   UNL     1       2.053   1.065   4.100  0.00  0.00    +0.047 A 
ATOM     29  C   UNL     1       2.489   0.010   4.878  0.00  0.00    +0.023 A 
ATOM     30  C   UNL     1       3.727   0.067   5.492  0.00  0.00    +0.041 A 
ATOM     31  C   UNL     1       4.531   1.181   5.330  0.00  0.00    +0.023 A 
ATOM     32  C   UNL     1       4.099   2.239   4.554  0.00  0.00    +0.047 A 
ATOM     33 CL   UNL     1       4.271  -1.262   6.469  0.00  0.00    -0.084 Cl
ENDBRANCH  26  27
ENDBRANCH  25  26
ENDBRANCH  22  25
ENDBRANCH  20  21
ENDBRANCH   1  20
TORSDOF 7
