REMARK  Name = ZINC59108815
REMARK  14 active torsions:
REMARK  status: ('A' for Active; 'I' for Inactive)
REMARK    1  A    between atoms: C_1  and  C_2
REMARK    2  A    between atoms: C_2  and  C_3
REMARK    3  A    between atoms: C_3  and  C_4
REMARK    4  A    between atoms: C_4  and  C_5
REMARK    5  A    between atoms: C_5  and  C_6
REMARK    6  A    between atoms: N_8  and  N_9
REMARK    7  A    between atoms: C_10  and  C_28
REMARK    8  A    between atoms: N_14  and  C_17
REMARK    9  A    between atoms: C_20  and  C_23
REMARK   10  A    between atoms: C_23  and  O_25
REMARK   11  A    between atoms: O_25  and  C_26
REMARK   12  A    between atoms: C_26  and  C_27
REMARK   13  A    between atoms: C_28  and  C_29
REMARK   14  A    between atoms: N_31  and  C_32
REMARK                            x       y       z     vdW  Elec       q    Type
REMARK                         _______ _______ _______ _____ _____    ______ ____
ROOT
ATOM      1  N   UNL     1      -4.289  -6.373  -0.057  0.00  0.00    -0.219 N 
ATOM      2  C   UNL     1      -4.603  -7.162  -1.261  0.00  0.00    +0.191 C 
ATOM      3  C   UNL     1      -4.593  -8.593  -0.762  0.00  0.00    +0.248 C 
ATOM      4  O   UNL     1      -4.801  -9.597  -1.410  0.00  0.00    -0.273 OA
ATOM      5  N   UNL     1      -4.304  -8.519   0.552  0.00  0.00    -0.219 N 
ATOM      6  C   UNL     1      -4.127  -7.253   0.948  0.00  0.00    +0.164 C 
ATOM      7  S   UNL     1      -3.742  -6.802   2.554  0.00  0.00    -0.016 S 
ENDROOT
BRANCH   5   8
ATOM      8  C   UNL     1      -4.198  -9.627   1.397  0.00  0.00    +0.043 A 
ATOM      9  C   UNL     1      -3.310 -10.652   1.088  0.00  0.00    +0.025 A 
ATOM     10  C   UNL     1      -3.203 -11.745   1.918  0.00  0.00    +0.017 A 
ATOM     11  C   UNL     1      -3.988 -11.825   3.072  0.00  0.00    +0.059 A 
ATOM     12  C   UNL     1      -4.879 -10.792   3.379  0.00  0.00    +0.017 A 
ATOM     13  C   UNL     1      -4.976  -9.699   2.547  0.00  0.00    +0.025 A 
BRANCH  11  14
ATOM     14  C   UNL     1      -3.876 -12.995   3.963  0.00  0.00    +0.339 C 
ATOM     15  O   UNL     1      -3.101 -13.891   3.694  0.00  0.00    -0.245 OA
BRANCH  14  16
ATOM     16  O   UNL     1      -4.633 -13.069   5.075  0.00  0.00    -0.461 OA
BRANCH  16  17
ATOM     17  C   UNL     1      -4.473 -14.230   5.892  0.00  0.00    +0.229 C 
ATOM     18  C   UNL     1      -5.409 -14.137   7.099  0.00  0.00    +0.048 C 
ENDBRANCH  16  17
ENDBRANCH  14  16
ENDBRANCH  11  14
ENDBRANCH   5   8
BRANCH   1  21
ATOM     19  C   UNL     1      -2.960  -4.406   0.115  0.00  0.00    +0.229 C 
ATOM     20  O   UNL     1      -1.963  -5.097   0.127  0.00  0.00    -0.274 OA
ATOM     21  N   UNL     1      -4.176  -4.979   0.024  0.00  0.00    -0.232 N 
ATOM     22  H   UNL     1      -4.973  -4.426   0.015  0.00  0.00    +0.173 HD
BRANCH  19  23
ATOM     23  C   UNL     1      -2.838  -2.907   0.203  0.00  0.00    +0.097 C 
BRANCH  23  24
ATOM     24  C   UNL     1      -1.361  -2.520   0.296  0.00  0.00    +0.009 C 
BRANCH  24  25
ATOM     25  C   UNL     1      -1.237  -0.997   0.385  0.00  0.00    +0.000 C 
BRANCH  25  27
ATOM     26  C   UNL     1       0.364   0.912   0.568  0.00  0.00    +0.004 C 
ATOM     27  C   UNL     1       0.240  -0.610   0.479  0.00  0.00    -0.003 C 
ENDBRANCH  25  27
ENDBRANCH  24  25
ENDBRANCH  23  24
ENDBRANCH  19  23
ENDBRANCH   1  21
BRANCH   2  28
ATOM     28  C   UNL     1      -5.983  -6.788  -1.805  0.00  0.00    +0.129 C 
BRANCH  28  29
ATOM     29  C   UNL     1      -5.967  -5.357  -2.276  0.00  0.00    +0.220 C 
ATOM     30  O   UNL     1      -4.951  -4.700  -2.185  0.00  0.00    -0.275 OA
ATOM     31  N   UNL     1      -7.081  -4.806  -2.798  0.00  0.00    -0.285 N 
ATOM     32  H   UNL     1      -7.914  -5.303  -2.796  0.00  0.00    +0.155 HD
BRANCH  31  33
ATOM     33  C   UNL     1      -7.035  -3.517  -3.342  0.00  0.00    +0.034 A 
ATOM     34  C   UNL     1      -8.129  -2.671  -3.217  0.00  0.00    +0.026 A 
ATOM     35  C   UNL     1      -8.083  -1.399  -3.754  0.00  0.00    +0.040 A 
ATOM     36  C   UNL     1      -6.946  -0.968  -4.417  0.00  0.00    +0.124 A 
ATOM     37  C   UNL     1      -5.854  -1.810  -4.543  0.00  0.00    +0.040 A 
ATOM     38  C   UNL     1      -5.895  -3.080  -4.002  0.00  0.00    +0.026 A 
ATOM     39  F   UNL     1      -6.903   0.276  -4.943  0.00  0.00    -0.205 F 
ENDBRANCH  31  33
ENDBRANCH  28  29
ENDBRANCH   2  28
TORSDOF 12
