REMARK  Name = ZINC37402594
REMARK  13 active torsions:
REMARK  status: ('A' for Active; 'I' for Inactive)
REMARK    1  A    between atoms: C_1  and  C_2
REMARK    2  A    between atoms: C_2  and  C_3
REMARK    3  A    between atoms: C_2  and  N_4
REMARK    4  A    between atoms: C_5  and  C_7
REMARK    5  A    between atoms: C_7  and  O_31
REMARK    6  A    between atoms: C_13  and  O_16
REMARK    7  A    between atoms: O_16  and  C_17
REMARK    8  A    between atoms: C_17  and  C_18
REMARK    9  A    between atoms: C_23  and  C_24
REMARK   10  A    between atoms: C_27  and  C_29
REMARK   11  A    between atoms: C_27  and  C_30
REMARK   12  A    between atoms: O_31  and  C_32
REMARK   13  A    between atoms: C_32  and  C_33
REMARK                            x       y       z     vdW  Elec       q    Type
REMARK                         _______ _______ _______ _____ _____    ______ ____
ROOT
ATOM      1  C   UNL     1      -3.043  -2.288  -0.383  0.00  0.00    +0.150 C 
ATOM      2  C   UNL     1      -2.952  -3.810  -0.330  0.00  0.00    +0.079 C 
ATOM      3  C   UNL     1      -2.245  -4.358  -1.572  0.00  0.00    +0.156 C 
ATOM      4  C   UNL     1      -2.906  -3.828  -2.857  0.00  0.00    +0.179 C 
ATOM      5  C   UNL     1      -3.130  -2.336  -2.848  0.00  0.00    +0.153 C 
ATOM      6  C   UNL     1      -3.883  -1.892  -1.603  0.00  0.00    +0.079 C 
ATOM      7  O   UNL     1      -4.135  -4.573  -2.902  0.00  0.00    -0.341 OA
ATOM      8  C   UNL     1      -3.761  -5.886  -2.438  0.00  0.00    +0.165 C 
ATOM      9  O   UNL     1      -2.561  -5.776  -1.627  0.00  0.00    -0.343 OA
ATOM     10  C   UNL     1      -3.486  -6.797  -3.636  0.00  0.00    +0.074 C 
ATOM     11  C   UNL     1      -4.894  -6.476  -1.596  0.00  0.00    +0.074 C 
ENDROOT
BRANCH   1  13
ATOM     12  N   UNL     1      -1.433  -0.426  -0.140  0.00  0.00    -0.311 N 
ATOM     13  C   UNL     1      -1.660  -1.702  -0.509  0.00  0.00    +0.245 C 
ATOM     14  O   UNL     1      -0.752  -2.379  -0.943  0.00  0.00    -0.273 OA
ATOM     15  H   UNL     1      -2.171   0.137   0.140  0.00  0.00    +0.149 HD
BRANCH  12  17
ATOM     16  C   UNL     1      -0.123   1.631  -0.321  0.00  0.00    +0.027 C 
ATOM     17  C   UNL     1      -0.070   0.111  -0.161  0.00  0.00    +0.067 C 
ATOM     18  C   UNL     1       0.637  -0.240   1.149  0.00  0.00    +0.027 C 
ENDBRANCH  12  17
ENDBRANCH   1  13
BRANCH   5  19
ATOM     19  O   UNL     1      -3.895  -1.972  -3.998  0.00  0.00    -0.369 OA
BRANCH  19  20
ATOM     20  C   UNL     1      -3.623  -0.655  -4.484  0.00  0.00    +0.196 C 
BRANCH  20  21
ATOM     21  C   UNL     1      -4.481  -0.379  -5.692  0.00  0.00    -0.005 A 
ATOM     22  C   UNL     1      -5.359  -1.339  -6.151  0.00  0.00    +0.007 A 
ATOM     23  C   UNL     1      -6.146  -1.086  -7.260  0.00  0.00    +0.000 A 
ATOM     24  C   UNL     1      -6.059   0.129  -7.917  0.00  0.00    +0.001 A 
ATOM     25  C   UNL     1      -5.186   1.097  -7.469  0.00  0.00    +0.019 A 
ATOM     26  C   UNL     1      -4.392   0.852  -6.346  0.00  0.00    +0.057 A 
BRANCH  26  27
ATOM     27  C   UNL     1      -3.487   1.855  -5.871  0.00  0.00    +0.100 C 
ATOM     28  N   UNL     1      -2.769   2.651  -5.495  0.00  0.00    -0.191 NA
ENDBRANCH  26  27
ENDBRANCH  20  21
ENDBRANCH  19  20
ENDBRANCH   5  19
BRANCH   1  29
ATOM     29  O   UNL     1      -3.665  -1.799   0.807  0.00  0.00    -0.359 OA
BRANCH  29  30
ATOM     30  C   UNL     1      -4.951  -2.366   1.066  0.00  0.00    +0.199 C 
BRANCH  30  31
ATOM     31  C   UNL     1      -5.466  -1.859   2.389  0.00  0.00    +0.013 A 
ATOM     32  C   UNL     1      -4.707  -0.976   3.134  0.00  0.00    +0.009 A 
ATOM     33  C   UNL     1      -5.179  -0.511   4.347  0.00  0.00    +0.001 A 
ATOM     34  C   UNL     1      -6.411  -0.928   4.816  0.00  0.00    +0.003 A 
ATOM     35  C   UNL     1      -7.171  -1.810   4.073  0.00  0.00    +0.039 A 
ATOM     36  C   UNL     1      -6.702  -2.273   2.855  0.00  0.00    +0.129 A 
ATOM     37  F   UNL     1      -7.446  -3.132   2.125  0.00  0.00    -0.205 F 
ENDBRANCH  30  31
ENDBRANCH  29  30
ENDBRANCH   1  29
TORSDOF 9
