REMARK  Name = ZINC01068200
REMARK  10 active torsions:
REMARK  status: ('A' for Active; 'I' for Inactive)
REMARK    1  A    between atoms: C_1  and  C_2
REMARK    2  A    between atoms: C_2  and  C_3
REMARK    3  A    between atoms: C_3  and  C_24
REMARK    4  A    between atoms: C_10  and  S_16
REMARK    5  A    between atoms: C_12  and  S_14
REMARK    6  A    between atoms: S_14  and  C_15
REMARK    7  A    between atoms: S_16  and  C_17
REMARK    8  A    between atoms: C_17  and  C_18
REMARK    9  A    between atoms: C_18  and  O_20
REMARK   10  A    between atoms: O_20  and  C_21
REMARK                            x       y       z     vdW  Elec       q    Type
REMARK                         _______ _______ _______ _____ _____    ______ ____
ROOT
ATOM      1  C   UNL     1       4.030  -2.218   6.988  0.00  0.00    +0.071 C 
ATOM      2  C   UNL     1       3.786  -1.517   5.648  0.00  0.00    +0.071 C 
ATOM      3  C   UNL     1       2.534  -0.655   5.786  0.00  0.00    -0.020 A 
ATOM      4  C   UNL     1       2.075  -0.338   7.016  0.00  0.00    +0.021 A 
ATOM      5  S   UNL     1       0.634   0.649   6.731  0.00  0.00    -0.071 S 
ATOM      6  C   UNL     1       0.649   0.637   4.957  0.00  0.00    +0.114 A 
ATOM      7  C   UNL     1       1.782  -0.141   4.643  0.00  0.00    +0.043 A 
ATOM      8  C   UNL     1       2.038  -0.319   3.254  0.00  0.00    +0.110 A 
ATOM      9  N   UNL     1       1.223   0.233   2.370  0.00  0.00    -0.215 NA
ATOM     10  C   UNL     1       0.174   0.961   2.735  0.00  0.00    +0.190 A 
ATOM     11  N   UNL     1      -0.113   1.159   4.015  0.00  0.00    -0.215 NA
ATOM     12  C   UNL     1       2.682  -0.751   8.321  0.00  0.00    +0.203 C 
ATOM     13  O   UNL     1       3.996  -1.266   8.055  0.00  0.00    -0.368 OA
ATOM     14  C   UNL     1       2.943  -3.270   7.216  0.00  0.00    +0.042 C 
ENDROOT
BRANCH   1  16
ATOM     15  C   UNL     1       5.593  -3.705   8.249  0.00  0.00    +0.007 C 
ATOM     16  C   UNL     1       5.399  -2.901   6.961  0.00  0.00    +0.032 C 
ENDBRANCH   1  16
BRANCH  10  17
ATOM     17  S   UNL     1      -0.860   1.669   1.497  0.00  0.00    -0.089 S 
ATOM     18  C   UNL     1      -0.013   1.086   0.008  0.00  0.00    +0.093 C 
ENDBRANCH  10  17
BRANCH   8  19
ATOM     19  S   UNL     1       3.421  -1.270   2.717  0.00  0.00    -0.094 S 
BRANCH  19  20
ATOM     20  C   UNL     1       3.220  -1.134   0.924  0.00  0.00    +0.196 C 
BRANCH  20  21
ATOM     21  C   UNL     1       4.324  -1.893   0.235  0.00  0.00    +0.317 C 
ATOM     22  O   UNL     1       5.162  -2.468   0.890  0.00  0.00    -0.250 OA
BRANCH  21  23
ATOM     23  O   UNL     1       4.377  -1.932  -1.105  0.00  0.00    -0.467 OA
ATOM     24  C   UNL     1       5.469  -2.682  -1.700  0.00  0.00    +0.280 C 
ENDBRANCH  21  23
ENDBRANCH  20  21
ENDBRANCH  19  20
ENDBRANCH   8  19
TORSDOF 6
