REMARK  Name = ZINC04492936
REMARK  8 active torsions:
REMARK  status: ('A' for Active; 'I' for Inactive)
REMARK    1  A    between atoms: C_1  and  C_2
REMARK    2  A    between atoms: C_7  and  N_8
REMARK    3  A    between atoms: C_12  and  S_13
REMARK    4  A    between atoms: S_13  and  C_14
REMARK    5  A    between atoms: C_14  and  C_16
REMARK    6  A    between atoms: C_14  and  C_17
REMARK    7  A    between atoms: C_23  and  C_29
REMARK    8  A    between atoms: C_24  and  C_28
REMARK                            x       y       z     vdW  Elec       q    Type
REMARK                         _______ _______ _______ _____ _____    ______ ____
ROOT
ATOM      1  C   UNL     1      -2.730   0.157   0.029  0.00  0.00    +0.117 C 
ATOM      2  C   UNL     1      -2.703   0.957  -1.274  0.00  0.00    +0.027 C 
ENDROOT
BRANCH   1   3
ATOM      3  C   UNL     1      -4.058  -0.543   0.162  0.00  0.00    +0.124 A 
ATOM      4  N   UNL     1      -5.050   0.041   0.882  0.00  0.00    -0.309 N 
ATOM      5  H   UNL     1      -4.884   0.925   1.318  0.00  0.00    +0.170 HD
ATOM      6  C   UNL     1      -6.253  -0.547   1.021  0.00  0.00    +0.260 A 
ATOM      7  O   UNL     1      -7.135  -0.007   1.666  0.00  0.00    -0.267 OA
ATOM      8  C   UNL     1      -6.478  -1.820   0.404  0.00  0.00    +0.075 A 
ATOM      9  C   UNL     1      -7.669  -2.649   0.412  0.00  0.00    -0.026 A 
ATOM     10  C   UNL     1      -7.656  -3.821  -0.243  0.00  0.00    -0.008 A 
ATOM     11  S   UNL     1      -6.012  -3.893  -0.928  0.00  0.00    -0.073 S 
ATOM     12  C   UNL     1      -5.391  -2.348  -0.315  0.00  0.00    +0.116 A 
ATOM     13  N   UNL     1      -4.232  -1.703  -0.412  0.00  0.00    -0.225 NA
ATOM     14  C   UNL     1      -8.765  -4.834  -0.368  0.00  0.00    +0.052 C 
ATOM     15  C   UNL     1      -8.906  -2.200   1.146  0.00  0.00    +0.045 C 
ENDBRANCH   1   3
BRANCH   1  16
ATOM     16  S   UNL     1      -1.400  -1.071   0.010  0.00  0.00    -0.075 S 
BRANCH  16  21
ATOM     17  N   UNL     1       1.315  -0.386  -0.013  0.00  0.00    -0.277 N 
ATOM     18  C   UNL     1       2.039   0.777  -0.013  0.00  0.00    +0.230 A 
ATOM     19  N   UNL     1       1.186   1.763   0.000  0.00  0.00    -0.137 NA
ATOM     20  N   UNL     1      -0.016   1.309   0.009  0.00  0.00    -0.122 NA
ATOM     21  C   UNL     1       0.002  -0.004   0.002  0.00  0.00    +0.197 A 
BRANCH  17  28
ATOM     22  C   UNL     1       0.785  -2.010  -2.289  0.00  0.00    +0.046 C 
ATOM     23  C   UNL     1       1.581  -2.520  -1.116  0.00  0.00    -0.027 A 
ATOM     24  C   UNL     1       2.077  -3.810  -1.125  0.00  0.00    +0.005 A 
ATOM     25  C   UNL     1       2.808  -4.279  -0.050  0.00  0.00    +0.000 A 
ATOM     26  C   UNL     1       3.044  -3.459   1.039  0.00  0.00    +0.002 A 
ATOM     27  C   UNL     1       2.555  -2.168   1.052  0.00  0.00    +0.026 A 
ATOM     28  C   UNL     1       1.817  -1.696  -0.025  0.00  0.00    +0.053 A 
ENDBRANCH  17  28
ENDBRANCH  16  21
ENDBRANCH   1  16
TORSDOF 4
