REMARK  Name = ZINC19722205
REMARK  9 active torsions:
REMARK  status: ('A' for Active; 'I' for Inactive)
REMARK    1  A    between atoms: C_1  and  C_2
REMARK    2  A    between atoms: C_5  and  C_8
REMARK    3  A    between atoms: C_9  and  C_14
REMARK    4  A    between atoms: C_14  and  N_15
REMARK    5  A    between atoms: N_15  and  C_16
REMARK    6  A    between atoms: N_15  and  C_24
REMARK    7  A    between atoms: C_16  and  C_17
REMARK    8  A    between atoms: C_17  and  C_18
REMARK    9  A    between atoms: C_24  and  C_25
REMARK                            x       y       z     vdW  Elec       q    Type
REMARK                         _______ _______ _______ _____ _____    ______ ____
ROOT
ATOM      1  N   UNL     1       0.068  -2.000   1.312  0.00  0.00    -0.294 NA
ENDROOT
BRANCH   1   2
ATOM      2  C   UNL     1       0.262  -2.655   2.612  0.00  0.00    +0.123 C 
BRANCH   2   4
ATOM      3  C   UNL     1       1.726  -4.677   2.035  0.00  0.00    +0.070 A 
ATOM      4  C   UNL     1       0.531  -4.122   2.400  0.00  0.00    +0.012 A 
ATOM      5  C   UNL     1      -0.396  -5.156   2.535  0.00  0.00    +0.139 A 
ATOM      6  N   UNL     1       0.202  -6.290   2.272  0.00  0.00    -0.181 NA
ATOM      7  N   UNL     1       1.541  -6.025   1.957  0.00  0.00    -0.277 N 
ATOM      8  H   UNL     1       2.381  -6.680   1.683  0.00  0.00    +0.189 HD
BRANCH   3  13
ATOM      9  C   UNL     1       6.635  -1.845   1.030  0.00  0.00    +0.044 C 
ATOM     10  C   UNL     1       5.349  -2.586   1.294  0.00  0.00    -0.050 A 
ATOM     11  C   UNL     1       5.363  -3.738   2.059  0.00  0.00    +0.004 A 
ATOM     12  C   UNL     1       4.190  -4.421   2.304  0.00  0.00    +0.010 A 
ATOM     13  C   UNL     1       2.988  -3.949   1.777  0.00  0.00    +0.000 A 
ATOM     14  C   UNL     1       2.982  -2.789   1.001  0.00  0.00    +0.010 A 
ATOM     15  C   UNL     1       4.161  -2.112   0.768  0.00  0.00    +0.004 A 
ENDBRANCH   3  13
ENDBRANCH   2   4
ENDBRANCH   1   2
BRANCH   1  16
ATOM     16  C   UNL     1       0.039  -0.538   1.458  0.00  0.00    +0.090 C 
BRANCH  16  17
ATOM     17  C   UNL     1       1.461  -0.020   1.681  0.00  0.00    +0.050 C 
BRANCH  17  18
ATOM     18  C   UNL     1       1.447   1.487   1.716  0.00  0.00    -0.046 A 
ATOM     19  C   UNL     1       1.622   2.206   0.548  0.00  0.00    +0.003 A 
ATOM     20  C   UNL     1       1.605   3.588   0.579  0.00  0.00    +0.000 A 
ATOM     21  C   UNL     1       1.422   4.251   1.778  0.00  0.00    +0.000 A 
ATOM     22  C   UNL     1       1.252   3.531   2.946  0.00  0.00    +0.000 A 
ATOM     23  C   UNL     1       1.265   2.149   2.915  0.00  0.00    +0.003 A 
ENDBRANCH  17  18
ENDBRANCH  16  17
ENDBRANCH   1  16
BRANCH   1  24
ATOM     24  C   UNL     1      -1.151  -2.487   0.653  0.00  0.00    +0.120 C 
BRANCH  24  25
ATOM     25  C   UNL     1      -1.077  -2.193  -0.823  0.00  0.00    -0.033 A 
ATOM     26  C   UNL     1      -1.676  -1.056  -1.332  0.00  0.00    +0.005 A 
ATOM     27  C   UNL     1      -1.603  -0.783  -2.685  0.00  0.00    +0.000 A 
ATOM     28  C   UNL     1      -0.941  -1.653  -3.531  0.00  0.00    +0.000 A 
ATOM     29  C   UNL     1      -0.347  -2.793  -3.023  0.00  0.00    +0.000 A 
ATOM     30  C   UNL     1      -0.414  -3.063  -1.669  0.00  0.00    +0.005 A 
ENDBRANCH  24  25
ENDBRANCH   1  24
TORSDOF 8
