REMARK  Name = ZINC32717310
REMARK  11 active torsions:
REMARK  status: ('A' for Active; 'I' for Inactive)
REMARK    1  A    between atoms: C_1  and  C_2
REMARK    2  A    between atoms: C_2  and  C_3
REMARK    3  A    between atoms: C_3  and  C_5
REMARK    4  A    between atoms: C_3  and  C_6
REMARK    5  A    between atoms: C_6  and  C_8
REMARK    6  A    between atoms: C_6  and  N_28
REMARK    7  A    between atoms: N_10  and  C_11
REMARK    8  A    between atoms: C_11  and  C_12
REMARK    9  A    between atoms: C_12  and  S_13
REMARK   10  A    between atoms: S_13  and  N_16
REMARK   11  A    between atoms: C_29  and  C_31
REMARK                            x       y       z     vdW  Elec       q    Type
REMARK                         _______ _______ _______ _____ _____    ______ ____
ROOT
ATOM      1  C   UNL     1      -0.268   1.258  -2.879  0.00  0.00    +0.234 C 
ATOM      2  O   UNL     1       0.239   1.720  -3.879  0.00  0.00    -0.274 OA
ATOM      3  N   UNL     1      -0.834   2.076  -1.971  0.00  0.00    -0.312 N 
ATOM      4  H   UNL     1      -1.173   1.715  -1.137  0.00  0.00    +0.149 HD
ENDROOT
BRANCH   1   5
ATOM      5  C   UNL     1      -0.263  -0.232  -2.652  0.00  0.00    +0.162 C 
BRANCH   5   6
ATOM      6  N   UNL     1      -0.009  -0.919  -3.921  0.00  0.00    -0.300 N 
ATOM      7  C   UNL     1      -0.439  -2.184  -4.100  0.00  0.00    +0.245 C 
ATOM      8  O   UNL     1      -1.037  -2.754  -3.209  0.00  0.00    -0.270 OA
ATOM      9  H   UNL     1       0.469  -0.464  -4.631  0.00  0.00    +0.150 HD
BRANCH   7  10
ATOM     10  C   UNL     1      -0.182  -2.877  -5.380  0.00  0.00    +0.037 A 
ATOM     11  C   UNL     1       0.510  -2.226  -6.403  0.00  0.00    +0.013 A 
ATOM     12  C   UNL     1       0.747  -2.879  -7.595  0.00  0.00    +0.001 A 
ATOM     13  C   UNL     1       0.300  -4.175  -7.779  0.00  0.00    +0.000 A 
ATOM     14  C   UNL     1      -0.388  -4.826  -6.769  0.00  0.00    +0.001 A 
ATOM     15  C   UNL     1      -0.625  -4.186  -5.570  0.00  0.00    +0.013 A 
ENDBRANCH   7  10
ENDBRANCH   5   6
BRANCH   5  16
ATOM     16  C   UNL     1       0.834  -0.592  -1.648  0.00  0.00    +0.015 C 
ATOM     17  C   UNL     1       2.204  -0.315  -2.270  0.00  0.00    +0.010 C 
BRANCH  16  19
ATOM     18  C   UNL     1      -0.580  -2.323  -0.532  0.00  0.00    +0.004 C 
ATOM     19  C   UNL     1       0.728  -2.075  -1.286  0.00  0.00    +0.002 C 
ENDBRANCH  16  19
ENDBRANCH   5  16
ENDBRANCH   1   5
BRANCH   3  20
ATOM     20  C   UNL     1      -0.939   3.512  -2.243  0.00  0.00    +0.128 C 
BRANCH  20  21
ATOM     21  C   UNL     1      -1.616   4.207  -1.060  0.00  0.00    +0.204 C 
BRANCH  21  22
ATOM     22  S   UNL     1      -1.746   5.985  -1.398  0.00  0.00    +0.033 S 
ATOM     23  O   UNL     1      -0.454   6.576  -1.411  0.00  0.00    -0.158 OA
ATOM     24  O   UNL     1      -2.659   6.216  -2.462  0.00  0.00    -0.158 OA
BRANCH  22  25
ATOM     25  N   UNL     1      -2.487   6.619  -0.060  0.00  0.00    -0.178 NA
ATOM     26  C   UNL     1      -3.952   6.715   0.009  0.00  0.00    +0.128 C 
ATOM     27  C   UNL     1      -4.432   5.995   1.275  0.00  0.00    +0.123 C 
ATOM     28  N   UNL     1      -3.637   6.471   2.416  0.00  0.00    -0.314 N 
ATOM     29  C   UNL     1      -2.172   6.375   2.348  0.00  0.00    +0.123 C 
ATOM     30  C   UNL     1      -1.692   7.090   1.083  0.00  0.00    +0.128 C 
ATOM     31  C   UNL     1      -4.260   7.004   3.539  0.00  0.00    +0.099 A 
ATOM     32  C   UNL     1      -5.646   6.957   3.646  0.00  0.00    +0.042 A 
ATOM     33  C   UNL     1      -6.252   7.490   4.769  0.00  0.00    +0.005 A 
ATOM     34  C   UNL     1      -5.448   8.055   5.751  0.00  0.00    +0.018 A 
ATOM     35  C   UNL     1      -4.079   8.067   5.580  0.00  0.00    +0.084 A 
ATOM     36  N   UNL     1      -3.527   7.546   4.500  0.00  0.00    -0.350 N 
ATOM     37  H   UNL     1      -2.562   7.564   4.406  0.00  0.00    +0.166 HD
ENDBRANCH  22  25
ENDBRANCH  21  22
ENDBRANCH  20  21
ENDBRANCH   3  20
TORSDOF 9
