REMARK  Name = ZINC04923199
REMARK  4 active torsions:
REMARK  status: ('A' for Active; 'I' for Inactive)
REMARK    1  A    between atoms: C_1  and  C_2
REMARK    2  A    between atoms: C_7  and  N_8
REMARK    3  A    between atoms: C_14  and  C_22
REMARK    4  A    between atoms: C_16  and  C_20
REMARK                            x       y       z     vdW  Elec       q    Type
REMARK                         _______ _______ _______ _____ _____    ______ ____
ROOT
ATOM      1  N   UNL     1       1.163   3.483   0.009  0.00  0.00    -0.304 N 
ATOM      2  C   UNL     1       0.566   3.989   1.227  0.00  0.00    +0.222 C 
ATOM      3  N   UNL     1       0.488   5.437   1.349  0.00  0.00    -0.248 N 
ATOM      4  C   UNL     1       0.456   5.955   2.599  0.00  0.00    +0.222 C 
ATOM      5  O   UNL     1       0.596   5.221   3.555  0.00  0.00    -0.275 OA
ATOM      6  C   UNL     1       0.248   7.429   2.820  0.00  0.00    +0.110 C 
ATOM      7  C   UNL     1      -0.696   7.971   1.742  0.00  0.00    +0.070 C 
ATOM      8  C   UNL     1      -0.201   7.510   0.395  0.00  0.00    +0.065 C 
ATOM      9  C   UNL     1       0.373   6.280   0.263  0.00  0.00    +0.087 C 
ATOM     10  S   UNL     1       0.959   5.772  -1.323  0.00  0.00    -0.090 S 
ATOM     11  C   UNL     1       0.544   4.008  -1.214  0.00  0.00    +0.182 C 
ENDROOT
BRANCH   1  18
ATOM     12  C   UNL     1       3.686   2.168  -0.022  0.00  0.00    +0.045 C 
ATOM     13  C   UNL     1       2.387   1.403  -0.014  0.00  0.00    -0.029 A 
ATOM     14  C   UNL     1       2.399   0.022  -0.022  0.00  0.00    +0.005 A 
ATOM     15  C   UNL     1       1.208  -0.681  -0.014  0.00  0.00    +0.000 A 
ATOM     16  C   UNL     1       0.002  -0.004   0.002  0.00  0.00    +0.002 A 
ATOM     17  C   UNL     1      -0.017   1.377   0.010  0.00  0.00    +0.023 A 
ATOM     18  C   UNL     1       1.178   2.086   0.002  0.00  0.00    +0.034 A 
ENDBRANCH   1  18
BRANCH   7  19
ATOM     19  C   UNL     1      -2.089   7.447   1.980  0.00  0.00    -0.039 A 
ATOM     20  C   UNL     1      -2.327   6.085   1.970  0.00  0.00    +0.004 A 
ATOM     21  C   UNL     1      -3.604   5.605   2.193  0.00  0.00    +0.000 A 
ATOM     22  C   UNL     1      -4.644   6.487   2.417  0.00  0.00    +0.000 A 
ATOM     23  C   UNL     1      -4.408   7.849   2.422  0.00  0.00    +0.000 A 
ATOM     24  C   UNL     1      -3.130   8.329   2.204  0.00  0.00    +0.004 A 
ENDBRANCH   7  19
BRANCH   8  25
ATOM     25  C   UNL     1      -0.335   8.363  -0.747  0.00  0.00    +0.098 C 
ATOM     26  N   UNL     1      -0.440   9.040  -1.653  0.00  0.00    -0.191 NA
ENDBRANCH   8  25
TORSDOF 3
