REMARK  Name = ZINC06149156
REMARK  13 active torsions:
REMARK  status: ('A' for Active; 'I' for Inactive)
REMARK    1  A    between atoms: C_1  and  C_2
REMARK    2  A    between atoms: C_2  and  C_3
REMARK    3  A    between atoms: C_3  and  C_4
REMARK    4  A    between atoms: C_3  and  C_5
REMARK    5  A    between atoms: C_3  and  N_6
REMARK    6  A    between atoms: C_7  and  C_11
REMARK    7  A    between atoms: C_11  and  C_13
REMARK    8  A    between atoms: C_11  and  N_69
REMARK    9  A    between atoms: C_17  and  C_25
REMARK   10  A    between atoms: C_26  and  C_27
REMARK   11  A    between atoms: C_26  and  N_69
REMARK   12  A    between atoms: C_33  and  C_34
REMARK   13  A    between atoms: C_33  and  N_69
REMARK                            x       y       z     vdW  Elec       q    Type
REMARK                         _______ _______ _______ _____ _____    ______ ____
ROOT
ATOM      1  C   UNL     1      -0.569  -1.079   0.568  0.00  0.00    +0.040 C 
ENDROOT
BRANCH   1   2
ATOM      2  C   UNL     1       0.613  -0.189   0.852  0.00  0.00    +0.011 A 
ATOM      3  C   UNL     1       1.844  -0.733   1.018  0.00  0.00    +0.017 A 
ATOM      4  C   UNL     1       2.971   0.160   1.294  0.00  0.00    -0.001 A 
ATOM      5  C   UNL     1       4.264  -0.342   1.474  0.00  0.00    +0.013 A 
ATOM      6  C   UNL     1       5.295   0.517   1.729  0.00  0.00    -0.050 A 
ATOM      7  C   UNL     1       5.071   1.885   1.811  0.00  0.00    +0.005 A 
ATOM      8  C   UNL     1       3.805   2.401   1.637  0.00  0.00    +0.026 A 
ATOM      9  C   UNL     1       2.740   1.546   1.376  0.00  0.00    +0.049 A 
ATOM     10  N   UNL     1       1.464   2.036   1.197  0.00  0.00    -0.322 N 
ATOM     11  H   UNL     1       1.302   3.021   1.256  0.00  0.00    +0.169 HD
ATOM     12  C   UNL     1       0.435   1.208   0.944  0.00  0.00    +0.251 A 
ATOM     13  O   UNL     1      -0.679   1.677   0.786  0.00  0.00    -0.268 OA
ATOM     14  C   UNL     1       6.688  -0.025   1.924  0.00  0.00    +0.044 C 
ENDBRANCH   1   2
BRANCH   1  16
ATOM     15  N   UNL     1      -0.913  -1.520  -1.921  0.00  0.00    -0.225 N 
ATOM     16  C   UNL     1      -1.101  -0.783  -0.811  0.00  0.00    +0.143 A 
ATOM     17  N   UNL     1      -1.842   0.241  -1.160  0.00  0.00    -0.115 NA
ATOM     18  N   UNL     1      -2.089   0.141  -2.421  0.00  0.00    -0.023 NA
ATOM     19  N   UNL     1      -1.532  -0.923  -2.883  0.00  0.00    -0.043 NA
BRANCH  15  20
ATOM     20  C   UNL     1      -0.150  -2.767  -2.018  0.00  0.00    +0.061 C 
ATOM     21  C   UNL     1       1.286  -2.524  -1.548  0.00  0.00    +0.036 C 
ATOM     22  C   UNL     1      -0.802  -3.834  -1.136  0.00  0.00    +0.036 C 
BRANCH  20  24
ATOM     23  C   UNL     1       0.660  -4.547  -3.573  0.00  0.00    +0.006 C 
ATOM     24  C   UNL     1      -0.137  -3.245  -3.472  0.00  0.00    +0.026 C 
ENDBRANCH  20  24
ENDBRANCH  15  20
ENDBRANCH   1  16
BRANCH   1  25
ATOM     25  N   UNL     1      -1.633  -0.805   1.556  0.00  0.00    +0.397 N 
ATOM     26  H   UNL     1      -2.094   0.080   1.313  0.00  0.00    -0.079 HD
BRANCH  25  27
ATOM     27  C   UNL     1      -2.636  -1.891   1.532  0.00  0.00    -0.041 C 
BRANCH  27  28
ATOM     28  C   UNL     1      -3.672  -1.564   0.486  0.00  0.00    -0.064 A 
ATOM     29  C   UNL     1      -4.702  -0.692   0.783  0.00  0.00    +0.002 A 
ATOM     30  C   UNL     1      -5.649  -0.389  -0.178  0.00  0.00    +0.000 A 
ATOM     31  C   UNL     1      -5.571  -0.966  -1.432  0.00  0.00    +0.000 A 
ATOM     32  C   UNL     1      -4.543  -1.843  -1.726  0.00  0.00    +0.000 A 
ATOM     33  C   UNL     1      -3.593  -2.142  -0.767  0.00  0.00    +0.002 A 
ENDBRANCH  27  28
ENDBRANCH  25  27
BRANCH  25  34
ATOM     34  C   UNL     1      -1.049  -0.688   2.908  0.00  0.00    -0.001 C 
BRANCH  34  35
ATOM     35  C   UNL     1      -2.096  -0.142   3.844  0.00  0.00    +0.089 A 
ATOM     36  C   UNL     1      -2.881  -0.871   4.658  0.00  0.00    +0.042 A 
ATOM     37  C   UNL     1      -3.710   0.040   5.351  0.00  0.00    +0.041 A 
ATOM     38  C   UNL     1      -3.383   1.271   4.920  0.00  0.00    +0.195 A 
ATOM     39  O   UNL     1      -2.401   1.155   4.011  0.00  0.00    -0.470 OA
ENDBRANCH  34  35
ENDBRANCH  25  34
ENDBRANCH   1  25
TORSDOF 9
