REMARK  Name = ZINC18781883
REMARK  9 active torsions:
REMARK  status: ('A' for Active; 'I' for Inactive)
REMARK    1  A    between atoms: C_1  and  C_2
REMARK    2  A    between atoms: C_3  and  C_7
REMARK    3  A    between atoms: C_10  and  S_13
REMARK    4  A    between atoms: N_11  and  C_12
REMARK    5  A    between atoms: S_13  and  C_14
REMARK    6  A    between atoms: C_14  and  C_15
REMARK    7  A    between atoms: N_17  and  C_18
REMARK    8  A    between atoms: N_17  and  C_19
REMARK    9  A    between atoms: C_19  and  C_20
REMARK                            x       y       z     vdW  Elec       q    Type
REMARK                         _______ _______ _______ _____ _____    ______ ____
ROOT
ATOM      1  S   UNL     1       4.363  -3.584  -4.013  0.00  0.00    -0.077 S 
ENDROOT
BRANCH   1   5
ATOM      2  C   UNL     1       5.410  -3.899  -7.764  0.00  0.00    +0.168 A 
ATOM      3  N   UNL     1       5.609  -2.626  -7.514  0.00  0.00    -0.128 NA
ATOM      4  N   UNL     1       5.303  -2.365  -6.294  0.00  0.00    -0.122 NA
ATOM      5  C   UNL     1       4.889  -3.455  -5.689  0.00  0.00    +0.192 A 
ATOM      6  N   UNL     1       4.948  -4.471  -6.602  0.00  0.00    -0.305 N 
ATOM      7  C   UNL     1       4.590  -5.875  -6.388  0.00  0.00    +0.153 C 
BRANCH   2  10
ATOM      8  C   UNL     1       7.947  -3.626  -9.585  0.00  0.00    +0.087 C 
ATOM      9  C   UNL     1       6.737  -4.482  -9.854  0.00  0.00    +0.112 A 
ATOM     10  C   UNL     1       5.643  -4.589  -9.051  0.00  0.00    +0.060 A 
ATOM     11  C   UNL     1       4.741  -5.527  -9.731  0.00  0.00    +0.053 A 
ATOM     12  C   UNL     1       5.369  -5.894 -10.860  0.00  0.00    +0.196 A 
ATOM     13  O   UNL     1       6.556  -5.271 -10.923  0.00  0.00    -0.467 OA
ENDBRANCH   2  10
ENDBRANCH   1   5
BRANCH   1  14
ATOM     14  C   UNL     1       4.575  -1.867  -3.483  0.00  0.00    +0.173 C 
BRANCH  14  15
ATOM     15  C   UNL     1       4.174  -1.734  -2.036  0.00  0.00    +0.226 C 
ATOM     16  O   UNL     1       3.784  -2.705  -1.424  0.00  0.00    -0.275 OA
ATOM     17  N   UNL     1       4.249  -0.536  -1.423  0.00  0.00    -0.299 N 
ATOM     18  C   UNL     1       4.721   0.637  -2.163  0.00  0.00    +0.132 C 
BRANCH  17  19
ATOM     19  C   UNL     1       3.859  -0.407  -0.017  0.00  0.00    +0.149 C 
BRANCH  19  20
ATOM     20  C   UNL     1       2.392  -0.076   0.069  0.00  0.00    +0.008 A 
ATOM     21  C   UNL     1       1.331  -0.916   0.148  0.00  0.00    +0.014 A 
ATOM     22  C   UNL     1       0.057  -0.383   0.218  0.00  0.00    +0.028 A 
ATOM     23  C   UNL     1      -0.093   0.965   0.206  0.00  0.00    +0.078 A 
ATOM     24  S   UNL     1       1.599   1.523   0.092  0.00  0.00    -0.080 S 
ATOM     25 CL   UNL     1      -1.551   1.904   0.274  0.00  0.00    -0.076 Cl
ENDBRANCH  19  20
ENDBRANCH  17  19
ENDBRANCH  14  15
ENDBRANCH   1  14
TORSDOF 6
