REMARK  Name = ZINC39636931
REMARK  14 active torsions:
REMARK  status: ('A' for Active; 'I' for Inactive)
REMARK    1  A    between atoms: C_1  and  C_2
REMARK    2  A    between atoms: C_2  and  C_3
REMARK    3  A    between atoms: C_3  and  C_4
REMARK    4  A    between atoms: C_4  and  C_6
REMARK    5  A    between atoms: C_4  and  C_7
REMARK    6  A    between atoms: C_11  and  C_20
REMARK    7  A    between atoms: N_22  and  C_23
REMARK    8  A    between atoms: C_23  and  C_24
REMARK    9  A    between atoms: C_26  and  O_34
REMARK   10  A    between atoms: C_27  and  O_32
REMARK   11  A    between atoms: C_28  and  O_30
REMARK   12  A    between atoms: O_30  and  C_31
REMARK   13  A    between atoms: O_32  and  C_33
REMARK   14  A    between atoms: O_34  and  C_35
REMARK                            x       y       z     vdW  Elec       q    Type
REMARK                         _______ _______ _______ _____ _____    ______ ____
ROOT
ATOM      1  C   UNL     1      -2.738  -2.510  -0.422  0.00  0.00    +0.218 C 
ATOM      2  O   UNL     1      -3.692  -1.802  -0.670  0.00  0.00    -0.275 OA
ATOM      3  N   UNL     1      -2.911  -3.834  -0.242  0.00  0.00    -0.300 N 
ATOM      4  C   UNL     1      -1.899  -4.833   0.177  0.00  0.00    +0.121 C 
ATOM      5  C   UNL     1      -2.657  -5.777   1.137  0.00  0.00    +0.100 C 
ATOM      6  C   UNL     1      -4.136  -5.635   0.741  0.00  0.00    -0.004 C 
ATOM      7  C   UNL     1      -4.157  -4.620  -0.411  0.00  0.00    +0.115 C 
ATOM      8  C   UNL     1      -4.690  -6.978   0.274  0.00  0.00    -0.010 C 
ATOM      9  C   UNL     1      -6.176  -6.823  -0.059  0.00  0.00    -0.082 C 
ATOM     10  N   UNL     1      -6.901  -6.361   1.131  0.00  0.00    +0.379 N 
ATOM     11  C   UNL     1      -6.426  -5.027   1.519  0.00  0.00    -0.082 C 
ATOM     12  C   UNL     1      -4.949  -5.105   1.919  0.00  0.00    -0.010 C 
ATOM     13  H   UNL     1      -7.888  -6.318   0.927  0.00  0.00    -0.086 HD
ATOM     14  H   UNL     1      -6.744  -7.006   1.891  0.00  0.00    -0.086 HD
ENDROOT
BRANCH   5  15
ATOM     15  C   UNL     1      -2.450  -5.348   2.567  0.00  0.00    +0.218 C 
ATOM     16  O   UNL     1      -2.191  -4.190   2.821  0.00  0.00    -0.275 OA
ATOM     17  N   UNL     1      -2.554  -6.249   3.563  0.00  0.00    -0.311 N 
ATOM     18  H   UNL     1      -2.761  -7.175   3.360  0.00  0.00    +0.149 HD
BRANCH  17  19
ATOM     19  C   UNL     1      -2.353  -5.832   4.953  0.00  0.00    +0.139 C 
BRANCH  19  20
ATOM     20  C   UNL     1      -2.522  -7.020   5.864  0.00  0.00    -0.023 A 
ATOM     21  C   UNL     1      -3.771  -7.326   6.373  0.00  0.00    +0.054 A 
ATOM     22  C   UNL     1      -3.931  -8.418   7.212  0.00  0.00    +0.165 A 
ATOM     23  C   UNL     1      -2.834  -9.206   7.541  0.00  0.00    +0.204 A 
ATOM     24  C   UNL     1      -1.581  -8.895   7.027  0.00  0.00    +0.165 A 
ATOM     25  C   UNL     1      -1.430  -7.804   6.184  0.00  0.00    +0.054 A 
BRANCH  24  26
ATOM     26  O   UNL     1      -0.505  -9.663   7.345  0.00  0.00    -0.491 OA
ATOM     27  C   UNL     1       0.752  -9.285   6.781  0.00  0.00    +0.277 C 
ENDBRANCH  24  26
BRANCH  23  28
ATOM     28  O   UNL     1      -2.987 -10.278   8.364  0.00  0.00    -0.488 OA
ATOM     29  C   UNL     1      -3.291 -11.532   7.748  0.00  0.00    +0.277 C 
ENDBRANCH  23  28
BRANCH  22  30
ATOM     30  O   UNL     1      -5.159  -8.717   7.713  0.00  0.00    -0.491 OA
ATOM     31  C   UNL     1      -6.240  -7.864   7.333  0.00  0.00    +0.277 C 
ENDBRANCH  22  30
ENDBRANCH  19  20
ENDBRANCH  17  19
ENDBRANCH   5  15
BRANCH   1  32
ATOM     32  C   UNL     1      -1.361  -1.908  -0.316  0.00  0.00    +0.072 C 
ATOM     33  C   UNL     1      -1.462  -0.506   0.287  0.00  0.00    +0.017 C 
BRANCH  32  34
ATOM     34  C   UNL     1      -0.734  -1.820  -1.709  0.00  0.00    +0.012 C 
BRANCH  34  36
ATOM     35  C   UNL     1       1.336  -1.238  -2.981  0.00  0.00    +0.004 C 
ATOM     36  C   UNL     1       0.709  -1.326  -1.588  0.00  0.00    -0.003 C 
ENDBRANCH  34  36
ENDBRANCH  32  34
ENDBRANCH   1  32
TORSDOF 9
