REMARK  Name = ZINC06193198
REMARK  16 active torsions:
REMARK  status: ('A' for Active; 'I' for Inactive)
REMARK    1  A    between atoms: C_1  and  C_2
REMARK    2  A    between atoms: C_2  and  N_72
REMARK    3  A    between atoms: C_3  and  C_4
REMARK    4  A    between atoms: C_3  and  N_72
REMARK    5  A    between atoms: C_5  and  C_6
REMARK    6  A    between atoms: C_5  and  N_72
REMARK    7  A    between atoms: C_6  and  C_7
REMARK    8  A    between atoms: C_7  and  N_8
REMARK    9  A    between atoms: N_8  and  C_9
REMARK   10  A    between atoms: C_9  and  N_11
REMARK   11  A    between atoms: N_11  and  C_12
REMARK   12  A    between atoms: N_11  and  C_22
REMARK   13  A    between atoms: C_12  and  C_13
REMARK   14  A    between atoms: C_22  and  C_23
REMARK   15  A    between atoms: C_27  and  C_36
REMARK   16  A    between atoms: C_29  and  C_35
REMARK                            x       y       z     vdW  Elec       q    Type
REMARK                         _______ _______ _______ _____ _____    ______ ____
ROOT
ATOM      1  N   UNL     1      -1.614   8.176  -1.312  0.00  0.00    -0.304 N 
ENDROOT
BRANCH   1   2
ATOM      2  C   UNL     1      -2.883   8.344  -1.736  0.00  0.00    +0.133 C 
ATOM      3  S   UNL     1      -4.182   8.183  -0.633  0.00  0.00    -0.019 S 
BRANCH   2   4
ATOM      4  N   UNL     1      -3.128   8.639  -3.028  0.00  0.00    -0.326 N 
ATOM      5  H   UNL     1      -2.392   8.730  -3.652  0.00  0.00    +0.148 HD
BRANCH   4   6
ATOM      6  C   UNL     1      -4.507   8.821  -3.488  0.00  0.00    +0.101 C 
BRANCH   6   7
ATOM      7  C   UNL     1      -4.506   9.145  -4.984  0.00  0.00    +0.000 C 
BRANCH   7   8
ATOM      8  C   UNL     1      -5.946   9.335  -5.465  0.00  0.00    -0.077 C 
BRANCH   8   9
ATOM      9  N   UNL     1      -5.928   9.668  -6.905  0.00  0.00    +0.379 N 
ATOM     10  H   UNL     1      -5.282  10.451  -7.058  0.00  0.00    -0.082 HD
BRANCH   9  12
ATOM     11  C   UNL     1      -6.446   7.339  -7.551  0.00  0.00    -0.017 C 
ATOM     12  C   UNL     1      -5.463   8.503  -7.687  0.00  0.00    -0.082 C 
ENDBRANCH   9  12
BRANCH   9  13
ATOM     13  C   UNL     1      -7.280  10.067  -7.348  0.00  0.00    -0.082 C 
ATOM     14  C   UNL     1      -7.206  10.531  -8.805  0.00  0.00    -0.017 C 
ENDBRANCH   9  13
ENDBRANCH   8   9
ENDBRANCH   7   8
ENDBRANCH   6   7
ENDBRANCH   4   6
ENDBRANCH   2   4
ENDBRANCH   1   2
BRANCH   1  15
ATOM     15  C   UNL     1      -0.497   8.432  -2.225  0.00  0.00    +0.142 C 
BRANCH  15  16
ATOM     16  C   UNL     1      -0.075   7.140  -2.876  0.00  0.00    -0.026 A 
ATOM     17  C   UNL     1       0.818   6.303  -2.233  0.00  0.00    +0.009 A 
ATOM     18  C   UNL     1       1.204   5.114  -2.824  0.00  0.00    +0.050 A 
ATOM     19  C   UNL     1       0.705   4.764  -4.068  0.00  0.00    +0.166 A 
ATOM     20  C   UNL     1      -0.191   5.609  -4.718  0.00  0.00    +0.167 A 
ATOM     21  C   UNL     1      -0.578   6.797  -4.117  0.00  0.00    +0.054 A 
ATOM     22  O   UNL     1      -0.532   5.047  -5.914  0.00  0.00    -0.453 OA
ATOM     23  C   UNL     1       0.475   4.051  -6.171  0.00  0.00    +0.466 C 
ATOM     24  O   UNL     1       0.925   3.672  -4.857  0.00  0.00    -0.453 OA
ENDBRANCH  15  16
ENDBRANCH   1  15
BRANCH   1  25
ATOM     25  C   UNL     1      -1.353   7.739   0.062  0.00  0.00    +0.147 C 
BRANCH  25  26
ATOM     26  C   UNL     1      -1.282   8.942   0.967  0.00  0.00    +0.035 A 
ATOM     27  C   UNL     1      -2.377   9.325   1.668  0.00  0.00    +0.020 A 
ATOM     28  C   UNL     1      -2.275  10.498   2.539  0.00  0.00    -0.001 A 
ATOM     29  C   UNL     1      -3.371  10.942   3.286  0.00  0.00    +0.013 A 
ATOM     30  C   UNL     1      -3.244  12.040   4.088  0.00  0.00    -0.050 A 
ATOM     31  C   UNL     1      -2.036  12.719   4.169  0.00  0.00    +0.008 A 
ATOM     32  C   UNL     1      -0.944  12.303   3.438  0.00  0.00    -0.026 A 
ATOM     33  C   UNL     1      -1.049  11.184   2.618  0.00  0.00    +0.052 A 
ATOM     34  N   UNL     1       0.028  10.742   1.879  0.00  0.00    -0.322 N 
ATOM     35  H   UNL     1       0.899  11.231   1.937  0.00  0.00    +0.169 HD
ATOM     36  C   UNL     1      -0.075   9.665   1.083  0.00  0.00    +0.254 A 
ATOM     37  O   UNL     1       0.898   9.302   0.444  0.00  0.00    -0.268 OA
ATOM     38  C   UNL     1       0.359  13.053   3.531  0.00  0.00    +0.046 C 
ATOM     39  C   UNL     1      -4.425  12.518   4.893  0.00  0.00    +0.044 C 
ENDBRANCH  25  26
ENDBRANCH   1  25
TORSDOF 12
