REMARK  Name = ZINC13996992
REMARK  5 active torsions:
REMARK  status: ('A' for Active; 'I' for Inactive)
REMARK    1  A    between atoms: C_1  and  C_2
REMARK    2  A    between atoms: C_3  and  N_9
REMARK    3  A    between atoms: C_12  and  C_14
REMARK    4  A    between atoms: C_15  and  C_21
REMARK    5  A    between atoms: C_21  and  C_23
REMARK                            x       y       z     vdW  Elec       q    Type
REMARK                         _______ _______ _______ _____ _____    ______ ____
ROOT
ATOM      1  N   UNL     1      -0.192   0.194  -2.280  0.00  0.00    -0.218 N 
ATOM      2  C   UNL     1      -0.489  -0.452  -3.427  0.00  0.00    +0.133 A 
ATOM      3  C   UNL     1      -0.665   0.496  -4.401  0.00  0.00    +0.026 A 
ATOM      4  C   UNL     1      -0.457   1.742  -3.829  0.00  0.00    +0.066 A 
ATOM      5  N   UNL     1      -0.178   1.571  -2.558  0.00  0.00    -0.170 NA
ATOM      6  C   UNL     1      -0.543   3.066  -4.543  0.00  0.00    +0.068 C 
ATOM      7  C   UNL     1      -1.030   0.136  -5.819  0.00  0.00    +0.104 C 
ATOM      8  C   UNL     1      -0.473  -1.260  -6.119  0.00  0.00    +0.112 C 
ATOM      9  C   UNL     1      -0.727  -2.204  -4.979  0.00  0.00    +0.219 C 
ATOM     10  O   UNL     1      -1.024  -3.355  -5.224  0.00  0.00    -0.275 OA
ATOM     11  N   UNL     1      -0.634  -1.813  -3.690  0.00  0.00    -0.270 N 
ATOM     12  H   UNL     1      -0.667  -2.460  -2.968  0.00  0.00    +0.156 HD
ENDROOT
BRANCH   1  15
ATOM     13  C   UNL     1      -1.488   1.281   0.009  0.00  0.00    +0.047 C 
ATOM     14  C   UNL     1      -0.560   0.098   0.107  0.00  0.00    -0.007 A 
ATOM     15  C   UNL     1       0.052  -0.401  -1.035  0.00  0.00    +0.072 A 
ATOM     16  C   UNL     1       0.907  -1.492  -0.941  0.00  0.00    +0.028 A 
ATOM     17  C   UNL     1       1.146  -2.077   0.287  0.00  0.00    +0.004 A 
ATOM     18  C   UNL     1       0.535  -1.579   1.423  0.00  0.00    +0.020 A 
ATOM     19  C   UNL     1      -0.313  -0.488   1.334  0.00  0.00    +0.046 A 
ATOM     20 CL   UNL     1      -1.071   0.140   2.763  0.00  0.00    -0.083 Cl
ENDBRANCH   1  15
BRANCH   7  21
ATOM     21  C   UNL     1      -0.430   1.139  -6.769  0.00  0.00    +0.178 C 
ATOM     22  O   UNL     1       0.776   1.268  -6.833  0.00  0.00    -0.291 OA
BRANCH  21  23
ATOM     23  C   UNL     1      -1.269   1.929  -7.585  0.00  0.00    +0.055 A 
ATOM     24  C   UNL     1      -0.922   2.898  -8.522  0.00  0.00    +0.019 A 
ATOM     25  C   UNL     1      -1.970   3.504  -9.166  0.00  0.00    +0.008 A 
ATOM     26  C   UNL     1      -3.240   3.132  -8.858  0.00  0.00    +0.046 A 
ATOM     27  S   UNL     1      -3.049   1.941  -7.689  0.00  0.00    -0.094 S 
ENDBRANCH  21  23
ENDBRANCH   7  21
TORSDOF 3
