REMARK  Name = ZINC63525818
REMARK  6 active torsions:
REMARK  status: ('A' for Active; 'I' for Inactive)
REMARK    1  A    between atoms: C_1  and  C_2
REMARK    2  A    between atoms: C_2  and  C_3
REMARK    3  A    between atoms: C_3  and  O_4
REMARK    4  A    between atoms: O_4  and  C_5
REMARK    5  A    between atoms: C_10  and  C_11
REMARK    6  A    between atoms: C_14  and  C_24
REMARK                            x       y       z     vdW  Elec       q    Type
REMARK                         _______ _______ _______ _____ _____    ______ ____
ROOT
ATOM      1  C   UNL     1       0.412  -6.361  -1.626  0.00  0.00    +0.112 C 
ATOM      2  C   UNL     1      -0.855  -5.528  -1.624  0.00  0.00    +0.014 C 
ATOM      3  C   UNL     1      -1.437  -4.853  -2.596  0.00  0.00    +0.064 C 
ATOM      4  N   UNL     1      -2.604  -4.317  -2.158  0.00  0.00    -0.157 NA
ATOM      5  N   UNL     1      -2.860  -4.547  -0.969  0.00  0.00    -0.160 NA
ATOM      6  C   UNL     1      -1.742  -5.324  -0.417  0.00  0.00    +0.244 C 
ATOM      7  N   UNL     1      -2.159  -6.633   0.058  0.00  0.00    -0.288 N 
ATOM      8  C   UNL     1      -1.366  -7.511   0.633  0.00  0.00    +0.225 C 
ATOM      9  O   UNL     1      -1.897  -8.570   0.893  0.00  0.00    -0.275 OA
ATOM     10  C   UNL     1       0.043  -7.434   1.015  0.00  0.00    +0.165 C 
ATOM     11  S   UNL     1       1.091  -6.311   0.068  0.00  0.00    -0.139 S 
ATOM     12  C   UNL     1      -0.886  -4.699  -3.990  0.00  0.00    +0.067 C 
ATOM     13  H   UNL     1      -3.090  -6.877  -0.057  0.00  0.00    +0.151 HD
ENDROOT
BRANCH   1  19
ATOM     14  C   UNL     1       2.151  -4.663  -2.243  0.00  0.00    +0.125 A 
ATOM     15  C   UNL     1       3.071  -4.134  -3.137  0.00  0.00    +0.046 A 
ATOM     16  C   UNL     1       3.240  -4.716  -4.378  0.00  0.00    +0.004 A 
ATOM     17  C   UNL     1       2.494  -5.826  -4.730  0.00  0.00    +0.001 A 
ATOM     18  C   UNL     1       1.577  -6.356  -3.841  0.00  0.00    +0.008 A 
ATOM     19  C   UNL     1       1.408  -5.780  -2.597  0.00  0.00    +0.011 A 
BRANCH  14  20
ATOM     20  O   UNL     1       1.982  -4.092  -1.022  0.00  0.00    -0.492 OA
BRANCH  20  21
ATOM     21  C   UNL     1       2.781  -2.945  -0.726  0.00  0.00    +0.229 C 
BRANCH  21  23
ATOM     22  C   UNL     1       3.310  -1.216   0.999  0.00  0.00    +0.007 C 
ATOM     23  C   UNL     1       2.455  -2.445   0.682  0.00  0.00    +0.038 C 
ENDBRANCH  21  23
ENDBRANCH  20  21
ENDBRANCH  14  20
ENDBRANCH   1  19
TORSDOF 4
