REMARK  Name = ZINC39631007
REMARK  11 active torsions:
REMARK  status: ('A' for Active; 'I' for Inactive)
REMARK    1  A    between atoms: C_1  and  C_2
REMARK    2  A    between atoms: C_2  and  C_3
REMARK    3  A    between atoms: C_2  and  C_4
REMARK    4  A    between atoms: C_2  and  C_33
REMARK    5  A    between atoms: C_4  and  N_5
REMARK    6  A    between atoms: C_6  and  C_8
REMARK    7  A    between atoms: C_19  and  C_21
REMARK    8  A    between atoms: C_24  and  C_26
REMARK    9  A    between atoms: C_33  and  N_34
REMARK   10  A    between atoms: N_34  and  C_35
REMARK   11  A    between atoms: N_34  and  C_36
REMARK                            x       y       z     vdW  Elec       q    Type
REMARK                         _______ _______ _______ _____ _____    ______ ____
ROOT
ATOM      1  C   UNL     1      -5.553   0.270   2.136  0.00  0.00    +0.100 C 
ATOM      2  C   UNL     1      -5.249  -0.192   3.579  0.00  0.00    +0.121 C 
ATOM      3  N   UNL     1      -6.580  -0.466   4.172  0.00  0.00    -0.294 N 
ATOM      4  C   UNL     1      -7.347  -1.105   3.076  0.00  0.00    +0.115 C 
ATOM      5  C   UNL     1      -6.930  -0.332   1.810  0.00  0.00    -0.004 C 
ATOM      6  C   UNL     1      -6.822  -1.284   0.622  0.00  0.00    -0.010 C 
ATOM      7  C   UNL     1      -8.213  -1.824   0.279  0.00  0.00    -0.082 C 
ATOM      8  N   UNL     1      -9.109  -0.707  -0.043  0.00  0.00    +0.379 N 
ATOM      9  C   UNL     1      -9.280   0.153   1.134  0.00  0.00    -0.082 C 
ATOM     10  C   UNL     1      -7.934   0.777   1.513  0.00  0.00    -0.010 C 
ATOM     11  C   UNL     1      -6.998  -0.195   5.424  0.00  0.00    +0.282 C 
ATOM     12  O   UNL     1      -8.130  -0.484   5.764  0.00  0.00    -0.267 OA
ATOM     13  H   UNL     1      -8.713  -0.167  -0.797  0.00  0.00    -0.086 HD
ATOM     14  H   UNL     1     -10.007  -1.069  -0.327  0.00  0.00    -0.086 HD
ENDROOT
BRANCH  11  15
ATOM     15  C   UNL     1      -6.089   0.448   6.376  0.00  0.00    +0.190 A 
ATOM     16  C   UNL     1      -6.384   0.775   7.682  0.00  0.00    +0.055 A 
ATOM     17  C   UNL     1      -5.237   1.365   8.220  0.00  0.00    +0.051 A 
ATOM     18  C   UNL     1      -4.292   1.378   7.234  0.00  0.00    +0.139 A 
ATOM     19  O   UNL     1      -4.814   0.818   6.130  0.00  0.00    -0.450 OA
BRANCH  18  20
ATOM     20  C   UNL     1      -2.922   1.913   7.361  0.00  0.00    +0.052 A 
ATOM     21  C   UNL     1      -2.712   3.188   7.890  0.00  0.00    +0.014 A 
ATOM     22  C   UNL     1      -1.430   3.682   8.006  0.00  0.00    +0.001 A 
ATOM     23  C   UNL     1      -0.350   2.917   7.601  0.00  0.00    +0.003 A 
ATOM     24  C   UNL     1      -0.547   1.653   7.076  0.00  0.00    +0.039 A 
ATOM     25  C   UNL     1      -1.826   1.142   6.959  0.00  0.00    +0.134 A 
ATOM     26  F   UNL     1      -2.018  -0.096   6.452  0.00  0.00    -0.205 F 
ENDBRANCH  18  20
ENDBRANCH  11  15
BRANCH   1  28
ATOM     27  N   UNL     1      -4.270   0.382   0.024  0.00  0.00    -0.315 N 
ATOM     28  C   UNL     1      -4.510  -0.258   1.185  0.00  0.00    +0.218 C 
ATOM     29  O   UNL     1      -3.887  -1.260   1.465  0.00  0.00    -0.275 OA
ATOM     30  H   UNL     1      -4.768   1.184  -0.200  0.00  0.00    +0.149 HD
BRANCH  27  31
ATOM     31  C   UNL     1      -3.256  -0.132  -0.900  0.00  0.00    +0.108 C 
BRANCH  31  33
ATOM     32  C   UNL     1      -4.544   0.796  -2.829  0.00  0.00    +0.010 C 
ATOM     33  C   UNL     1      -3.183   0.773  -2.131  0.00  0.00    -0.034 C 
ATOM     34  C   UNL     1      -2.807   2.192  -1.700  0.00  0.00    +0.010 C 
BRANCH  33  35
ATOM     35  C   UNL     1      -2.124   0.236  -3.097  0.00  0.00    -0.072 C 
BRANCH  35  36
ATOM     36  N   UNL     1      -2.042   1.114  -4.272  0.00  0.00    +0.376 N 
ATOM     37  C   UNL     1      -1.122   2.224  -3.990  0.00  0.00    -0.097 C 
ATOM     38  C   UNL     1      -1.547   0.347  -5.422  0.00  0.00    -0.097 C 
ATOM     39  H   UNL     1      -2.958   1.482  -4.481  0.00  0.00    -0.083 HD
ENDBRANCH  35  36
ENDBRANCH  33  35
ENDBRANCH  31  33
ENDBRANCH  27  31
ENDBRANCH   1  28
TORSDOF 7
