REMARK  Name = ZINC56229254
REMARK  6 active torsions:
REMARK  status: ('A' for Active; 'I' for Inactive)
REMARK    1  A    between atoms: C_1  and  C_2
REMARK    2  A    between atoms: C_8  and  C_10
REMARK    3  A    between atoms: C_10  and  C_12
REMARK    4  A    between atoms: C_10  and  S_13
REMARK    5  A    between atoms: S_13  and  C_14
REMARK    6  A    between atoms: C_14  and  C_15
REMARK                            x       y       z     vdW  Elec       q    Type
REMARK                         _______ _______ _______ _____ _____    ______ ____
ROOT
ATOM      1  C   UNL     1      -0.084  -5.064   5.712  0.00  0.00    +0.146 C 
ENDROOT
BRANCH   1   2
ATOM      2  C   UNL     1      -0.836  -5.667   6.870  0.00  0.00    +0.146 A 
ATOM      3  N   UNL     1      -1.320  -4.886   7.820  0.00  0.00    -0.199 NA
ATOM      4  C   UNL     1      -1.985  -5.415   8.844  0.00  0.00    +0.217 A 
ATOM      5  N   UNL     1      -2.162  -6.730   8.911  0.00  0.00    -0.181 NA
ATOM      6  C   UNL     1      -1.674  -7.512   7.954  0.00  0.00    +0.217 A 
ATOM      7  N   UNL     1      -1.014  -6.975   6.930  0.00  0.00    -0.199 NA
ATOM      8  N   UNL     1      -1.855  -8.879   8.019  0.00  0.00    -0.327 N 
ATOM      9  N   UNL     1      -2.490  -4.599   9.836  0.00  0.00    -0.327 N 
ATOM     10  H   UNL     1      -2.339  -9.269   8.763  0.00  0.00    +0.145 HD
ATOM     11  H   UNL     1      -1.499  -9.449   7.320  0.00  0.00    +0.145 HD
ATOM     12  H   UNL     1      -2.360  -3.639   9.787  0.00  0.00    +0.145 HD
ATOM     13  H   UNL     1      -2.974  -4.985  10.582  0.00  0.00    +0.145 HD
ENDBRANCH   1   2
BRANCH   1  14
ATOM     14  S   UNL     1      -1.247  -4.662   4.379  0.00  0.00    -0.140 S 
BRANCH  14  15
ATOM     15  C   UNL     1      -0.198  -3.955   3.079  0.00  0.00    +0.130 C 
ATOM     16  C   UNL     1       0.760  -5.028   2.557  0.00  0.00    +0.029 C 
BRANCH  15  24
ATOM     17  C   UNL     1      -0.019   1.526   0.010  0.00  0.00    +0.007 C 
ATOM     18  C   UNL     1       0.002  -0.004   0.002  0.00  0.00    -0.011 C 
ATOM     19  C   UNL     1      -1.434  -0.533   0.011  0.00  0.00    +0.022 C 
ATOM     20  C   UNL     1      -1.409  -2.065  -0.032  0.00  0.00    +0.108 C 
ATOM     21  N   UNL     1      -0.578  -2.556   1.075  0.00  0.00    -0.301 N 
ATOM     22  C   UNL     1       0.791  -2.042   1.212  0.00  0.00    +0.108 C 
ATOM     23  C   UNL     1       0.742  -0.511   1.242  0.00  0.00    +0.022 C 
ATOM     24  C   UNL     1      -1.063  -3.461   1.948  0.00  0.00    +0.228 C 
ATOM     25  O   UNL     1      -2.195  -3.878   1.824  0.00  0.00    -0.274 OA
ENDBRANCH  15  24
ENDBRANCH  14  15
ENDBRANCH   1  14
TORSDOF 4
