REMARK  Name = ZINC39710936
REMARK  13 active torsions:
REMARK  status: ('A' for Active; 'I' for Inactive)
REMARK    1  A    between atoms: C_1  and  C_2
REMARK    2  A    between atoms: C_2  and  C_3
REMARK    3  A    between atoms: C_3  and  C_4
REMARK    4  A    between atoms: C_3  and  C_5
REMARK    5  A    between atoms: C_3  and  N_6
REMARK    6  A    between atoms: C_7  and  C_12
REMARK    7  A    between atoms: C_12  and  C_14
REMARK    8  A    between atoms: C_12  and  N_27
REMARK    9  A    between atoms: C_21  and  C_26
REMARK   10  A    between atoms: N_27  and  C_28
REMARK   11  A    between atoms: N_27  and  C_36
REMARK   12  A    between atoms: C_28  and  C_29
REMARK   13  A    between atoms: C_36  and  C_37
REMARK                            x       y       z     vdW  Elec       q    Type
REMARK                         _______ _______ _______ _____ _____    ______ ____
ROOT
ATOM      1  C   UNL     1      -4.173  -1.402   0.989  0.00  0.00    -0.008 C 
ENDROOT
BRANCH   1   2
ATOM      2  C   UNL     1      -4.205  -1.210  -0.529  0.00  0.00    +0.088 C 
ATOM      3  C   UNL     1      -4.990   0.053  -0.821  0.00  0.00    -0.006 C 
ATOM      4  C   UNL     1      -6.087  -0.064  -1.623  0.00  0.00    -0.007 A 
ATOM      5  C   UNL     1      -6.902   1.105  -1.956  0.00  0.00    +0.009 A 
ATOM      6  C   UNL     1      -7.986   0.940  -2.758  0.00  0.00    +0.001 A 
ATOM      7  C   UNL     1      -8.331  -0.313  -3.264  0.00  0.00    +0.005 A 
ATOM      8  C   UNL     1      -7.616  -1.436  -2.992  0.00  0.00    -0.029 A 
ATOM      9  C   UNL     1      -6.475  -1.375  -2.172  0.00  0.00    +0.043 A 
ATOM     10  N   UNL     1      -5.780  -2.483  -1.913  0.00  0.00    -0.284 N 
ATOM     11  C   UNL     1      -4.702  -2.496  -1.149  0.00  0.00    +0.223 C 
ATOM     12  O   UNL     1      -4.110  -3.540  -0.948  0.00  0.00    -0.275 OA
ATOM     13  C   UNL     1      -8.049  -2.757  -3.574  0.00  0.00    +0.045 C 
ATOM     14  H   UNL     1      -6.082  -3.319  -2.302  0.00  0.00    +0.155 HD
ENDBRANCH   1   2
BRANCH   1  16
ATOM     15  N   UNL     1      -2.410  -3.117   0.755  0.00  0.00    -0.182 NA
ATOM     16  C   UNL     1      -3.750  -2.837   1.313  0.00  0.00    +0.205 C 
ATOM     17  N   UNL     1      -3.590  -3.012   2.763  0.00  0.00    -0.152 NA
ATOM     18  N   UNL     1      -2.421  -3.324   3.000  0.00  0.00    -0.070 NA
ATOM     19  N   UNL     1      -1.639  -3.411   1.849  0.00  0.00    -0.179 N 
ATOM     20  H   UNL     1      -0.697  -3.643   1.827  0.00  0.00    +0.191 HD
BRANCH  15  21
ATOM     21  C   UNL     1      -1.883  -1.948   0.038  0.00  0.00    +0.037 C 
ATOM     22  C   UNL     1      -2.447  -0.670   0.662  0.00  0.00    +0.029 C 
ATOM     23  C   UNL     1      -2.297  -2.024  -1.433  0.00  0.00    +0.029 C 
BRANCH  21  25
ATOM     24  C   UNL     1       0.185  -0.655  -0.503  0.00  0.00    +0.006 C 
ATOM     25  C   UNL     1      -0.356  -1.934   0.138  0.00  0.00    +0.020 C 
ENDBRANCH  21  25
ENDBRANCH  15  21
ENDBRANCH   1  16
BRANCH   1  26
ATOM     26  N   UNL     1      -5.511  -1.150   1.542  0.00  0.00    +0.392 N 
ATOM     27  H   UNL     1      -5.866  -0.278   1.179  0.00  0.00    -0.080 HD
BRANCH  26  28
ATOM     28  C   UNL     1      -6.413  -2.244   1.160  0.00  0.00    -0.042 C 
BRANCH  28  29
ATOM     29  C   UNL     1      -7.828  -1.881   1.532  0.00  0.00    -0.064 A 
ATOM     30  C   UNL     1      -8.321  -2.212   2.780  0.00  0.00    +0.003 A 
ATOM     31  C   UNL     1      -9.619  -1.879   3.121  0.00  0.00    +0.020 A 
ATOM     32  C   UNL     1     -10.424  -1.215   2.213  0.00  0.00    +0.041 A 
ATOM     33  C   UNL     1      -9.930  -0.884   0.964  0.00  0.00    +0.020 A 
ATOM     34  C   UNL     1      -8.630  -1.213   0.626  0.00  0.00    +0.003 A 
ATOM     35 CL   UNL     1     -12.054  -0.798   2.640  0.00  0.00    -0.084 Cl
ENDBRANCH  28  29
ENDBRANCH  26  28
BRANCH  26  36
ATOM     36  C   UNL     1      -5.428  -1.072   3.007  0.00  0.00    -0.002 C 
BRANCH  36  37
ATOM     37  C   UNL     1      -4.696   0.185   3.402  0.00  0.00    +0.089 A 
ATOM     38  C   UNL     1      -5.267   1.358   3.729  0.00  0.00    +0.042 A 
ATOM     39  C   UNL     1      -4.216   2.255   4.030  0.00  0.00    +0.041 A 
ATOM     40  C   UNL     1      -3.066   1.577   3.868  0.00  0.00    +0.195 A 
ATOM     41  O   UNL     1      -3.363   0.321   3.494  0.00  0.00    -0.470 OA
ENDBRANCH  36  37
ENDBRANCH  26  36
ENDBRANCH   1  26
TORSDOF 9
