REMARK  Name = ZINC19857957
REMARK  15 active torsions:
REMARK  status: ('A' for Active; 'I' for Inactive)
REMARK    1  A    between atoms: C_1  and  C_2
REMARK    2  A    between atoms: C_3  and  C_37
REMARK    3  A    between atoms: C_4  and  C_25
REMARK    4  A    between atoms: C_10  and  C_20
REMARK    5  A    between atoms: C_12  and  C_16
REMARK    6  A    between atoms: C_16  and  O_18
REMARK    7  A    between atoms: O_18  and  C_19
REMARK    8  A    between atoms: C_27  and  O_35
REMARK    9  A    between atoms: C_28  and  O_33
REMARK   10  A    between atoms: C_29  and  O_31
REMARK   11  A    between atoms: O_31  and  C_32
REMARK   12  A    between atoms: O_33  and  C_34
REMARK   13  A    between atoms: O_35  and  C_36
REMARK   14  A    between atoms: C_37  and  O_39
REMARK   15  A    between atoms: O_39  and  C_40
REMARK                            x       y       z     vdW  Elec       q    Type
REMARK                         _______ _______ _______ _____ _____    ______ ____
ROOT
ATOM      1  C   UNL     1      -0.542   3.043  -0.174  0.00  0.00    +0.061 C 
ATOM      2  C   UNL     1      -1.154   3.067   1.203  0.00  0.00    +0.016 C 
ATOM      3  C   UNL     1      -1.403   4.245   1.802  0.00  0.00    +0.065 C 
ATOM      4  C   UNL     1      -2.008   4.307   3.174  0.00  0.00    +0.092 C 
ATOM      5  C   UNL     1      -2.644   2.992   3.547  0.00  0.00    +0.025 C 
ATOM      6  C   UNL     1      -2.338   1.863   2.875  0.00  0.00    +0.016 C 
ATOM      7  N   UNL     1      -1.446   1.892   1.837  0.00  0.00    -0.321 N 
ATOM      8  C   UNL     1      -2.970   0.543   3.244  0.00  0.00    +0.061 C 
ATOM      9  C   UNL     1      -3.279   0.523   4.742  0.00  0.00    +0.053 C 
ATOM     10  C   UNL     1      -4.212   1.696   5.062  0.00  0.00    +0.176 C 
ATOM     11  C   UNL     1      -3.558   2.976   4.616  0.00  0.00    +0.176 C 
ATOM     12  O   UNL     1      -3.825   4.013   5.188  0.00  0.00    -0.291 OA
ATOM     13  H   UNL     1      -0.962   0.958   1.514  0.00  0.00    +0.152 HD
ENDROOT
BRANCH   4  14
ATOM     14  C   UNL     1      -0.926   4.635   4.171  0.00  0.00    -0.028 A 
ATOM     15  C   UNL     1       0.141   3.772   4.339  0.00  0.00    +0.054 A 
ATOM     16  C   UNL     1       1.141   4.073   5.251  0.00  0.00    +0.165 A 
ATOM     17  C   UNL     1       1.064   5.238   6.005  0.00  0.00    +0.204 A 
ATOM     18  C   UNL     1      -0.013   6.100   5.837  0.00  0.00    +0.165 A 
ATOM     19  C   UNL     1      -1.007   5.795   4.918  0.00  0.00    +0.054 A 
BRANCH  18  20
ATOM     20  O   UNL     1      -0.093   7.242   6.572  0.00  0.00    -0.491 OA
ATOM     21  C   UNL     1      -1.229   8.080   6.347  0.00  0.00    +0.277 C 
ENDBRANCH  18  20
BRANCH  17  22
ATOM     22  O   UNL     1       2.041   5.535   6.904  0.00  0.00    -0.488 OA
ATOM     23  C   UNL     1       1.864   5.050   8.237  0.00  0.00    +0.277 C 
ENDBRANCH  17  22
BRANCH  16  24
ATOM     24  O   UNL     1       2.192   3.226   5.412  0.00  0.00    -0.491 OA
ATOM     25  C   UNL     1       2.206   2.048   4.604  0.00  0.00    +0.277 C 
ENDBRANCH  16  24
ENDBRANCH   4  14
BRANCH   9  26
ATOM     26  C   UNL     1      -3.955  -0.774   5.106  0.00  0.00    -0.006 A 
ATOM     27  C   UNL     1      -3.648  -1.648   6.096  0.00  0.00    +0.011 A 
ATOM     28  C   UNL     1      -4.418  -2.786   6.248  0.00  0.00    +0.008 A 
ATOM     29  C   UNL     1      -5.451  -2.999   5.397  0.00  0.00    +0.045 A 
ATOM     30  S   UNL     1      -5.363  -1.562   4.342  0.00  0.00    -0.101 S 
ENDBRANCH   9  26
BRANCH  10  31
ATOM     31  C   UNL     1      -5.518   1.516   4.332  0.00  0.00    +0.318 C 
ATOM     32  O   UNL     1      -5.597   1.791   3.158  0.00  0.00    -0.250 OA
BRANCH  31  33
ATOM     33  O   UNL     1      -6.593   1.050   4.986  0.00  0.00    -0.467 OA
ATOM     34  C   UNL     1      -7.818   0.901   4.220  0.00  0.00    +0.280 C 
ENDBRANCH  31  33
ENDBRANCH  10  31
BRANCH   3  35
ATOM     35  C   UNL     1      -1.094   5.447   1.125  0.00  0.00    +0.337 C 
ATOM     36  O   UNL     1      -0.607   5.410   0.010  0.00  0.00    -0.245 OA
BRANCH  35  37
ATOM     37  O   UNL     1      -1.339   6.636   1.715  0.00  0.00    -0.465 OA
ATOM     38  C   UNL     1      -1.002   7.810   0.973  0.00  0.00    +0.280 C 
ENDBRANCH  35  37
ENDBRANCH   3  35
TORSDOF 9
