REMARK  Name = ZINC03839971
REMARK  8 active torsions:
REMARK  status: ('A' for Active; 'I' for Inactive)
REMARK    1  A    between atoms: C_1  and  C_2
REMARK    2  A    between atoms: N_12  and  C_13
REMARK    3  A    between atoms: C_15  and  O_21
REMARK    4  A    between atoms: C_17  and  O_19
REMARK    5  A    between atoms: O_19  and  C_20
REMARK    6  A    between atoms: O_21  and  C_22
REMARK    7  A    between atoms: C_24  and  C_39
REMARK    8  A    between atoms: C_33  and  C_38
REMARK                            x       y       z     vdW  Elec       q    Type
REMARK                         _______ _______ _______ _____ _____    ______ ____
ROOT
ATOM      1  C   UNL     1       3.740   3.575  -0.254  0.00  0.00    +0.014 C 
ATOM      2  C   UNL     1       4.173   2.283   0.439  0.00  0.00    +0.043 C 
ATOM      3  C   UNL     1       5.693   2.223   0.495  0.00  0.00    +0.057 A 
ATOM      4  C   UNL     1       6.338   1.054   0.250  0.00  0.00    +0.015 A 
ATOM      5  S   UNL     1       8.043   1.501   0.444  0.00  0.00    -0.057 S 
ATOM      6  C   UNL     1       7.779   3.176   0.826  0.00  0.00    +0.166 A 
ATOM      7  N   UNL     1       6.467   3.268   0.780  0.00  0.00    -0.229 NA
ATOM      8  N   UNL     1       8.715   4.166   1.107  0.00  0.00    -0.248 N 
ATOM      9  C   UNL     1      10.030   3.870   1.105  0.00  0.00    +0.310 C 
ATOM     10  O   UNL     1      10.398   2.738   0.857  0.00  0.00    -0.252 OA
ATOM     11  N   UNL     1      10.936   4.829   1.377  0.00  0.00    -0.269 N 
ATOM     12  C   UNL     1       5.736  -0.263  -0.094  0.00  0.00    +0.051 C 
ATOM     13  C   UNL     1       4.230  -0.222   0.229  0.00  0.00    -0.021 C 
ATOM     14  C   UNL     1       3.645   1.078  -0.350  0.00  0.00    +0.045 C 
ATOM     15  C   UNL     1       2.139   1.015  -0.184  0.00  0.00    +0.184 C 
ATOM     16  C   UNL     1       1.615  -0.172  -1.042  0.00  0.00    +0.044 C 
ATOM     17  C   UNL     1       2.055  -1.431  -0.315  0.00  0.00    +0.008 C 
ATOM     18  C   UNL     1       3.588  -1.465  -0.381  0.00  0.00    +0.008 C 
ATOM     19  C   UNL     1       0.114   0.137  -1.005  0.00  0.00    +0.101 C 
ATOM     20  C   UNL     1       0.072   1.646  -0.780  0.00  0.00    +0.311 C 
ATOM     21  O   UNL     1      -0.930   2.317  -0.704  0.00  0.00    -0.251 OA
ATOM     22  O   UNL     1       1.349   2.114  -0.685  0.00  0.00    -0.461 OA
ATOM     23  C   UNL     1      -0.546  -0.230  -2.335  0.00  0.00    +0.019 C 
ATOM     24  C   UNL     1       4.034  -0.238   1.746  0.00  0.00    +0.012 C 
ATOM     25  H   UNL     1       8.421   5.069   1.305  0.00  0.00    +0.158 HD
ATOM     26  H   UNL     1      10.649   5.748   1.499  0.00  0.00    +0.156 HD
ENDROOT
BRANCH  11  27
ATOM     27  C   UNL     1      12.292   4.500   1.485  0.00  0.00    +0.042 A 
ATOM     28  C   UNL     1      12.669   3.267   1.997  0.00  0.00    +0.069 A 
ATOM     29  C   UNL     1      14.012   2.939   2.099  0.00  0.00    +0.125 A 
ATOM     30  C   UNL     1      14.980   3.849   1.698  0.00  0.00    +0.091 A 
ATOM     31  C   UNL     1      14.604   5.083   1.190  0.00  0.00    +0.125 A 
ATOM     32  C   UNL     1      13.261   5.410   1.083  0.00  0.00    +0.069 A 
BRANCH  31  33
ATOM     33  O   UNL     1      15.553   5.973   0.798  0.00  0.00    -0.495 OA
ATOM     34  C   UNL     1      16.917   5.571   0.936  0.00  0.00    +0.277 C 
ENDBRANCH  31  33
BRANCH  29  35
ATOM     35  O   UNL     1      14.381   1.730   2.597  0.00  0.00    -0.495 OA
ATOM     36  C   UNL     1      15.782   1.462   2.679  0.00  0.00    +0.277 C 
ENDBRANCH  29  35
ENDBRANCH  11  27
TORSDOF 3
