REMARK  Name = ZINC14682602
REMARK  10 active torsions:
REMARK  status: ('A' for Active; 'I' for Inactive)
REMARK    1  A    between atoms: C_1  and  C_2
REMARK    2  A    between atoms: C_2  and  C_3
REMARK    3  A    between atoms: C_7  and  C_31
REMARK    4  A    between atoms: C_8  and  N_9
REMARK    5  A    between atoms: C_10  and  C_12
REMARK    6  A    between atoms: C_12  and  S_13
REMARK    7  A    between atoms: S_13  and  C_14
REMARK    8  A    between atoms: C_17  and  C_26
REMARK    9  A    between atoms: N_18  and  C_19
REMARK   10  A    between atoms: C_19  and  C_20
REMARK                            x       y       z     vdW  Elec       q    Type
REMARK                         _______ _______ _______ _____ _____    ______ ____
ROOT
ATOM      1  C   UNL     1      -5.234   0.733   2.199  0.00  0.00    +0.193 A 
ATOM      2  N   UNL     1      -4.581   0.524   3.320  0.00  0.00    -0.122 NA
ATOM      3  N   UNL     1      -4.002  -0.623   3.288  0.00  0.00    -0.125 NA
ATOM      4  C   UNL     1      -4.255  -1.221   2.145  0.00  0.00    +0.201 A 
ATOM      5  N   UNL     1      -5.048  -0.367   1.410  0.00  0.00    -0.295 N 
ENDROOT
BRANCH   4   6
ATOM      6  C   UNL     1      -3.779  -2.549   1.729  0.00  0.00    +0.172 A 
ATOM      7  C   UNL     1      -2.775  -3.260   2.316  0.00  0.00    +0.053 A 
ATOM      8  C   UNL     1      -2.659  -4.466   1.598  0.00  0.00    +0.042 A 
ATOM      9  C   UNL     1      -3.580  -4.432   0.615  0.00  0.00    +0.196 A 
ATOM     10  O   UNL     1      -4.255  -3.273   0.696  0.00  0.00    -0.460 OA
ENDBRANCH   4   6
BRANCH   1  11
ATOM     11  S   UNL     1      -6.176   2.165   1.790  0.00  0.00    -0.077 S 
BRANCH  11  12
ATOM     12  C   UNL     1      -5.945   3.135   3.300  0.00  0.00    +0.173 C 
BRANCH  12  14
ATOM     13  N   UNL     1      -6.653   5.333   4.186  0.00  0.00    -0.284 N 
ATOM     14  C   UNL     1      -6.683   4.443   3.175  0.00  0.00    +0.228 C 
ATOM     15  O   UNL     1      -7.305   4.694   2.164  0.00  0.00    -0.275 OA
ATOM     16  H   UNL     1      -6.200   5.111   5.015  0.00  0.00    +0.155 HD
BRANCH  13  22
ATOM     17  C   UNL     1      -8.182   7.018   4.996  0.00  0.00    -0.026 A 
ATOM     18  C   UNL     1      -8.795   8.248   4.849  0.00  0.00    +0.005 A 
ATOM     19  C   UNL     1      -8.506   9.040   3.753  0.00  0.00    +0.001 A 
ATOM     20  C   UNL     1      -7.603   8.604   2.800  0.00  0.00    +0.005 A 
ATOM     21  C   UNL     1      -6.983   7.379   2.944  0.00  0.00    -0.029 A 
ATOM     22  C   UNL     1      -7.276   6.578   4.041  0.00  0.00    +0.040 A 
ATOM     23  C   UNL     1      -5.995   6.908   1.909  0.00  0.00    +0.045 C 
BRANCH  17  25
ATOM     24  C   UNL     1      -7.455   6.396   7.283  0.00  0.00    +0.009 C 
ATOM     25  C   UNL     1      -8.499   6.155   6.190  0.00  0.00    +0.033 C 
ENDBRANCH  17  25
ENDBRANCH  13  22
ENDBRANCH  12  14
ENDBRANCH  11  12
ENDBRANCH   1  11
BRANCH   5  26
ATOM     26  C   UNL     1      -5.584  -0.594   0.066  0.00  0.00    +0.161 C 
BRANCH  26  27
ATOM     27  C   UNL     1      -4.609  -0.071  -0.959  0.00  0.00    -0.028 A 
ATOM     28  C   UNL     1      -3.625  -0.901  -1.462  0.00  0.00    +0.005 A 
ATOM     29  C   UNL     1      -2.735  -0.424  -2.406  0.00  0.00    +0.000 A 
ATOM     30  C   UNL     1      -2.825   0.885  -2.842  0.00  0.00    +0.000 A 
ATOM     31  C   UNL     1      -3.806   1.716  -2.334  0.00  0.00    +0.000 A 
ATOM     32  C   UNL     1      -4.696   1.239  -1.391  0.00  0.00    +0.005 A 
ENDBRANCH  26  27
ENDBRANCH   5  26
TORSDOF 8
