REMARK  Name = ZINC32094922
REMARK  8 active torsions:
REMARK  status: ('A' for Active; 'I' for Inactive)
REMARK    1  A    between atoms: C_1  and  C_2
REMARK    2  A    between atoms: C_2  and  C_3
REMARK    3  A    between atoms: C_2  and  C_4
REMARK    4  A    between atoms: C_12  and  O_27
REMARK    5  A    between atoms: N_18  and  C_19
REMARK    6  A    between atoms: C_22  and  O_25
REMARK    7  A    between atoms: O_25  and  C_26
REMARK    8  A    between atoms: N_30  and  C_31
REMARK                            x       y       z     vdW  Elec       q    Type
REMARK                         _______ _______ _______ _____ _____    ______ ____
ROOT
ATOM      1  C   UNL     1       0.731  -0.503   1.223  0.00  0.00    -0.044 A 
ATOM      2  C   UNL     1       2.048  -0.140   1.419  0.00  0.00    +0.006 A 
ATOM      3  C   UNL     1       2.770  -0.567   2.522  0.00  0.00    +0.024 A 
ATOM      4  C   UNL     1       2.111  -1.388   3.439  0.00  0.00    +0.040 A 
ATOM      5  C   UNL     1       0.774  -1.750   3.228  0.00  0.00    -0.006 A 
ATOM      6  C   UNL     1       0.061  -1.316   2.131  0.00  0.00    +0.010 A 
ATOM      7  C   UNL     1       0.391  -2.619   4.381  0.00  0.00    +0.112 C 
ATOM      8  C   UNL     1      -0.758  -2.008   5.181  0.00  0.00    +0.121 C 
ATOM      9  C   UNL     1      -2.087  -2.306   4.548  0.00  0.00    +0.191 C 
ATOM     10  N   UNL     1      -2.341  -3.395   3.887  0.00  0.00    -0.197 NA
ATOM     11  C   UNL     1      -1.350  -4.313   3.701  0.00  0.00    +0.164 A 
ATOM     12  C   UNL     1      -0.015  -3.992   3.923  0.00  0.00    +0.036 A 
ATOM     13  C   UNL     1       0.741  -5.116   3.650  0.00  0.00    +0.142 A 
ATOM     14  N   UNL     1      -0.066  -6.079   3.268  0.00  0.00    -0.173 NA
ATOM     15  N   UNL     1      -1.385  -5.598   3.282  0.00  0.00    -0.214 N 
ATOM     16  C   UNL     1       1.640  -2.694   5.231  0.00  0.00    +0.235 C 
ATOM     17  O   UNL     1       1.770  -3.304   6.271  0.00  0.00    -0.274 OA
ATOM     18  N   UNL     1       2.583  -1.952   4.611  0.00  0.00    -0.273 N 
ATOM     19  C   UNL     1       3.944  -1.767   5.119  0.00  0.00    +0.138 C 
ENDROOT
BRANCH  15  20
ATOM     20  C   UNL     1      -2.533  -6.320   2.926  0.00  0.00    +0.068 A 
ATOM     21  C   UNL     1      -3.729  -6.097   3.594  0.00  0.00    +0.031 A 
ATOM     22  C   UNL     1      -4.859  -6.809   3.243  0.00  0.00    +0.048 A 
ATOM     23  C   UNL     1      -4.799  -7.748   2.224  0.00  0.00    +0.120 A 
ATOM     24  C   UNL     1      -3.603  -7.972   1.556  0.00  0.00    +0.048 A 
ATOM     25  C   UNL     1      -2.475  -7.256   1.901  0.00  0.00    +0.031 A 
BRANCH  23  26
ATOM     26  O   UNL     1      -5.912  -8.448   1.879  0.00  0.00    -0.495 OA
ATOM     27  C   UNL     1      -5.777  -9.399   0.821  0.00  0.00    +0.277 C 
ENDBRANCH  23  26
ENDBRANCH  15  20
BRANCH   1  29
ATOM     28  C   UNL     1      -0.019   1.526   0.010  0.00  0.00    +0.012 C 
ATOM     29  C   UNL     1       0.002  -0.004   0.002  0.00  0.00    +0.013 C 
ATOM     30  C   UNL     1       0.718  -0.497  -1.257  0.00  0.00    +0.012 C 
ENDBRANCH   1  29
BRANCH   9  31
ATOM     31  O   UNL     1      -3.072  -1.392   4.673  0.00  0.00    -0.495 OA
ATOM     32  H   UNL     1      -3.900  -1.645   4.244  0.00  0.00    +0.293 HD
ENDBRANCH   9  31
TORSDOF 4
