REMARK  Name = ZINC36302282
REMARK  15 active torsions:
REMARK  status: ('A' for Active; 'I' for Inactive)
REMARK    1  A    between atoms: C_1  and  C_2
REMARK    2  A    between atoms: C_3  and  C_22
REMARK    3  A    between atoms: C_4  and  O_13
REMARK    4  A    between atoms: N_5  and  C_7
REMARK    5  A    between atoms: O_13  and  C_14
REMARK    6  A    between atoms: C_19  and  O_20
REMARK    7  A    between atoms: O_20  and  C_21
REMARK    8  A    between atoms: C_22  and  N_23
REMARK    9  A    between atoms: N_23  and  C_24
REMARK   10  A    between atoms: N_23  and  C_28
REMARK   11  A    between atoms: C_24  and  C_25
REMARK   12  A    between atoms: C_28  and  C_29
REMARK   13  A    between atoms: C_29  and  C_31
REMARK   14  A    between atoms: C_29  and  O_38
REMARK   15  A    between atoms: C_31  and  C_32
REMARK                            x       y       z     vdW  Elec       q    Type
REMARK                         _______ _______ _______ _____ _____    ______ ____
ROOT
ATOM      1  C   UNL     1       1.269   0.712   0.822  0.00  0.00    +0.068 C 
ATOM      2  C   UNL     1       0.669  -0.625   0.471  0.00  0.00    +0.065 A 
ATOM      3  C   UNL     1       0.173  -0.994  -0.783  0.00  0.00    +0.021 A 
ATOM      4  C   UNL     1      -0.279  -2.273  -0.693  0.00  0.00    +0.225 A 
ATOM      5  N   UNL     1      -0.071  -2.691   0.584  0.00  0.00    -0.200 N 
ATOM      6  N   UNL     1       0.529  -1.638   1.287  0.00  0.00    -0.168 NA
ENDROOT
BRANCH   5   7
ATOM      7  C   UNL     1      -0.395  -3.952   1.104  0.00  0.00    +0.069 A 
ATOM      8  C   UNL     1      -1.603  -4.551   0.773  0.00  0.00    +0.028 A 
ATOM      9  C   UNL     1      -1.920  -5.794   1.286  0.00  0.00    +0.002 A 
ATOM     10  C   UNL     1      -1.034  -6.441   2.128  0.00  0.00    +0.000 A 
ATOM     11  C   UNL     1       0.169  -5.847   2.460  0.00  0.00    +0.002 A 
ATOM     12  C   UNL     1       0.494  -4.607   1.945  0.00  0.00    +0.028 A 
ENDBRANCH   5   7
BRANCH   4  13
ATOM     13  O   UNL     1      -0.836  -3.000  -1.695  0.00  0.00    -0.434 OA
BRANCH  13  14
ATOM     14  C   UNL     1      -2.172  -2.871  -1.911  0.00  0.00    +0.172 A 
ATOM     15  C   UNL     1      -2.905  -1.938  -1.193  0.00  0.00    +0.050 A 
ATOM     16  C   UNL     1      -4.263  -1.807  -1.414  0.00  0.00    +0.004 A 
ATOM     17  C   UNL     1      -4.894  -2.606  -2.349  0.00  0.00    +0.004 A 
ATOM     18  C   UNL     1      -4.170  -3.539  -3.068  0.00  0.00    +0.049 A 
ATOM     19  C   UNL     1      -2.807  -3.671  -2.856  0.00  0.00    +0.162 A 
BRANCH  19  20
ATOM     20  O   UNL     1      -2.092  -4.584  -3.566  0.00  0.00    -0.491 OA
ATOM     21  C   UNL     1      -2.810  -5.371  -4.519  0.00  0.00    +0.277 C 
ENDBRANCH  19  20
ENDBRANCH  13  14
ENDBRANCH   4  13
BRANCH   3  22
ATOM     22  C   UNL     1       0.145  -0.128  -2.016  0.00  0.00    -0.036 C 
BRANCH  22  23
ATOM     23  N   UNL     1       1.424  -0.247  -2.728  0.00  0.00    +0.384 N 
ATOM     24  H   UNL     1       2.180  -0.002  -2.106  0.00  0.00    -0.081 HD
BRANCH  23  25
ATOM     25  C   UNL     1       1.428   0.659  -3.884  0.00  0.00    -0.075 C 
BRANCH  25  26
ATOM     26  C   UNL     1       1.234   2.099  -3.405  0.00  0.00    -0.028 C 
ATOM     27  C   UNL     1      -0.043   2.822  -3.838  0.00  0.00    +0.002 C 
ATOM     28  C   UNL     1       1.303   3.208  -4.455  0.00  0.00    +0.002 C 
ENDBRANCH  25  26
ENDBRANCH  23  25
BRANCH  23  29
ATOM     29  C   UNL     1       1.600  -1.631  -3.190  0.00  0.00    -0.046 C 
BRANCH  29  30
ATOM     30  C   UNL     1       3.015  -1.808  -3.744  0.00  0.00    +0.102 C 
BRANCH  30  31
ATOM     31  O   UNL     1       3.147  -1.069  -4.960  0.00  0.00    -0.393 OA
ATOM     32  H   UNL     1       2.532  -1.342  -5.654  0.00  0.00    +0.210 HD
ENDBRANCH  30  31
BRANCH  30  33
ATOM     33  C   UNL     1       3.274  -3.291  -4.018  0.00  0.00    +0.064 C 
BRANCH  33  34
ATOM     34  C   UNL     1       4.706  -3.480  -4.447  0.00  0.00    -0.045 A 
ATOM     35  C   UNL     1       5.043  -3.406  -5.785  0.00  0.00    +0.004 A 
ATOM     36  C   UNL     1       6.356  -3.579  -6.179  0.00  0.00    +0.000 A 
ATOM     37  C   UNL     1       7.334  -3.826  -5.233  0.00  0.00    +0.000 A 
ATOM     38  C   UNL     1       6.998  -3.900  -3.894  0.00  0.00    +0.000 A 
ATOM     39  C   UNL     1       5.685  -3.722  -3.501  0.00  0.00    +0.004 A 
ENDBRANCH  33  34
ENDBRANCH  30  33
ENDBRANCH  29  30
ENDBRANCH  23  29
ENDBRANCH  22  23
ENDBRANCH   3  22
TORSDOF 13
