REMARK  Name = ZINC39792165
REMARK  6 active torsions:
REMARK  status: ('A' for Active; 'I' for Inactive)
REMARK    1  A    between atoms: C_1  and  C_2
REMARK    2  A    between atoms: C_7  and  C_9
REMARK    3  A    between atoms: C_7  and  C_10
REMARK    4  A    between atoms: N_11  and  C_13
REMARK    5  A    between atoms: C_13  and  C_14
REMARK    6  A    between atoms: C_18  and  C_20
REMARK                            x       y       z     vdW  Elec       q    Type
REMARK                         _______ _______ _______ _____ _____    ______ ____
ROOT
ATOM      1  C   UNL     1      -0.019   1.532   0.011  0.00  0.00    +0.009 C 
ATOM      2  C   UNL     1       0.002  -0.004   0.002  0.00  0.00    -0.048 C 
ATOM      3  C   UNL     1       0.709  -0.579  -1.256  0.00  0.00    -0.011 C 
ATOM      4  C   UNL     1       0.075  -1.998  -1.275  0.00  0.00    -0.067 C 
ATOM      5  C   UNL     1       0.699  -2.799  -0.149  0.00  0.00    -0.009 C 
ATOM      6  C   UNL     1       0.880  -2.099   1.179  0.00  0.00    -0.036 C 
ATOM      7  C   UNL     1       0.727  -0.591   1.213  0.00  0.00    +0.011 C 
ATOM      8  C   UNL     1       2.317  -2.418   1.669  0.00  0.00    +0.011 C 
ATOM      9  C   UNL     1      -0.069  -2.724   2.219  0.00  0.00    +0.011 C 
ATOM     10  N   UNL     1      -1.355  -1.714  -1.040  0.00  0.00    +0.385 N 
ATOM     11  C   UNL     1      -1.418  -0.611  -0.062  0.00  0.00    -0.071 C 
ATOM     12  H   UNL     1      -1.763  -1.380  -1.915  0.00  0.00    -0.081 HD
ENDROOT
BRANCH  10  13
ATOM     13  C   UNL     1      -2.112  -2.876  -0.589  0.00  0.00    -0.043 C 
BRANCH  13  14
ATOM     14  C   UNL     1      -3.573  -2.518  -0.495  0.00  0.00    -0.063 A 
ATOM     15  C   UNL     1      -4.084  -2.008   0.686  0.00  0.00    +0.002 A 
ATOM     16  C   UNL     1      -5.424  -1.677   0.782  0.00  0.00    +0.001 A 
ATOM     17  C   UNL     1      -6.260  -1.853  -0.301  0.00  0.00    +0.015 A 
ATOM     18  C   UNL     1      -5.751  -2.367  -1.496  0.00  0.00    +0.063 A 
ATOM     19  C   UNL     1      -4.396  -2.694  -1.587  0.00  0.00    +0.017 A 
BRANCH  18  20
ATOM     20  C   UNL     1      -6.639  -2.558  -2.659  0.00  0.00    +0.387 C 
ATOM     21  O   UNL     1      -7.824  -2.267  -2.578  0.00  0.00    -0.241 OA
ATOM     22  O   UNL     1      -6.191  -3.008  -3.704  0.00  0.00    -0.241 OA
ENDBRANCH  18  20
ENDBRANCH  13  14
ENDBRANCH  10  13
TORSDOF 3
