REMARK  Name = ZINC06780520
REMARK  9 active torsions:
REMARK  status: ('A' for Active; 'I' for Inactive)
REMARK    1  A    between atoms: C_1  and  C_2
REMARK    2  A    between atoms: C_4  and  C_30
REMARK    3  A    between atoms: C_8  and  N_25
REMARK    4  A    between atoms: C_9  and  C_11
REMARK    5  A    between atoms: N_13  and  C_14
REMARK    6  A    between atoms: C_14  and  C_15
REMARK    7  A    between atoms: C_15  and  C_16
REMARK    8  A    between atoms: C_16  and  N_17
REMARK    9  A    between atoms: C_22  and  C_24
REMARK                            x       y       z     vdW  Elec       q    Type
REMARK                         _______ _______ _______ _____ _____    ______ ____
ROOT
ATOM      1  C   UNL     1      -0.018   1.503   0.010  0.00  0.00    +0.044 C 
ATOM      2  C   UNL     1       0.002  -0.004   0.002  0.00  0.00    -0.037 A 
ATOM      3  C   UNL     1       0.006  -0.696  -1.186  0.00  0.00    +0.027 A 
ATOM      4  C   UNL     1       0.025  -2.082  -1.192  0.00  0.00    +0.040 A 
ATOM      5  N   UNL     1       0.039  -2.755  -0.057  0.00  0.00    -0.245 NA
ATOM      6  C   UNL     1       0.036  -2.139   1.105  0.00  0.00    +0.111 A 
ATOM      7  C   UNL     1       0.024  -0.730   1.219  0.00  0.00    +0.035 A 
ATOM      8  C   UNL     1       0.029  -0.220   2.581  0.00  0.00    +0.075 A 
ATOM      9  C   UNL     1       0.051  -1.124   3.617  0.00  0.00    +0.100 A 
ATOM     10  S   UNL     1       0.051  -2.702   2.789  0.00  0.00    -0.062 S 
ATOM     11  C   UNL     1       0.028  -2.826  -2.502  0.00  0.00    +0.065 C 
ENDROOT
BRANCH   8  12
ATOM     12  N   UNL     1       0.013   1.153   2.830  0.00  0.00    -0.321 N 
ATOM     13  C   UNL     1       1.002   2.035   2.496  0.00  0.00    +0.091 A 
ATOM     14  C   UNL     1       0.623   3.264   2.900  0.00  0.00    +0.019 A 
ATOM     15  C   UNL     1      -0.644   3.140   3.504  0.00  0.00    +0.019 A 
ATOM     16  C   UNL     1      -0.997   1.840   3.443  0.00  0.00    +0.091 A 
ENDBRANCH   8  12
BRANCH   9  17
ATOM     17  C   UNL     1       0.061  -0.854   5.056  0.00  0.00    +0.253 C 
ATOM     18  O   UNL     1       0.050   0.294   5.460  0.00  0.00    -0.270 OA
ATOM     19  N   UNL     1       0.083  -1.877   5.933  0.00  0.00    -0.311 N 
ATOM     20  H   UNL     1       0.092  -2.792   5.612  0.00  0.00    +0.149 HD
BRANCH  19  21
ATOM     21  C   UNL     1       0.093  -1.607   7.373  0.00  0.00    +0.102 C 
BRANCH  21  22
ATOM     22  C   UNL     1       0.118  -2.931   8.140  0.00  0.00    +0.000 C 
BRANCH  22  23
ATOM     23  C   UNL     1       0.128  -2.649   9.644  0.00  0.00    -0.077 C 
BRANCH  23  24
ATOM     24  N   UNL     1       0.152  -3.920  10.380  0.00  0.00    +0.381 N 
ATOM     25  C   UNL     1      -1.092  -4.655  10.124  0.00  0.00    -0.078 C 
ATOM     26  C   UNL     1      -1.038  -6.015  10.823  0.00  0.00    -0.019 C 
ATOM     27  C   UNL     1      -0.871  -5.802  12.330  0.00  0.00    -0.003 C 
ATOM     28  C   UNL     1       0.390  -4.970  12.582  0.00  0.00    -0.016 C 
ATOM     29  C   UNL     1       0.283  -3.648  11.817  0.00  0.00    -0.072 C 
ATOM     30  C   UNL     1       1.541  -2.813  12.065  0.00  0.00    -0.013 C 
ATOM     31  H   UNL     1       0.937  -4.472  10.070  0.00  0.00    -0.081 HD
ENDBRANCH  23  24
ENDBRANCH  22  23
ENDBRANCH  21  22
ENDBRANCH  19  21
ENDBRANCH   9  17
TORSDOF 6
