REMARK  Name = ZINC02074165
REMARK  16 active torsions:
REMARK  status: ('A' for Active; 'I' for Inactive)
REMARK    1  A    between atoms: C_1  and  C_2
REMARK    2  A    between atoms: C_2  and  C_3
REMARK    3  A    between atoms: C_3  and  C_4
REMARK    4  A    between atoms: C_4  and  O_5
REMARK    5  A    between atoms: O_5  and  C_6
REMARK    6  A    between atoms: C_6  and  C_8
REMARK    7  A    between atoms: C_9  and  C_40
REMARK    8  A    between atoms: C_13  and  C_15
REMARK    9  A    between atoms: C_18  and  O_22
REMARK   10  A    between atoms: C_19  and  O_21
REMARK   11  A    between atoms: O_22  and  C_23
REMARK   12  A    between atoms: C_27  and  C_30
REMARK   13  A    between atoms: C_33  and  O_38
REMARK   14  A    between atoms: C_34  and  O_36
REMARK   15  A    between atoms: O_36  and  C_37
REMARK   16  A    between atoms: O_38  and  C_39
REMARK                            x       y       z     vdW  Elec       q    Type
REMARK                         _______ _______ _______ _____ _____    ______ ____
ROOT
ATOM      1  C   UNL     1       4.442   1.847  -1.267  0.00  0.00    +0.065 C 
ATOM      2  C   UNL     1       5.486   1.004  -1.237  0.00  0.00    +0.016 C 
ATOM      3  N   UNL     1       5.882   0.433  -0.060  0.00  0.00    -0.321 N 
ATOM      4  C   UNL     1       5.514   0.982   1.140  0.00  0.00    +0.016 C 
ATOM      5  C   UNL     1       4.469   1.833   1.212  0.00  0.00    +0.024 C 
ATOM      6  C   UNL     1       3.676   2.185  -0.022  0.00  0.00    +0.092 C 
ATOM      7  C   UNL     1       4.090   2.416   2.434  0.00  0.00    +0.162 C 
ATOM      8  O   UNL     1       3.139   3.170   2.466  0.00  0.00    -0.292 OA
ATOM      9  C   UNL     1       4.843   2.122   3.703  0.00  0.00    +0.088 C 
ATOM     10  C   UNL     1       6.297   1.788   3.355  0.00  0.00    +0.032 C 
ATOM     11  C   UNL     1       6.304   0.615   2.372  0.00  0.00    +0.059 C 
ATOM     12  C   UNL     1       6.227   0.683  -2.510  0.00  0.00    +0.061 C 
ATOM     13  H   UNL     1       6.503  -0.475  -0.069  0.00  0.00    +0.152 HD
ENDROOT
BRANCH   6  14
ATOM     14  C   UNL     1       2.380   1.415  -0.013  0.00  0.00    -0.032 A 
ATOM     15  C   UNL     1       2.399   0.033  -0.021  0.00  0.00    +0.008 A 
ATOM     16  C   UNL     1       1.213  -0.677  -0.013  0.00  0.00    +0.050 A 
ATOM     17  C   UNL     1       0.002  -0.004   0.002  0.00  0.00    +0.161 A 
ATOM     18  C   UNL     1      -0.017   1.387   0.010  0.00  0.00    +0.159 A 
ATOM     19  C   UNL     1       1.175   2.093   0.002  0.00  0.00    +0.053 A 
BRANCH  18  20
ATOM     20  O   UNL     1      -1.203   2.053   0.019  0.00  0.00    -0.503 OA
ATOM     21  H   UNL     1      -1.216   3.153   0.025  0.00  0.00    +0.292 HD
ENDBRANCH  18  20
BRANCH  17  22
ATOM     22  O   UNL     1      -1.165  -0.702   0.009  0.00  0.00    -0.491 OA
ATOM     23  C   UNL     1      -1.069  -2.127   0.000  0.00  0.00    +0.277 C 
ENDBRANCH  17  22
ENDBRANCH   6  14
BRANCH  10  24
ATOM     24  C   UNL     1       7.042   1.403   4.607  0.00  0.00    -0.040 A 
ATOM     25  C   UNL     1       6.606   0.335   5.368  0.00  0.00    +0.008 A 
ATOM     26  C   UNL     1       7.289  -0.026   6.515  0.00  0.00    +0.049 A 
ATOM     27  C   UNL     1       8.407   0.692   6.909  0.00  0.00    +0.161 A 
ATOM     28  C   UNL     1       8.843   1.770   6.146  0.00  0.00    +0.162 A 
ATOM     29  C   UNL     1       8.157   2.123   4.995  0.00  0.00    +0.053 A 
BRANCH  28  30
ATOM     30  O   UNL     1       9.940   2.477   6.528  0.00  0.00    -0.491 OA
ATOM     31  C   UNL     1      10.329   3.572   5.696  0.00  0.00    +0.277 C 
ENDBRANCH  28  30
BRANCH  27  32
ATOM     32  O   UNL     1       9.077   0.342   8.040  0.00  0.00    -0.491 OA
ATOM     33  C   UNL     1       8.573  -0.776   8.773  0.00  0.00    +0.277 C 
ENDBRANCH  27  32
ENDBRANCH  10  24
BRANCH   1  34
ATOM     34  C   UNL     1       4.056   2.429  -2.498  0.00  0.00    +0.338 C 
ATOM     35  O   UNL     1       4.670   2.163  -3.515  0.00  0.00    -0.245 OA
BRANCH  34  36
ATOM     36  O   UNL     1       3.009   3.278  -2.544  0.00  0.00    -0.461 OA
BRANCH  36  37
ATOM     37  C   UNL     1       2.676   3.828  -3.820  0.00  0.00    +0.232 C 
BRANCH  37  38
ATOM     38  C   UNL     1       1.472   4.761  -3.675  0.00  0.00    +0.041 C 
BRANCH  38  40
ATOM     39  C   UNL     1      -0.089   6.283  -4.896  0.00  0.00    +0.004 C 
ATOM     40  C   UNL     1       1.115   5.350  -5.041  0.00  0.00    -0.000 C 
ENDBRANCH  38  40
ENDBRANCH  37  38
ENDBRANCH  36  37
ENDBRANCH  34  36
ENDBRANCH   1  34
TORSDOF 11
