REMARK  Name = ZINC08796678
REMARK  5 active torsions:
REMARK  status: ('A' for Active; 'I' for Inactive)
REMARK    1  A    between atoms: C_4  and  N_7
REMARK    2  A    between atoms: C_13  and  C_15
REMARK    3  A    between atoms: C_15  and  S_16
REMARK    4  A    between atoms: S_16  and  C_17
REMARK    5  A    between atoms: N_31  and  C_32
REMARK                            x       y       z     vdW  Elec       q    Type
REMARK                         _______ _______ _______ _____ _____    ______ ____
ROOT
ATOM      1  C   UNL     1       2.861   3.610  -0.688  0.00  0.00    +0.177 A 
ATOM      2  N   UNL     1       1.573   3.874  -0.698  0.00  0.00    -0.221 NA
ATOM      3  C   UNL     1       0.700   3.091  -0.044  0.00  0.00    +0.104 A 
ATOM      4  C   UNL     1      -0.759   3.124   0.128  0.00  0.00    +0.026 A 
ATOM      5  C   UNL     1      -1.761   3.982  -0.327  0.00  0.00    +0.012 A 
ATOM      6  C   UNL     1      -3.064   3.746   0.009  0.00  0.00    +0.001 A 
ATOM      7  C   UNL     1      -3.400   2.656   0.800  0.00  0.00    +0.002 A 
ATOM      8  C   UNL     1      -2.428   1.797   1.260  0.00  0.00    +0.026 A 
ATOM      9  C   UNL     1      -1.093   2.016   0.925  0.00  0.00    +0.049 A 
ATOM     10  N   UNL     1       0.069   1.343   1.238  0.00  0.00    -0.349 N 
ATOM     11  H   UNL     1       0.117   0.541   1.781  0.00  0.00    +0.166 HD
ATOM     12  C   UNL     1       1.156   1.977   0.659  0.00  0.00    +0.132 A 
ATOM     13  C   UNL     1       2.540   1.704   0.662  0.00  0.00    +0.283 A 
ATOM     14  O   UNL     1       2.983   0.740   1.264  0.00  0.00    -0.265 OA
ATOM     15  N   UNL     1       3.364   2.532  -0.015  0.00  0.00    -0.254 N 
ENDROOT
BRANCH  15  16
ATOM     16  C   UNL     1       4.744   2.285  -0.029  0.00  0.00    +0.052 A 
ATOM     17  C   UNL     1       5.559   2.840   0.948  0.00  0.00    +0.029 A 
ATOM     18  C   UNL     1       6.918   2.591   0.935  0.00  0.00    +0.040 A 
ATOM     19  C   UNL     1       7.468   1.797  -0.057  0.00  0.00    +0.124 A 
ATOM     20  C   UNL     1       6.657   1.246  -1.034  0.00  0.00    +0.040 A 
ATOM     21  C   UNL     1       5.297   1.488  -1.022  0.00  0.00    +0.029 A 
ATOM     22  F   UNL     1       8.798   1.559  -0.070  0.00  0.00    -0.205 F 
ENDBRANCH  15  16
BRANCH   1  23
ATOM     23  S   UNL     1       3.963   4.670  -1.562  0.00  0.00    -0.078 S 
BRANCH  23  24
ATOM     24  C   UNL     1       2.784   5.870  -2.228  0.00  0.00    +0.173 C 
BRANCH  24  31
ATOM     25  N   UNL     1       1.640  10.396  -3.971  0.00  0.00    -0.327 N 
ATOM     26  C   UNL     1       3.106  10.309  -3.937  0.00  0.00    +0.124 C 
ATOM     27  C   UNL     1       3.545   8.925  -4.427  0.00  0.00    +0.126 C 
ATOM     28  N   UNL     1       2.843   7.905  -3.633  0.00  0.00    -0.298 N 
ATOM     29  C   UNL     1       1.381   8.001  -3.512  0.00  0.00    +0.126 C 
ATOM     30  C   UNL     1       1.028   9.425  -3.053  0.00  0.00    +0.124 C 
ATOM     31  C   UNL     1       3.522   6.904  -3.037  0.00  0.00    +0.226 C 
ATOM     32  O   UNL     1       4.728   6.837  -3.152  0.00  0.00    -0.275 OA
BRANCH  25  36
ATOM     33  C   UNL     1       0.353  14.264  -3.127  0.00  0.00    +0.000 A 
ATOM     34  C   UNL     1      -0.573  13.271  -3.389  0.00  0.00    +0.002 A 
ATOM     35  C   UNL     1      -0.149  11.987  -3.670  0.00  0.00    +0.023 A 
ATOM     36  C   UNL     1       1.208  11.693  -3.688  0.00  0.00    +0.030 A 
ATOM     37  C   UNL     1       2.136  12.692  -3.418  0.00  0.00    +0.023 A 
ATOM     38  C   UNL     1       1.705  13.975  -3.144  0.00  0.00    +0.002 A 
ENDBRANCH  25  36
ENDBRANCH  24  31
ENDBRANCH  23  24
ENDBRANCH   1  23
TORSDOF 5
