REMARK  Name = ZINC38837750
REMARK  9 active torsions:
REMARK  status: ('A' for Active; 'I' for Inactive)
REMARK    1  A    between atoms: C_1  and  C_2
REMARK    2  A    between atoms: N_11  and  C_12
REMARK    3  A    between atoms: C_12  and  C_13
REMARK    4  A    between atoms: C_13  and  C_14
REMARK    5  A    between atoms: C_14  and  N_15
REMARK    6  A    between atoms: N_15  and  C_16
REMARK    7  A    between atoms: N_15  and  C_17
REMARK    8  A    between atoms: C_18  and  C_20
REMARK    9  A    between atoms: C_24  and  N_29
REMARK                            x       y       z     vdW  Elec       q    Type
REMARK                         _______ _______ _______ _____ _____    ______ ____
ROOT
ATOM      1  C   UNL     1      -0.115   1.005  -0.124  0.00  0.00    +0.046 C 
ATOM      2  C   UNL     1      -0.231  -0.486   0.054  0.00  0.00    -0.023 A 
ATOM      3  C   UNL     1      -0.351  -1.293  -1.047  0.00  0.00    +0.025 A 
ATOM      4  C   UNL     1      -0.460  -2.672  -0.928  0.00  0.00    +0.042 A 
ATOM      5  C   UNL     1      -0.448  -3.246   0.332  0.00  0.00    +0.037 A 
ATOM      6  C   UNL     1      -0.329  -2.445   1.440  0.00  0.00    +0.042 A 
ATOM      7  C   UNL     1      -0.209  -1.039   1.356  0.00  0.00    +0.083 A 
ATOM      8  N   UNL     1      -0.093  -0.390   2.535  0.00  0.00    -0.224 NA
ATOM      9  C   UNL     1      -0.086  -1.018   3.688  0.00  0.00    +0.168 A 
ATOM     10  S   UNL     1      -0.269  -2.725   3.193  0.00  0.00    -0.052 S 
ATOM     11  N   UNL     1       0.025  -0.491   4.963  0.00  0.00    -0.246 N 
ATOM     12  C   UNL     1       0.146   0.841   5.133  0.00  0.00    +0.259 C 
ATOM     13  O   UNL     1       0.057   1.587   4.177  0.00  0.00    -0.269 OA
ATOM     14 CL   UNL     1      -0.611  -3.666  -2.343  0.00  0.00    -0.083 Cl
ENDROOT
BRANCH  12  15
ATOM     15  C   UNL     1       0.388   1.391   6.474  0.00  0.00    +0.076 A 
ATOM     16  C   UNL     1       0.420   2.694   6.862  0.00  0.00    +0.029 A 
ATOM     17  C   UNL     1       0.669   3.019   8.208  0.00  0.00    -0.008 A 
ATOM     18  C   UNL     1       0.742   4.306   8.801  0.00  0.00    +0.041 A 
ATOM     19  C   UNL     1       0.994   4.445  10.128  0.00  0.00    +0.127 A 
ATOM     20  C   UNL     1       1.189   3.344  10.953  0.00  0.00    +0.034 A 
ATOM     21  C   UNL     1       1.126   2.074  10.417  0.00  0.00    +0.018 A 
ATOM     22  C   UNL     1       0.871   1.916   9.071  0.00  0.00    +0.020 A 
ATOM     23  S   UNL     1       0.702   0.514   7.996  0.00  0.00    -0.084 S 
BRANCH  19  24
ATOM     24  N   UNL     1       1.064   5.804  10.711  0.00  0.00    +0.056 N 
ATOM     25  O   UNL     1       0.898   6.773  10.007  0.00  0.00    -0.126 OA
ATOM     26  O   UNL     1       1.288   5.945  11.890  0.00  0.00    -0.126 OA
ENDBRANCH  19  24
ENDBRANCH  12  15
BRANCH  11  27
ATOM     27  C   UNL     1       0.010  -1.380   6.127  0.00  0.00    +0.114 C 
BRANCH  27  28
ATOM     28  C   UNL     1       1.443  -1.786   6.476  0.00  0.00    +0.001 C 
BRANCH  28  29
ATOM     29  C   UNL     1       1.428  -2.715   7.692  0.00  0.00    -0.078 C 
BRANCH  29  30
ATOM     30  N   UNL     1       2.804  -3.104   8.028  0.00  0.00    +0.376 N 
ATOM     31  C   UNL     1       2.801  -3.898   9.264  0.00  0.00    -0.097 C 
ATOM     32  C   UNL     1       3.366  -3.907   6.933  0.00  0.00    -0.097 C 
ATOM     33  H   UNL     1       3.365  -2.277   8.161  0.00  0.00    -0.083 HD
ENDBRANCH  29  30
ENDBRANCH  28  29
ENDBRANCH  27  28
ENDBRANCH  11  27
TORSDOF 6
