REMARK  Name = ZINC39655951
REMARK  9 active torsions:
REMARK  status: ('A' for Active; 'I' for Inactive)
REMARK    1  A    between atoms: C_1  and  C_2
REMARK    2  A    between atoms: C_8  and  C_11
REMARK    3  A    between atoms: C_11  and  C_12
REMARK    4  A    between atoms: C_12  and  N_13
REMARK    5  A    between atoms: C_14  and  C_16
REMARK    6  A    between atoms: C_27  and  C_29
REMARK    7  A    between atoms: C_29  and  C_31
REMARK    8  A    between atoms: C_29  and  O_32
REMARK    9  A    between atoms: O_32  and  C_33
REMARK                            x       y       z     vdW  Elec       q    Type
REMARK                         _______ _______ _______ _____ _____    ______ ____
ROOT
ATOM      1  C   UNL     1       5.124  -0.821  -7.569  0.00  0.00    +0.100 C 
ATOM      2  C   UNL     1       5.086   0.289  -8.643  0.00  0.00    +0.121 C 
ATOM      3  N   UNL     1       5.771  -0.301  -9.816  0.00  0.00    -0.297 N 
ATOM      4  C   UNL     1       5.310  -1.709  -9.843  0.00  0.00    +0.115 C 
ATOM      5  C   UNL     1       5.270  -2.131  -8.361  0.00  0.00    -0.004 C 
ATOM      6  C   UNL     1       4.072  -3.041  -8.104  0.00  0.00    -0.010 C 
ATOM      7  C   UNL     1       4.269  -4.361  -8.855  0.00  0.00    -0.082 C 
ATOM      8  N   UNL     1       5.506  -5.006  -8.400  0.00  0.00    +0.379 N 
ATOM      9  C   UNL     1       6.662  -4.166  -8.735  0.00  0.00    -0.082 C 
ATOM     10  C   UNL     1       6.567  -2.838  -7.979  0.00  0.00    -0.010 C 
ATOM     11  C   UNL     1       6.623   0.306 -10.667  0.00  0.00    +0.256 C 
ATOM     12  O   UNL     1       7.106  -0.317 -11.589  0.00  0.00    -0.272 OA
ATOM     13  H   UNL     1       5.466  -5.138  -7.400  0.00  0.00    -0.086 HD
ATOM     14  H   UNL     1       5.601  -5.903  -8.851  0.00  0.00    -0.086 HD
ENDROOT
BRANCH   1  16
ATOM     15  N   UNL     1       3.841  -1.275  -5.504  0.00  0.00    -0.315 N 
ATOM     16  C   UNL     1       3.843  -0.828  -6.775  0.00  0.00    +0.218 C 
ATOM     17  O   UNL     1       2.814  -0.431  -7.281  0.00  0.00    -0.275 OA
ATOM     18  H   UNL     1       4.663  -1.592  -5.100  0.00  0.00    +0.149 HD
BRANCH  15  19
ATOM     19  C   UNL     1       2.595  -1.282  -4.732  0.00  0.00    +0.109 C 
BRANCH  19  20
ATOM     20  C   UNL     1       2.867  -1.833  -3.331  0.00  0.00    +0.056 C 
BRANCH  20  28
ATOM     21  C   UNL     1      -0.820  -6.202  -3.700  0.00  0.00    +0.044 C 
ATOM     22  C   UNL     1      -0.676  -4.883  -2.985  0.00  0.00    -0.050 A 
ATOM     23  C   UNL     1      -1.669  -4.462  -2.111  0.00  0.00    +0.005 A 
ATOM     24  C   UNL     1      -1.557  -3.260  -1.447  0.00  0.00    +0.026 A 
ATOM     25  C   UNL     1      -0.440  -2.458  -1.653  0.00  0.00    +0.047 A 
ATOM     26  N   UNL     1      -0.044  -1.236  -1.156  0.00  0.00    -0.360 N 
ATOM     27  C   UNL     1       1.164  -0.884  -1.693  0.00  0.00    +0.087 A 
ATOM     28  C   UNL     1       1.586  -1.839  -2.537  0.00  0.00    -0.021 A 
ATOM     29  C   UNL     1       0.564  -2.889  -2.541  0.00  0.00    +0.003 A 
ATOM     30  C   UNL     1       0.433  -4.113  -3.199  0.00  0.00    +0.013 A 
ATOM     31  H   UNL     1      -0.547  -0.705  -0.519  0.00  0.00    +0.165 HD
ENDBRANCH  20  28
ENDBRANCH  19  20
ENDBRANCH  15  19
ENDBRANCH   1  16
BRANCH  11  32
ATOM     32  C   UNL     1       6.975   1.758 -10.473  0.00  0.00    +0.256 C 
ATOM     33  C   UNL     1       5.725   2.617 -10.678  0.00  0.00    +0.062 C 
BRANCH  32  34
ATOM     34  O   UNL     1       7.974   2.137 -11.421  0.00  0.00    -0.480 OA
BRANCH  34  35
ATOM     35  C   UNL     1       8.772   3.187 -11.091  0.00  0.00    +0.122 A 
ATOM     36  C   UNL     1       8.533   3.901  -9.926  0.00  0.00    +0.045 A 
ATOM     37  C   UNL     1       9.346   4.967  -9.592  0.00  0.00    +0.004 A 
ATOM     38  C   UNL     1      10.396   5.323 -10.418  0.00  0.00    +0.000 A 
ATOM     39  C   UNL     1      10.635   4.613 -11.581  0.00  0.00    +0.004 A 
ATOM     40  C   UNL     1       9.829   3.542 -11.916  0.00  0.00    +0.045 A 
ENDBRANCH  34  35
ENDBRANCH  32  34
ENDBRANCH  11  32
TORSDOF 7
