REMARK  Name = ZINC67067944
REMARK  2 active torsions:
REMARK  status: ('A' for Active; 'I' for Inactive)
REMARK    1  A    between atoms: C_4  and  C_7
REMARK    2  A    between atoms: C_17  and  C_19
REMARK                            x       y       z     vdW  Elec       q    Type
REMARK                         _______ _______ _______ _____ _____    ______ ____
ROOT
ATOM      1  C   UNL     1       3.711  -0.707  -0.038  0.00  0.00    +0.024 C 
ATOM      2  C   UNL     1       3.791  -1.586  -1.289  0.00  0.00    +0.014 C 
ATOM      3  C   UNL     1       5.206  -2.146  -1.450  0.00  0.00    +0.057 C 
ATOM      4  C   UNL     1       5.615  -2.819  -0.147  0.00  0.00    +0.054 A 
ATOM      5  C   UNL     1       4.959  -2.541   1.009  0.00  0.00    +0.015 A 
ATOM      6  S   UNL     1       5.804  -3.560   2.186  0.00  0.00    -0.057 S 
ATOM      7  C   UNL     1       6.914  -4.250   1.123  0.00  0.00    +0.165 A 
ATOM      8  N   UNL     1       6.605  -3.699  -0.030  0.00  0.00    -0.229 NA
ATOM      9  N   UNL     1       7.912  -5.176   1.398  0.00  0.00    -0.259 N 
ATOM     10  C   UNL     1       8.712  -5.619   0.407  0.00  0.00    +0.270 C 
ATOM     11  O   UNL     1       8.560  -5.207  -0.727  0.00  0.00    -0.268 OA
ATOM     12  C   UNL     1       3.817  -1.602   1.208  0.00  0.00    +0.052 C 
ATOM     13  H   UNL     1       8.033  -5.505   2.302  0.00  0.00    +0.157 HD
ENDROOT
BRANCH   1  17
ATOM     14  C   UNL     1      -0.017   1.378   0.010  0.00  0.00    +0.000 A 
ATOM     15  C   UNL     1       1.171   2.086   0.002  0.00  0.00    +0.000 A 
ATOM     16  C   UNL     1       2.377   1.411  -0.013  0.00  0.00    +0.004 A 
ATOM     17  C   UNL     1       2.396   0.029  -0.020  0.00  0.00    -0.044 A 
ATOM     18  C   UNL     1       1.208  -0.679  -0.012  0.00  0.00    +0.004 A 
ATOM     19  C   UNL     1       0.002  -0.004   0.002  0.00  0.00    +0.000 A 
ENDBRANCH   1  17
BRANCH  10  20
ATOM     20  C   UNL     1       9.773  -6.603   0.700  0.00  0.00    +0.147 A 
ATOM     21  C   UNL     1      10.689  -7.154  -0.228  0.00  0.00    +0.054 A 
ATOM     22  C   UNL     1      11.464  -8.001   0.489  0.00  0.00    +0.105 A 
ATOM     23  N   UNL     1      11.031  -7.955   1.768  0.00  0.00    -0.284 N 
ATOM     24  H   UNL     1      11.410  -8.465   2.500  0.00  0.00    +0.188 HD
ATOM     25  N   UNL     1      10.050  -7.132   1.875  0.00  0.00    -0.169 NA
ENDBRANCH  10  20
TORSDOF 2
