REMARK  Name = ZINC04205598
REMARK  2 active torsions:
REMARK  status: ('A' for Active; 'I' for Inactive)
REMARK    1  A    between atoms: C_1  and  C_2
REMARK    2  A    between atoms: N_11  and  N_12
REMARK                            x       y       z     vdW  Elec       q    Type
REMARK                         _______ _______ _______ _____ _____    ______ ____
ROOT
ATOM      1  C   UNL     1      -0.018   1.503   0.010  0.00  0.00    +0.088 C 
ATOM      2  C   UNL     1       0.002  -0.004   0.002  0.00  0.00    +0.128 A 
ATOM      3  N   UNL     1       0.005  -0.639  -1.139  0.00  0.00    -0.225 NA
ATOM      4  C   UNL     1       0.023  -1.968  -1.183  0.00  0.00    +0.115 A 
ATOM      5  C   UNL     1       0.039  -2.751  -0.015  0.00  0.00    +0.074 A 
ATOM      6  C   UNL     1       0.058  -4.185  -0.237  0.00  0.00    +0.023 A 
ATOM      7  C   UNL     1       0.058  -4.653  -1.496  0.00  0.00    +0.048 A 
ATOM      8  S   UNL     1       0.033  -3.171  -2.487  0.00  0.00    -0.077 S 
ATOM      9  C   UNL     1       0.035  -2.023   1.219  0.00  0.00    +0.279 A 
ATOM     10  O   UNL     1       0.048  -2.612   2.286  0.00  0.00    -0.265 OA
ATOM     11  N   UNL     1       0.022  -0.677   1.181  0.00  0.00    -0.219 N 
ENDROOT
BRANCH  11  12
ATOM     12  N   UNL     1       0.024   0.025   2.353  0.00  0.00    -0.294 N 
ATOM     13  H   UNL     1       0.040  -0.597   3.147  0.00  0.00    +0.163 HD
ATOM     14  H   UNL     1       0.797   0.673   2.385  0.00  0.00    +0.163 HD
ENDBRANCH  11  12
TORSDOF 1
