REMARK  Name = ZINC67441496
REMARK  10 active torsions:
REMARK  status: ('A' for Active; 'I' for Inactive)
REMARK    1  A    between atoms: C_1  and  C_2
REMARK    2  A    between atoms: C_5  and  O_27
REMARK    3  A    between atoms: C_6  and  C_8
REMARK    4  A    between atoms: C_8  and  C_10
REMARK    5  A    between atoms: C_8  and  N_11
REMARK    6  A    between atoms: N_11  and  C_12
REMARK    7  A    between atoms: C_12  and  C_14
REMARK    8  A    between atoms: C_12  and  C_15
REMARK    9  A    between atoms: N_17  and  C_18
REMARK   10  A    between atoms: O_27  and  C_28
REMARK                            x       y       z     vdW  Elec       q    Type
REMARK                         _______ _______ _______ _____ _____    ______ ____
ROOT
ATOM      1  C   UNL     1      -0.639  -2.794   4.790  0.00  0.00    +0.014 C 
ATOM      2  C   UNL     1      -1.627  -3.945   4.591  0.00  0.00    -0.004 C 
ENDROOT
BRANCH   1   3
ATOM      3  C   UNL     1      -1.122  -1.905   5.908  0.00  0.00    +0.203 C 
ATOM      4  O   UNL     1      -1.361  -0.736   5.692  0.00  0.00    -0.277 OA
ATOM      5  N   UNL     1      -1.288  -2.410   7.146  0.00  0.00    -0.287 N 
ATOM      6  H   UNL     1      -1.161  -3.359   7.304  0.00  0.00    +0.155 HD
BRANCH   5   7
ATOM      7  C   UNL     1      -1.644  -1.565   8.206  0.00  0.00    +0.037 A 
ATOM      8  C   UNL     1      -1.142  -1.800   9.479  0.00  0.00    +0.027 A 
ATOM      9  C   UNL     1      -1.492  -0.967  10.524  0.00  0.00    +0.051 A 
ATOM     10  C   UNL     1      -2.343   0.104  10.306  0.00  0.00    +0.166 A 
ATOM     11  C   UNL     1      -2.848   0.342   9.029  0.00  0.00    +0.168 A 
ATOM     12  C   UNL     1      -2.492  -0.490   7.981  0.00  0.00    +0.072 A 
ATOM     13  O   UNL     1      -3.654   1.443   9.077  0.00  0.00    -0.453 OA
ATOM     14  C   UNL     1      -3.963   1.633  10.470  0.00  0.00    +0.466 C 
ATOM     15  O   UNL     1      -2.834   1.057  11.153  0.00  0.00    -0.453 OA
ENDBRANCH   5   7
ENDBRANCH   1   3
BRANCH   1  16
ATOM     16  N   UNL     1      -0.542  -2.012   3.550  0.00  0.00    +0.391 N 
ATOM     17  H   UNL     1       0.046  -1.206   3.706  0.00  0.00    -0.084 HD
ATOM     18  H   UNL     1      -1.462  -1.708   3.271  0.00  0.00    -0.084 HD
BRANCH  16  19
ATOM     19  C   UNL     1       0.042  -2.845   2.491  0.00  0.00    -0.039 C 
ATOM     20  C   UNL     1       1.483  -3.203   2.858  0.00  0.00    -0.009 C 
BRANCH  19  26
ATOM     21  C   UNL     1      -0.000   1.502   0.013  0.00  0.00    +0.044 C 
ATOM     22  C   UNL     1       0.009  -0.005   0.003  0.00  0.00    -0.050 A 
ATOM     23  C   UNL     1       0.005  -0.687  -1.200  0.00  0.00    +0.007 A 
ATOM     24  C   UNL     1       0.013  -2.068  -1.212  0.00  0.00    +0.046 A 
ATOM     25  C   UNL     1       0.025  -2.771  -0.016  0.00  0.00    +0.122 A 
ATOM     26  C   UNL     1       0.029  -2.085   1.190  0.00  0.00    -0.020 A 
ATOM     27  C   UNL     1       0.026  -0.703   1.196  0.00  0.00    +0.009 A 
BRANCH  25  28
ATOM     28  O   UNL     1       0.033  -4.130  -0.025  0.00  0.00    -0.495 OA
ATOM     29  C   UNL     1       0.028  -4.770  -1.302  0.00  0.00    +0.277 C 
ENDBRANCH  25  28
ENDBRANCH  19  26
ENDBRANCH  16  19
ENDBRANCH   1  16
TORSDOF 6
