REMARK  Name = ZINC00445742
REMARK  5 active torsions:
REMARK  status: ('A' for Active; 'I' for Inactive)
REMARK    1  A    between atoms: C_4  and  N_7
REMARK    2  A    between atoms: N_10  and  N_13
REMARK    3  A    between atoms: C_14  and  C_15
REMARK    4  A    between atoms: C_18  and  O_22
REMARK    5  A    between atoms: C_20  and  O_21
REMARK                            x       y       z     vdW  Elec       q    Type
REMARK                         _______ _______ _______ _____ _____    ______ ____
ROOT
ATOM      1  N   UNL     1       7.067   5.374   0.652  0.00  0.00    -0.327 N 
ATOM      2  C   UNL     1       7.002   3.913   0.793  0.00  0.00    +0.125 C 
ATOM      3  C   UNL     1       6.038   3.345  -0.253  0.00  0.00    +0.144 C 
ATOM      4  N   UNL     1       4.748   4.039  -0.126  0.00  0.00    -0.253 N 
ATOM      5  C   UNL     1       4.746   5.510  -0.126  0.00  0.00    +0.144 C 
ATOM      6  C   UNL     1       5.762   5.993   0.921  0.00  0.00    +0.125 C 
ENDROOT
BRANCH   1  10
ATOM      7  C   UNL     1      10.016   6.981   3.114  0.00  0.00    +0.000 A 
ATOM      8  C   UNL     1       9.258   7.814   2.311  0.00  0.00    +0.002 A 
ATOM      9  C   UNL     1       8.279   7.284   1.493  0.00  0.00    +0.023 A 
ATOM     10  C   UNL     1       8.056   5.913   1.478  0.00  0.00    +0.030 A 
ATOM     11  C   UNL     1       8.816   5.080   2.289  0.00  0.00    +0.023 A 
ATOM     12  C   UNL     1       9.796   5.616   3.101  0.00  0.00    +0.002 A 
ENDBRANCH   1  10
BRANCH   4  13
ATOM     13  N   UNL     1       3.551   3.319  -0.013  0.00  0.00    -0.192 NA
ATOM     14  C   UNL     1       2.415   3.946  -0.010  0.00  0.00    +0.141 C 
BRANCH  14  15
ATOM     15  C   UNL     1       1.153   3.183  -0.000  0.00  0.00    +0.036 A 
ATOM     16  C   UNL     1      -0.072   3.855   0.004  0.00  0.00    +0.016 A 
ATOM     17  C   UNL     1      -1.249   3.138   0.013  0.00  0.00    +0.046 A 
ATOM     18  C   UNL     1      -1.222   1.749   0.013  0.00  0.00    +0.120 A 
ATOM     19  C   UNL     1      -0.011   1.073   0.015  0.00  0.00    +0.091 A 
ATOM     20  C   UNL     1       1.178   1.782   0.005  0.00  0.00    +0.129 A 
BRANCH  20  21
ATOM     21  O   UNL     1       2.365   1.121   0.002  0.00  0.00    -0.506 OA
ATOM     22  H   UNL     1       2.704   0.926  -0.882  0.00  0.00    +0.292 HD
ENDBRANCH  20  21
BRANCH  18  23
ATOM     23  O   UNL     1      -2.387   1.050   0.017  0.00  0.00    -0.507 OA
ATOM     24  H   UNL     1      -2.724   0.851   0.901  0.00  0.00    +0.292 HD
ENDBRANCH  18  23
ENDBRANCH  14  15
ENDBRANCH   4  13
TORSDOF 5
