REMARK  Name = ZINC14720090
REMARK  13 active torsions:
REMARK  status: ('A' for Active; 'I' for Inactive)
REMARK    1  A    between atoms: C_1  and  C_2
REMARK    2  A    between atoms: C_2  and  C_3
REMARK    3  A    between atoms: C_3  and  C_4
REMARK    4  A    between atoms: C_4  and  N_5
REMARK    5  A    between atoms: N_5  and  C_6
REMARK    6  A    between atoms: C_7  and  N_19
REMARK    7  A    between atoms: N_8  and  C_15
REMARK    8  A    between atoms: C_15  and  C_16
REMARK    9  A    between atoms: C_16  and  C_17
REMARK   10  A    between atoms: C_16  and  C_18
REMARK   11  A    between atoms: C_20  and  C_22
REMARK   12  A    between atoms: C_22  and  O_23
REMARK   13  A    between atoms: O_23  and  C_24
REMARK                            x       y       z     vdW  Elec       q    Type
REMARK                         _______ _______ _______ _____ _____    ______ ____
ROOT
ATOM      1  N   UNL     1      -1.365  -0.513   0.014  0.00  0.00    -0.261 N 
ATOM      2  C   UNL     1      -1.864  -0.845   1.223  0.00  0.00    +0.258 C 
ATOM      3  O   UNL     1      -2.957  -1.366   1.306  0.00  0.00    -0.272 OA
ENDROOT
BRANCH   1   4
ATOM      4  C   UNL     1      -2.157  -0.668  -1.143  0.00  0.00    +0.140 A 
ATOM      5  C   UNL     1      -1.809  -1.585  -2.114  0.00  0.00    +0.127 A 
ATOM      6  N   UNL     1      -2.602  -1.714  -3.231  0.00  0.00    -0.280 N 
ATOM      7  C   UNL     1      -3.703  -0.956  -3.375  0.00  0.00    +0.331 A 
ATOM      8  O   UNL     1      -4.391  -1.085  -4.369  0.00  0.00    -0.246 OA
ATOM      9  N   UNL     1      -4.058  -0.057  -2.440  0.00  0.00    -0.273 N 
ATOM     10  H   UNL     1      -4.879   0.498  -2.573  0.00  0.00    +0.173 HD
ATOM     11  C   UNL     1      -3.319   0.105  -1.324  0.00  0.00    +0.277 A 
ATOM     12  O   UNL     1      -3.652   0.919  -0.480  0.00  0.00    -0.266 OA
BRANCH   5  13
ATOM     13  N   UNL     1      -0.684  -2.360  -1.967  0.00  0.00    -0.343 N 
ATOM     14  H   UNL     1      -0.090  -2.215  -1.214  0.00  0.00    +0.144 HD
ATOM     15  H   UNL     1      -0.483  -3.052  -2.616  0.00  0.00    +0.144 HD
ENDBRANCH   5  13
BRANCH   6  16
ATOM     16  C   UNL     1      -2.244  -2.683  -4.269  0.00  0.00    +0.131 C 
BRANCH  16  17
ATOM     17  C   UNL     1      -2.902  -4.029  -3.959  0.00  0.00    +0.003 C 
ATOM     18  C   UNL     1      -4.423  -3.885  -4.046  0.00  0.00    +0.009 C 
ATOM     19  C   UNL     1      -2.430  -5.074  -4.973  0.00  0.00    +0.009 C 
ENDBRANCH  16  17
ENDBRANCH   6  16
ENDBRANCH   1   4
BRANCH   1  20
ATOM     20  C   UNL     1      -0.000   0.009  -0.097  0.00  0.00    +0.114 C 
BRANCH  20  21
ATOM     21  C   UNL     1      -0.037   1.538  -0.091  0.00  0.00    +0.019 C 
BRANCH  21  23
ATOM     22  C   UNL     1       1.351   3.612  -0.202  0.00  0.00    +0.004 C 
ATOM     23  C   UNL     1       1.388   2.083  -0.207  0.00  0.00    -0.002 C 
ENDBRANCH  21  23
ENDBRANCH  20  21
ENDBRANCH   1  20
BRANCH   2  24
ATOM     24  C   UNL     1      -1.065  -0.567   2.470  0.00  0.00    +0.325 C 
BRANCH  24  25
ATOM     25  O   UNL     1      -1.800  -1.005   3.614  0.00  0.00    -0.480 OA
BRANCH  25  26
ATOM     26  C   UNL     1      -1.216  -0.827   4.829  0.00  0.00    +0.158 A 
ATOM     27  C   UNL     1      -0.411  -1.821   5.366  0.00  0.00    +0.084 A 
ATOM     28  C   UNL     1       0.186  -1.635   6.599  0.00  0.00    +0.024 A 
ATOM     29  C   UNL     1      -0.027  -0.463   7.302  0.00  0.00    +0.003 A 
ATOM     30  C   UNL     1      -0.833   0.527   6.771  0.00  0.00    +0.024 A 
ATOM     31  C   UNL     1      -1.429   0.348   5.537  0.00  0.00    +0.084 A 
ATOM     32 CL   UNL     1      -2.441   1.592   4.872  0.00  0.00    -0.080 Cl
ATOM     33 CL   UNL     1      -0.149  -3.296   4.488  0.00  0.00    -0.080 Cl
ENDBRANCH  25  26
ENDBRANCH  24  25
ENDBRANCH   2  24
TORSDOF 10
