REMARK  Name = ZINC01495359
REMARK  6 active torsions:
REMARK  status: ('A' for Active; 'I' for Inactive)
REMARK    1  A    between atoms: C_1  and  C_2
REMARK    2  A    between atoms: C_4  and  C_24
REMARK    3  A    between atoms: C_6  and  C_8
REMARK    4  A    between atoms: C_8  and  N_9
REMARK    5  A    between atoms: C_10  and  N_18
REMARK    6  A    between atoms: N_14  and  C_17
REMARK                            x       y       z     vdW  Elec       q    Type
REMARK                         _______ _______ _______ _____ _____    ______ ____
ROOT
ATOM      1  N   UNL     1      -1.616   3.310   2.618  0.00  0.00    -0.277 N 
ATOM      2  C   UNL     1      -2.019   2.310   3.469  0.00  0.00    +0.111 A 
ATOM      3  C   UNL     1      -1.873   1.005   3.087  0.00  0.00    +0.112 A 
ATOM      4  C   UNL     1      -1.314   0.720   1.832  0.00  0.00    +0.258 A 
ATOM      5  O   UNL     1      -1.174  -0.436   1.471  0.00  0.00    -0.267 OA
ATOM      6  N   UNL     1      -0.932   1.732   1.028  0.00  0.00    -0.264 N 
ATOM      7  C   UNL     1      -1.078   3.010   1.421  0.00  0.00    +0.333 A 
ATOM      8  O   UNL     1      -0.722   3.908   0.682  0.00  0.00    -0.246 OA
ATOM      9  C   UNL     1      -0.347   1.438  -0.283  0.00  0.00    +0.157 C 
ENDROOT
BRANCH   2  10
ATOM     10  N   UNL     1      -2.562   2.617   4.689  0.00  0.00    -0.316 N 
ATOM     11  C   UNL     1      -1.782   2.017   5.779  0.00  0.00    +0.106 C 
ATOM     12  C   UNL     1      -2.329   2.498   7.125  0.00  0.00    +0.019 C 
ATOM     13  C   UNL     1      -3.801   2.096   7.245  0.00  0.00    +0.003 C 
ATOM     14  C   UNL     1      -4.583   2.693   6.072  0.00  0.00    +0.019 C 
ATOM     15  C   UNL     1      -3.971   2.206   4.757  0.00  0.00    +0.106 C 
ENDBRANCH   2  10
BRANCH   1  16
ATOM     16  C   UNL     1      -1.768   4.711   3.017  0.00  0.00    +0.163 C 
BRANCH  16  22
ATOM     17  C   UNL     1       1.267   5.235   6.961  0.00  0.00    +0.044 C 
ATOM     18  C   UNL     1       0.976   5.458   5.500  0.00  0.00    -0.050 A 
ATOM     19  C   UNL     1       1.895   6.118   4.705  0.00  0.00    +0.006 A 
ATOM     20  C   UNL     1       1.628   6.323   3.364  0.00  0.00    -0.050 A 
ATOM     21  C   UNL     1       0.443   5.868   2.818  0.00  0.00    +0.008 A 
ATOM     22  C   UNL     1      -0.476   5.207   3.612  0.00  0.00    -0.027 A 
ATOM     23  C   UNL     1      -0.211   5.007   4.954  0.00  0.00    +0.008 A 
ATOM     24  C   UNL     1       2.630   7.042   2.498  0.00  0.00    +0.044 C 
ENDBRANCH  16  22
ENDBRANCH   1  16
TORSDOF 3
