REMARK  Name = ZINC42667326
REMARK  10 active torsions:
REMARK  status: ('A' for Active; 'I' for Inactive)
REMARK    1  A    between atoms: C_1  and  C_2
REMARK    2  A    between atoms: C_2  and  C_4
REMARK    3  A    between atoms: C_2  and  N_16
REMARK    4  A    between atoms: N_6  and  C_7
REMARK    5  A    between atoms: C_12  and  C_13
REMARK    6  A    between atoms: C_13  and  C_14
REMARK    7  A    between atoms: C_13  and  C_15
REMARK    8  A    between atoms: N_16  and  C_17
REMARK    9  A    between atoms: C_20  and  N_23
REMARK   10  A    between atoms: N_26  and  C_27
REMARK                            x       y       z     vdW  Elec       q    Type
REMARK                         _______ _______ _______ _____ _____    ______ ____
ROOT
ATOM      1  N   UNL     1       0.880  -0.496  -0.491  0.00  0.00    -0.333 N 
ATOM      2  H   UNL     1       1.806  -0.724  -0.666  0.00  0.00    +0.147 HD
ENDROOT
BRANCH   1   3
ATOM      3  C   UNL     1      -0.046  -0.476  -1.539  0.00  0.00    +0.028 A 
ATOM      4  C   UNL     1      -1.372  -0.144  -1.289  0.00  0.00    +0.025 A 
ATOM      5  C   UNL     1      -2.285  -0.124  -2.324  0.00  0.00    +0.025 A 
ATOM      6  C   UNL     1      -1.880  -0.436  -3.615  0.00  0.00    +0.035 A 
ATOM      7  C   UNL     1      -0.555  -0.769  -3.865  0.00  0.00    +0.025 A 
ATOM      8  C   UNL     1       0.360  -0.783  -2.831  0.00  0.00    +0.025 A 
BRANCH   6   9
ATOM      9  N   UNL     1      -2.808  -0.417  -4.665  0.00  0.00    -0.269 N 
ATOM     10  C   UNL     1      -3.902   0.365  -4.583  0.00  0.00    +0.304 C 
ATOM     11  O   UNL     1      -4.034   1.131  -3.648  0.00  0.00    -0.253 OA
ATOM     12  N   UNL     1      -4.852   0.298  -5.537  0.00  0.00    -0.296 N 
ATOM     13  H   UNL     1      -2.662  -0.966  -5.452  0.00  0.00    +0.156 HD
ATOM     14  H   UNL     1      -4.747  -0.313  -6.284  0.00  0.00    +0.151 HD
BRANCH  12  15
ATOM     15  C   UNL     1      -6.042   1.148  -5.448  0.00  0.00    +0.075 C 
ATOM     16  C   UNL     1      -7.394   0.504  -5.757  0.00  0.00    +0.024 C 
ATOM     17  C   UNL     1      -6.769   1.485  -6.751  0.00  0.00    +0.024 C 
ENDBRANCH  12  15
ENDBRANCH   6   9
ENDBRANCH   1   3
BRANCH   1  19
ATOM     18  C   UNL     1       0.480   1.345   1.069  0.00  0.00    +0.038 C 
ATOM     19  C   UNL     1       0.450  -0.172   0.872  0.00  0.00    +0.154 C 
BRANCH  19  20
ATOM     20  C   UNL     1       1.381  -0.826   1.861  0.00  0.00    +0.237 C 
ATOM     21  O   UNL     1       2.311  -1.497   1.466  0.00  0.00    -0.273 OA
ATOM     22  N   UNL     1       1.179  -0.666   3.184  0.00  0.00    -0.284 N 
ATOM     23  H   UNL     1       0.488  -0.064   3.499  0.00  0.00    +0.155 HD
BRANCH  22  24
ATOM     24  C   UNL     1       1.968  -1.368   4.101  0.00  0.00    +0.037 A 
ATOM     25  C   UNL     1       2.571  -2.563   3.730  0.00  0.00    +0.023 A 
ATOM     26  C   UNL     1       3.349  -3.253   4.638  0.00  0.00    +0.002 A 
ATOM     27  C   UNL     1       3.528  -2.756   5.917  0.00  0.00    +0.000 A 
ATOM     28  C   UNL     1       2.929  -1.568   6.290  0.00  0.00    +0.006 A 
ATOM     29  C   UNL     1       2.155  -0.869   5.384  0.00  0.00    -0.024 A 
BRANCH  29  30
ATOM     30  C   UNL     1       1.508   0.431   5.789  0.00  0.00    +0.015 C 
ATOM     31  C   UNL     1       0.666   0.211   7.047  0.00  0.00    +0.012 C 
ATOM     32  C   UNL     1       2.591   1.472   6.075  0.00  0.00    +0.012 C 
ENDBRANCH  29  30
ENDBRANCH  22  24
ENDBRANCH  19  20
ENDBRANCH   1  19
TORSDOF 7
