REMARK  Name = ZINC36305786
REMARK  17 active torsions:
REMARK  status: ('A' for Active; 'I' for Inactive)
REMARK    1  A    between atoms: C_1  and  C_2
REMARK    2  A    between atoms: C_2  and  C_3
REMARK    3  A    between atoms: C_3  and  C_5
REMARK    4  A    between atoms: C_3  and  N_6
REMARK    5  A    between atoms: N_6  and  C_7
REMARK    6  A    between atoms: N_6  and  C_29
REMARK    7  A    between atoms: C_7  and  C_8
REMARK    8  A    between atoms: C_9  and  C_23
REMARK    9  A    between atoms: N_11  and  C_22
REMARK   10  A    between atoms: C_12  and  O_13
REMARK   11  A    between atoms: O_13  and  C_14
REMARK   12  A    between atoms: C_19  and  O_20
REMARK   13  A    between atoms: O_20  and  C_21
REMARK   14  A    between atoms: C_29  and  C_30
REMARK   15  A    between atoms: C_30  and  C_32
REMARK   16  A    between atoms: C_30  and  O_39
REMARK   17  A    between atoms: C_32  and  C_33
REMARK                            x       y       z     vdW  Elec       q    Type
REMARK                         _______ _______ _______ _____ _____    ______ ____
ROOT
ATOM      1  C   UNL     1      -0.617   1.799  -1.985  0.00  0.00    +0.025 A 
ATOM      2  C   UNL     1      -0.386   1.781  -3.373  0.00  0.00    +0.098 A 
ATOM      3  N   UNL     1       0.887   2.043  -3.580  0.00  0.00    -0.168 NA
ATOM      4  N   UNL     1       1.504   2.235  -2.337  0.00  0.00    -0.235 N 
ATOM      5  C   UNL     1       0.560   2.086  -1.372  0.00  0.00    +0.221 A 
ATOM      6  C   UNL     1       2.918   2.547  -2.117  0.00  0.00    +0.176 C 
ENDROOT
BRANCH   2   7
ATOM      7  C   UNL     1      -1.401   1.513  -4.422  0.00  0.00    +0.002 A 
ATOM      8  C   UNL     1      -2.405   0.573  -4.199  0.00  0.00    +0.010 A 
ATOM      9  C   UNL     1      -3.348   0.328  -5.177  0.00  0.00    +0.001 A 
ATOM     10  C   UNL     1      -3.296   1.013  -6.378  0.00  0.00    +0.000 A 
ATOM     11  C   UNL     1      -2.301   1.947  -6.605  0.00  0.00    +0.001 A 
ATOM     12  C   UNL     1      -1.357   2.204  -5.631  0.00  0.00    +0.010 A 
ENDBRANCH   2   7
BRANCH   1  13
ATOM     13  C   UNL     1      -1.936   1.551  -1.301  0.00  0.00    -0.035 C 
BRANCH  13  14
ATOM     14  N   UNL     1      -2.055   0.125  -0.970  0.00  0.00    +0.386 N 
ATOM     15  H   UNL     1      -1.901  -0.428  -1.800  0.00  0.00    -0.081 HD
BRANCH  14  16
ATOM     16  C   UNL     1      -1.055  -0.227   0.046  0.00  0.00    -0.071 C 
ATOM     17  C   UNL     1      -1.649  -0.019   1.441  0.00  0.00    -0.013 C 
BRANCH  16  19
ATOM     18  C   UNL     1       0.070  -1.873  -1.459  0.00  0.00    +0.002 C 
ATOM     19  C   UNL     1      -0.651  -1.693  -0.122  0.00  0.00    -0.019 C 
ENDBRANCH  16  19
ENDBRANCH  14  16
BRANCH  14  20
ATOM     20  C   UNL     1      -3.401  -0.146  -0.446  0.00  0.00    -0.046 C 
BRANCH  20  21
ATOM     21  C   UNL     1      -3.592  -1.655  -0.284  0.00  0.00    +0.102 C 
BRANCH  21  22
ATOM     22  O   UNL     1      -3.302  -2.307  -1.522  0.00  0.00    -0.393 OA
ATOM     23  H   UNL     1      -3.865  -2.025  -2.256  0.00  0.00    +0.210 HD
ENDBRANCH  21  22
BRANCH  21  24
ATOM     24  C   UNL     1      -5.039  -1.946   0.119  0.00  0.00    +0.064 C 
BRANCH  24  25
ATOM     25  C   UNL     1      -5.196  -3.419   0.398  0.00  0.00    -0.045 A 
ATOM     26  C   UNL     1      -5.545  -4.282  -0.624  0.00  0.00    +0.004 A 
ATOM     27  C   UNL     1      -5.689  -5.633  -0.368  0.00  0.00    +0.000 A 
ATOM     28  C   UNL     1      -5.485  -6.120   0.909  0.00  0.00    +0.000 A 
ATOM     29  C   UNL     1      -5.135  -5.257   1.930  0.00  0.00    +0.000 A 
ATOM     30  C   UNL     1      -4.986  -3.907   1.674  0.00  0.00    +0.004 A 
ENDBRANCH  24  25
ENDBRANCH  21  24
ENDBRANCH  20  21
ENDBRANCH  14  20
ENDBRANCH  13  14
ENDBRANCH   1  13
BRANCH   5  31
ATOM     31  O   UNL     1       0.759   2.200  -0.034  0.00  0.00    -0.434 OA
BRANCH  31  32
ATOM     32  C   UNL     1       0.532   3.410   0.544  0.00  0.00    +0.172 A 
ATOM     33  C   UNL     1       0.011   4.452  -0.207  0.00  0.00    +0.050 A 
ATOM     34  C   UNL     1      -0.220   5.681   0.382  0.00  0.00    +0.004 A 
ATOM     35  C   UNL     1       0.069   5.874   1.720  0.00  0.00    +0.004 A 
ATOM     36  C   UNL     1       0.590   4.840   2.475  0.00  0.00    +0.049 A 
ATOM     37  C   UNL     1       0.818   3.603   1.892  0.00  0.00    +0.162 A 
BRANCH  37  38
ATOM     38  O   UNL     1       1.324   2.583   2.635  0.00  0.00    -0.491 OA
ATOM     39  C   UNL     1       1.593   2.854   4.012  0.00  0.00    +0.277 C 
ENDBRANCH  37  38
ENDBRANCH  31  32
ENDBRANCH   5  31
TORSDOF 13
