REMARK  Name = ZINC36822342
REMARK  7 active torsions:
REMARK  status: ('A' for Active; 'I' for Inactive)
REMARK    1  A    between atoms: C_1  and  C_2
REMARK    2  A    between atoms: C_2  and  C_4
REMARK    3  A    between atoms: C_2  and  N_12
REMARK    4  A    between atoms: C_13  and  C_15
REMARK    5  A    between atoms: C_15  and  N_16
REMARK    6  A    between atoms: C_19  and  C_23
REMARK    7  A    between atoms: C_19  and  C_24
REMARK                            x       y       z     vdW  Elec       q    Type
REMARK                         _______ _______ _______ _____ _____    ______ ____
ROOT
ATOM      1  N   UNL     1       4.181  -1.104  -2.214  0.00  0.00    -0.215 N 
ATOM      2  C   UNL     1       5.010  -0.068  -2.449  0.00  0.00    +0.251 C 
ATOM      3  O   UNL     1       4.713   1.024  -2.883  0.00  0.00    -0.272 OA
ATOM      4  C   UNL     1       6.392  -0.552  -2.057  0.00  0.00    +0.136 C 
ATOM      5  N   UNL     1       6.160  -1.934  -1.605  0.00  0.00    -0.281 N 
ATOM      6  C   UNL     1       4.840  -2.163  -1.729  0.00  0.00    +0.310 C 
ATOM      7  O   UNL     1       4.306  -3.214  -1.436  0.00  0.00    -0.252 OA
ATOM      8  C   UNL     1       7.332  -0.532  -3.265  0.00  0.00    +0.047 C 
ATOM      9  H   UNL     1       6.827  -2.557  -1.278  0.00  0.00    +0.152 HD
ENDROOT
BRANCH   4  10
ATOM     10  C   UNL     1       6.949   0.287  -0.936  0.00  0.00    +0.003 A 
ATOM     11  C   UNL     1       7.288  -0.304   0.267  0.00  0.00    +0.009 A 
ATOM     12  C   UNL     1       7.799   0.464   1.296  0.00  0.00    +0.020 A 
ATOM     13  C   UNL     1       7.972   1.826   1.122  0.00  0.00    +0.042 A 
ATOM     14  C   UNL     1       7.635   2.418  -0.082  0.00  0.00    +0.040 A 
ATOM     15  C   UNL     1       7.128   1.647  -1.113  0.00  0.00    +0.048 A 
ATOM     16 CL   UNL     1       6.709   2.389  -2.626  0.00  0.00    -0.083 Cl
ATOM     17 CL   UNL     1       8.614   2.791   2.414  0.00  0.00    -0.083 Cl
ENDBRANCH   4  10
BRANCH   1  18
ATOM     18  C   UNL     1       2.736  -1.073  -2.455  0.00  0.00    +0.213 C 
BRANCH  18  20
ATOM     19  N   UNL     1       0.688  -0.476  -1.203  0.00  0.00    -0.307 N 
ATOM     20  C   UNL     1       2.031  -0.587  -1.215  0.00  0.00    +0.231 C 
ATOM     21  O   UNL     1       2.672  -0.295  -0.228  0.00  0.00    -0.274 OA
ATOM     22  H   UNL     1       0.175  -0.710  -1.993  0.00  0.00    +0.149 HD
BRANCH  19  24
ATOM     23  C   UNL     1      -0.019   1.526   0.010  0.00  0.00    +0.033 C 
ATOM     24  C   UNL     1       0.002  -0.004   0.002  0.00  0.00    +0.100 C 
BRANCH  24  25
ATOM     25  C   UNL     1      -1.412  -0.526   0.013  0.00  0.00    -0.026 A 
ATOM     26  C   UNL     1      -2.141  -0.569  -1.161  0.00  0.00    +0.007 A 
ATOM     27  C   UNL     1      -3.438  -1.046  -1.153  0.00  0.00    +0.022 A 
ATOM     28  C   UNL     1      -4.007  -1.482   0.031  0.00  0.00    +0.059 A 
ATOM     29  C   UNL     1      -3.276  -1.440   1.206  0.00  0.00    +0.060 A 
ATOM     30  C   UNL     1      -1.976  -0.966   1.195  0.00  0.00    +0.027 A 
ATOM     31 CL   UNL     1      -3.989  -1.986   2.692  0.00  0.00    -0.082 Cl
ATOM     32 CL   UNL     1      -5.636  -2.082   0.042  0.00  0.00    -0.082 Cl
ENDBRANCH  24  25
ENDBRANCH  19  24
ENDBRANCH  18  20
ENDBRANCH   1  18
TORSDOF 5
