REMARK  Name = ZINC13640308
REMARK  8 active torsions:
REMARK  status: ('A' for Active; 'I' for Inactive)
REMARK    1  A    between atoms: C_4  and  O_7
REMARK    2  A    between atoms: O_7  and  C_8
REMARK    3  A    between atoms: C_8  and  C_9
REMARK    4  A    between atoms: C_9  and  O_10
REMARK    5  A    between atoms: O_10  and  C_11
REMARK    6  A    between atoms: C_18  and  C_27
REMARK    7  A    between atoms: C_30  and  O_34
REMARK    8  A    between atoms: C_32  and  O_33
REMARK                            x       y       z     vdW  Elec       q    Type
REMARK                         _______ _______ _______ _____ _____    ______ ____
ROOT
ATOM      1  C   UNL     1      -2.290   5.173  -2.944  0.00  0.00    +0.142 A 
ATOM      2  C   UNL     1      -3.587   5.339  -2.494  0.00  0.00    +0.047 A 
ATOM      3  C   UNL     1      -3.946   4.866  -1.246  0.00  0.00    +0.004 A 
ATOM      4  C   UNL     1      -3.012   4.231  -0.453  0.00  0.00    +0.006 A 
ATOM      5  C   UNL     1      -1.706   4.057  -0.894  0.00  0.00    -0.016 A 
ATOM      6  C   UNL     1      -1.343   4.530  -2.141  0.00  0.00    +0.074 A 
ATOM      7  N   UNL     1      -0.046   4.389  -2.642  0.00  0.00    -0.334 N 
ATOM      8  C   UNL     1       0.649   3.241  -2.058  0.00  0.00    +0.109 C 
ATOM      9  C   UNL     1       0.696   3.395  -0.536  0.00  0.00    +0.029 C 
ATOM     10  C   UNL     1      -0.744   3.353   0.017  0.00  0.00    +0.049 C 
ATOM     11  C   UNL     1      -1.067   1.878   0.089  0.00  0.00    -0.023 C 
ATOM     12  C   UNL     1       0.033   1.168   0.114  0.00  0.00    -0.030 C 
ATOM     13  C   UNL     1       1.250   2.070   0.060  0.00  0.00    +0.033 C 
ATOM     14  H   UNL     1       0.486   5.237  -2.513  0.00  0.00    +0.147 HD
ENDROOT
BRANCH   8  15
ATOM     15  C   UNL     1       2.054   3.174  -2.600  0.00  0.00    +0.015 A 
ATOM     16  C   UNL     1       3.115   3.596  -1.822  0.00  0.00    +0.012 A 
ATOM     17  C   UNL     1       4.404   3.536  -2.316  0.00  0.00    +0.046 A 
ATOM     18  C   UNL     1       4.636   3.051  -3.595  0.00  0.00    +0.120 A 
ATOM     19  C   UNL     1       3.573   2.628  -4.378  0.00  0.00    +0.091 A 
ATOM     20  C   UNL     1       2.281   2.684  -3.878  0.00  0.00    +0.125 A 
BRANCH  20  21
ATOM     21  O   UNL     1       1.238   2.265  -4.641  0.00  0.00    -0.506 OA
ATOM     22  H   UNL     1       0.848   2.959  -5.190  0.00  0.00    +0.292 HD
ENDBRANCH  20  21
BRANCH  18  23
ATOM     23  O   UNL     1       5.904   2.993  -4.081  0.00  0.00    -0.507 OA
ATOM     24  H   UNL     1       6.357   2.159  -3.897  0.00  0.00    +0.292 HD
ENDBRANCH  18  23
ENDBRANCH   8  15
BRANCH   1  25
ATOM     25  O   UNL     1      -1.934   5.637  -4.171  0.00  0.00    -0.487 OA
BRANCH  25  26
ATOM     26  C   UNL     1      -2.950   6.285  -4.940  0.00  0.00    +0.270 C 
BRANCH  26  27
ATOM     27  C   UNL     1      -2.366   6.736  -6.280  0.00  0.00    +0.270 C 
BRANCH  27  28
ATOM     28  O   UNL     1      -1.986   5.589  -7.045  0.00  0.00    -0.489 OA
BRANCH  28  32
ATOM     29  C   UNL     1      -0.346   6.278 -10.767  0.00  0.00    +0.000 A 
ATOM     30  C   UNL     1      -0.506   4.982 -10.312  0.00  0.00    +0.004 A 
ATOM     31  C   UNL     1      -1.055   4.749  -9.066  0.00  0.00    +0.045 A 
ATOM     32  C   UNL     1      -1.446   5.816  -8.271  0.00  0.00    +0.121 A 
ATOM     33  C   UNL     1      -1.290   7.115  -8.731  0.00  0.00    +0.045 A 
ATOM     34  C   UNL     1      -0.735   7.344  -9.976  0.00  0.00    +0.004 A 
ENDBRANCH  28  32
ENDBRANCH  27  28
ENDBRANCH  26  27
ENDBRANCH  25  26
ENDBRANCH   1  25
TORSDOF 8
