REMARK  Name = ZINC43298758
REMARK  4 active torsions:
REMARK  status: ('A' for Active; 'I' for Inactive)
REMARK    1  A    between atoms: C_3  and  N_12
REMARK    2  A    between atoms: C_4  and  C_10
REMARK    3  A    between atoms: C_6  and  N_7
REMARK    4  A    between atoms: C_15  and  C_17
REMARK                            x       y       z     vdW  Elec       q    Type
REMARK                         _______ _______ _______ _____ _____    ______ ____
ROOT
ATOM      1  C   UNL     1      -0.017   1.377  -0.039  0.00  0.00    +0.035 A 
ATOM      2  C   UNL     1       1.168   2.086  -0.036  0.00  0.00    +0.030 A 
ATOM      3  C   UNL     1       2.380   1.410  -0.002  0.00  0.00    +0.070 A 
ATOM      4  C   UNL     1       2.397   0.022   0.028  0.00  0.00    -0.005 A 
ATOM      5  C   UNL     1       1.208  -0.682   0.025  0.00  0.00    +0.039 A 
ATOM      6  C   UNL     1       0.003  -0.005  -0.009  0.00  0.00    +0.127 A 
ENDROOT
BRANCH   3   7
ATOM      7  N   UNL     1       3.585   2.127   0.001  0.00  0.00    -0.239 N 
ATOM      8  C   UNL     1       3.902   3.152  -0.822  0.00  0.00    +0.115 A 
ATOM      9  C   UNL     1       5.149   3.569  -0.497  0.00  0.00    +0.054 A 
ATOM     10  C   UNL     1       5.608   2.773   0.557  0.00  0.00    +0.166 A 
ATOM     11  N   UNL     1       4.670   1.912   0.860  0.00  0.00    -0.162 NA
BRANCH  10  12
ATOM     12  C   UNL     1       6.950   2.890   1.232  0.00  0.00    +0.436 C 
ATOM     13  F   UNL     1       6.855   3.780   2.308  0.00  0.00    -0.164 F 
ATOM     14  F   UNL     1       7.348   1.633   1.700  0.00  0.00    -0.164 F 
ATOM     15  F   UNL     1       7.894   3.367   0.316  0.00  0.00    -0.164 F 
ENDBRANCH  10  12
ENDBRANCH   3   7
BRANCH   6  16
ATOM     16  N   UNL     1      -1.269  -0.762  -0.012  0.00  0.00    +0.056 N 
ATOM     17  O   UNL     1      -2.324  -0.172  -0.041  0.00  0.00    -0.126 OA
ATOM     18  O   UNL     1      -1.253  -1.971   0.015  0.00  0.00    -0.126 OA
ENDBRANCH   6  16
BRANCH   4  19
ATOM     19  C   UNL     1       3.710  -0.716   0.065  0.00  0.00    +0.146 C 
ATOM     20 CL   UNL     1       4.143  -1.089   1.775  0.00  0.00    -0.120 Cl
ENDBRANCH   4  19
TORSDOF 4
