REMARK  Name = ZINC39531453
REMARK  9 active torsions:
REMARK  status: ('A' for Active; 'I' for Inactive)
REMARK    1  A    between atoms: C_4  and  C_7
REMARK    2  A    between atoms: C_7  and  C_8
REMARK    3  A    between atoms: C_11  and  C_14
REMARK    4  A    between atoms: C_14  and  C_16
REMARK    5  A    between atoms: C_14  and  N_19
REMARK    6  A    between atoms: C_16  and  N_17
REMARK    7  A    between atoms: C_23  and  S_26
REMARK    8  A    between atoms: S_26  and  O_29
REMARK    9  A    between atoms: O_29  and  C_30
REMARK                            x       y       z     vdW  Elec       q    Type
REMARK                         _______ _______ _______ _____ _____    ______ ____
ROOT
ATOM      1  C   UNL     1       5.450  -1.675   5.388  0.00  0.00    +0.102 C 
ENDROOT
BRANCH   1   2
ATOM      2  N   UNL     1       5.707  -3.104   5.613  0.00  0.00    -0.296 NA
ATOM      3  C   UNL     1       4.457  -3.827   5.886  0.00  0.00    +0.066 C 
ATOM      4  C   UNL     1       4.760  -5.317   6.056  0.00  0.00    -0.064 C 
ATOM      5  N   UNL     1       5.705  -5.502   7.165  0.00  0.00    +0.398 N 
ATOM      6  C   UNL     1       6.957  -4.795   6.866  0.00  0.00    +0.130 C 
ATOM      7  C   UNL     1       6.672  -3.300   6.703  0.00  0.00    +0.095 C 
ATOM      8  H   UNL     1       5.304  -5.132   8.013  0.00  0.00    -0.083 HD
ATOM      9  H   UNL     1       5.895  -6.486   7.284  0.00  0.00    -0.083 HD
BRANCH   6  10
ATOM     10  S   UNL     1       8.131  -5.042   8.226  0.00  0.00    +0.109 S 
ATOM     11  O   UNL     1       9.404  -4.517   7.876  0.00  0.00    -0.138 OA
ATOM     12  O   UNL     1       7.523  -4.702   9.465  0.00  0.00    -0.138 OA
BRANCH  10  13
ATOM     13  O   UNL     1       8.338  -6.548   8.295  0.00  0.00    -0.347 OA
BRANCH  13  14
ATOM     14  C   UNL     1       9.123  -7.044   7.303  0.00  0.00    +0.156 A 
ATOM     15  C   UNL     1       8.554  -7.457   6.107  0.00  0.00    +0.048 A 
ATOM     16  C   UNL     1       9.354  -7.961   5.100  0.00  0.00    +0.004 A 
ATOM     17  C   UNL     1      10.721  -8.053   5.283  0.00  0.00    +0.000 A 
ATOM     18  C   UNL     1      11.291  -7.643   6.474  0.00  0.00    +0.004 A 
ATOM     19  C   UNL     1      10.496  -7.133   7.482  0.00  0.00    +0.048 A 
ENDBRANCH  13  14
ENDBRANCH  10  13
ENDBRANCH   6  10
ENDBRANCH   1   2
BRANCH   1  23
ATOM     20  C   UNL     1       3.801  -1.122   1.486  0.00  0.00    -0.043 A 
ATOM     21  C   UNL     1       4.145  -0.025   2.253  0.00  0.00    +0.004 A 
ATOM     22  C   UNL     1       4.678  -0.203   3.515  0.00  0.00    +0.005 A 
ATOM     23  C   UNL     1       4.867  -1.480   4.012  0.00  0.00    -0.029 A 
ATOM     24  C   UNL     1       4.523  -2.577   3.245  0.00  0.00    +0.005 A 
ATOM     25  C   UNL     1       3.986  -2.398   1.984  0.00  0.00    +0.004 A 
BRANCH  20  26
ATOM     26  C   UNL     1       3.220  -0.927   0.109  0.00  0.00    +0.070 C 
BRANCH  26  30
ATOM     27  C   UNL     1      -1.035  -0.663   0.383  0.00  0.00    +0.000 A 
ATOM     28  C   UNL     1      -0.264   0.481   0.473  0.00  0.00    +0.000 A 
ATOM     29  C   UNL     1       1.113   0.396   0.384  0.00  0.00    +0.004 A 
ATOM     30  C   UNL     1       1.719  -0.834   0.206  0.00  0.00    -0.043 A 
ATOM     31  C   UNL     1       0.948  -1.978   0.117  0.00  0.00    +0.004 A 
ATOM     32  C   UNL     1      -0.429  -1.892   0.204  0.00  0.00    +0.000 A 
ENDBRANCH  26  30
ENDBRANCH  20  26
ENDBRANCH   1  23
BRANCH   1  33
ATOM     33  C   UNL     1       4.461  -1.163   6.437  0.00  0.00    +0.122 C 
BRANCH  33  34
ATOM     34  N   UNL     1       5.014  -1.383   7.780  0.00  0.00    -0.231 NA
ATOM     35 CL   UNL     1       3.938  -0.824   8.986  0.00  0.00    -0.024 Cl
ATOM     36  H   UNL     1       5.920  -0.949   7.874  0.00  0.00    +0.141 HD
ENDBRANCH  33  34
ENDBRANCH   1  33
TORSDOF 9
