REMARK  Name = ZINC05026041
REMARK  3 active torsions:
REMARK  status: ('A' for Active; 'I' for Inactive)
REMARK    1  A    between atoms: C_1  and  C_2
REMARK    2  A    between atoms: C_2  and  C_3
REMARK    3  A    between atoms: C_6  and  N_9
REMARK                            x       y       z     vdW  Elec       q    Type
REMARK                         _______ _______ _______ _____ _____    ______ ____
ROOT
ATOM      1  N   UNL     1       0.048  -2.761  -0.139  0.00  0.00    -0.248 N 
ATOM      2  C   UNL     1       1.239  -2.122  -0.194  0.00  0.00    +0.267 A 
ATOM      3  O   UNL     1       2.278  -2.737  -0.356  0.00  0.00    -0.267 OA
ATOM      4  C   UNL     1       1.234  -0.660  -0.051  0.00  0.00    +0.065 A 
ATOM      5  C   UNL     1       2.409   0.089  -0.094  0.00  0.00    +0.015 A 
ATOM      6  C   UNL     1       2.348   1.448   0.045  0.00  0.00    +0.001 A 
ATOM      7  C   UNL     1       1.128   2.088   0.226  0.00  0.00    +0.002 A 
ATOM      8  C   UNL     1      -0.038   1.378   0.273  0.00  0.00    +0.028 A 
ATOM      9  C   UNL     1      -0.008  -0.012   0.135  0.00  0.00    +0.080 A 
ATOM     10  N   UNL     1      -1.140  -0.754   0.174  0.00  0.00    -0.215 NA
ATOM     11  C   UNL     1      -1.109  -2.057   0.044  0.00  0.00    +0.206 A 
ATOM     12  N   UNL     1      -2.294  -2.747   0.094  0.00  0.00    -0.301 N 
ATOM     13  C   UNL     1      -2.377  -3.574   1.325  0.00  0.00    +0.108 C 
ATOM     14  C   UNL     1      -3.897  -3.832   1.477  0.00  0.00    +0.020 C 
ATOM     15  C   UNL     1      -4.522  -2.492   1.025  0.00  0.00    +0.020 C 
ATOM     16  C   UNL     1      -3.446  -1.821   0.152  0.00  0.00    +0.108 C 
ENDROOT
BRANCH   1  20
ATOM     17  C   UNL     1      -0.097  -6.908  -0.530  0.00  0.00    -0.047 A 
ATOM     18  C   UNL     1       0.501  -6.340   0.580  0.00  0.00    +0.005 A 
ATOM     19  C   UNL     1       0.550  -4.966   0.713  0.00  0.00    +0.026 A 
ATOM     20  C   UNL     1      -0.001  -4.155  -0.271  0.00  0.00    +0.053 A 
ATOM     21  C   UNL     1      -0.604  -4.728  -1.382  0.00  0.00    +0.026 A 
ATOM     22  C   UNL     1      -0.646  -6.103  -1.511  0.00  0.00    +0.005 A 
BRANCH  17  24
ATOM     23  C   UNL     1      -1.432  -8.936  -0.028  0.00  0.00    +0.009 C 
ATOM     24  C   UNL     1      -0.148  -8.407  -0.672  0.00  0.00    +0.032 C 
ENDBRANCH  17  24
ENDBRANCH   1  20
TORSDOF 2
