REMARK  Name = ZINC64318796
REMARK  5 active torsions:
REMARK  status: ('A' for Active; 'I' for Inactive)
REMARK    1  A    between atoms: C_1  and  C_2
REMARK    2  A    between atoms: C_3  and  C_16
REMARK    3  A    between atoms: C_8  and  C_10
REMARK    4  A    between atoms: C_16  and  C_17
REMARK    5  A    between atoms: C_27  and  C_29
REMARK                            x       y       z     vdW  Elec       q    Type
REMARK                         _______ _______ _______ _____ _____    ______ ____
ROOT
ATOM      1  C   UNL     1      -0.018   1.503   0.010  0.00  0.00    +0.066 C 
ATOM      2  C   UNL     1       0.002  -0.004   0.002  0.00  0.00    +0.049 A 
ATOM      3  C   UNL     1      -1.170  -0.700   0.004  0.00  0.00    +0.047 A 
ATOM      4  C   UNL     1      -1.124  -2.110  -0.005  0.00  0.00    +0.256 A 
ATOM      5  O   UNL     1      -2.153  -2.765  -0.004  0.00  0.00    -0.267 OA
ATOM      6  N   UNL     1       0.081  -2.719  -0.014  0.00  0.00    -0.307 N 
ATOM      7  H   UNL     1       0.137  -3.687  -0.020  0.00  0.00    +0.170 HD
ATOM      8  C   UNL     1       1.217  -1.968  -0.015  0.00  0.00    +0.141 A 
ATOM      9  N   UNL     1       1.165  -0.653  -0.013  0.00  0.00    -0.234 NA
ENDROOT
BRANCH   8  10
ATOM     10  C   UNL     1       2.534  -2.642  -0.026  0.00  0.00    +0.020 A 
ATOM     11  C   UNL     1       2.626  -4.038  -0.040  0.00  0.00    +0.031 A 
ATOM     12  C   UNL     1       3.876  -4.626  -0.050  0.00  0.00    +0.111 A 
ATOM     13  N   UNL     1       4.970  -3.891  -0.046  0.00  0.00    -0.263 NA
ATOM     14  C   UNL     1       4.928  -2.573  -0.032  0.00  0.00    +0.111 A 
ATOM     15  C   UNL     1       3.721  -1.902  -0.027  0.00  0.00    +0.031 A 
ENDBRANCH   8  10
BRANCH   3  16
ATOM     16  C   UNL     1      -2.492   0.024   0.015  0.00  0.00    +0.138 C 
BRANCH  16  17
ATOM     17  C   UNL     1      -2.999   0.165  -1.397  0.00  0.00    +0.220 C 
ATOM     18  O   UNL     1      -2.351  -0.279  -2.321  0.00  0.00    -0.275 OA
ATOM     19  N   UNL     1      -4.173   0.784  -1.633  0.00  0.00    -0.298 N 
ATOM     20  C   UNL     1      -4.972   1.335  -0.527  0.00  0.00    +0.108 C 
ATOM     21  C   UNL     1      -5.283   2.806  -0.818  0.00  0.00    +0.019 C 
ATOM     22  C   UNL     1      -5.936   2.933  -2.197  0.00  0.00    +0.007 C 
ATOM     23  C   UNL     1      -4.969   2.411  -3.260  0.00  0.00    +0.010 C 
ATOM     24  C   UNL     1      -4.685   0.933  -2.999  0.00  0.00    +0.079 C 
ATOM     25  C   UNL     1      -3.657   0.437  -4.015  0.00  0.00    +0.023 C 
ATOM     26  C   UNL     1      -4.230   0.602  -5.426  0.00  0.00    +0.005 C 
ATOM     27  C   UNL     1      -4.551   2.075  -5.687  0.00  0.00    -0.014 C 
ATOM     28  C   UNL     1      -5.567   2.568  -4.657  0.00  0.00    +0.008 C 
ATOM     29  C   UNL     1      -3.267   2.900  -5.587  0.00  0.00    +0.007 C 
ENDBRANCH  16  17
ENDBRANCH   3  16
TORSDOF 3
