REMARK  Name = ZINC35375859
REMARK  7 active torsions:
REMARK  status: ('A' for Active; 'I' for Inactive)
REMARK    1  A    between atoms: C_1  and  C_2
REMARK    2  A    between atoms: C_2  and  C_30
REMARK    3  A    between atoms: C_6  and  S_13
REMARK    4  A    between atoms: S_13  and  N_16
REMARK    5  A    between atoms: N_16  and  C_17
REMARK    6  A    between atoms: N_20  and  C_23
REMARK    7  A    between atoms: C_23  and  C_24
REMARK                            x       y       z     vdW  Elec       q    Type
REMARK                         _______ _______ _______ _____ _____    ______ ____
ROOT
ATOM      1  S   UNL     1       0.106  -5.880  -0.165  0.00  0.00    +0.059 S 
ATOM      2  O   UNL     1      -0.420  -6.993   0.545  0.00  0.00    -0.153 OA
ATOM      3  O   UNL     1      -0.463  -5.414  -1.381  0.00  0.00    -0.153 OA
ENDROOT
BRANCH   1   9
ATOM      4  C   UNL     1      -0.018   1.503   0.010  0.00  0.00    +0.039 C 
ATOM      5  C   UNL     1       0.002  -0.004   0.002  0.00  0.00    -0.063 C 
ATOM      6  C   UNL     1       0.022  -0.682   1.163  0.00  0.00    +0.045 C 
ATOM      7  C   UNL     1       0.050  -2.155   1.350  0.00  0.00    +0.010 A 
ATOM      8  C   UNL     1       0.063  -3.225   0.465  0.00  0.00    +0.039 A 
ATOM      9  C   UNL     1       0.090  -4.517   0.952  0.00  0.00    +0.106 A 
ATOM     10  C   UNL     1       0.103  -4.742   2.318  0.00  0.00    +0.030 A 
ATOM     11  C   UNL     1       0.091  -3.685   3.205  0.00  0.00    +0.026 A 
ATOM     12  C   UNL     1       0.065  -2.377   2.731  0.00  0.00    +0.042 A 
ATOM     13  N   UNL     1       0.048  -1.155   3.396  0.00  0.00    -0.281 N 
ATOM     14  C   UNL     1       0.028  -0.125   2.534  0.00  0.00    +0.249 C 
ATOM     15  O   UNL     1       0.015   1.056   2.827  0.00  0.00    -0.270 OA
ATOM     16  C   UNL     1      -0.000  -0.750  -1.307  0.00  0.00    +0.039 C 
ATOM     17  H   UNL     1       0.053  -1.059   4.361  0.00  0.00    +0.155 HD
ENDBRANCH   1   9
BRANCH   1  18
ATOM     18  N   UNL     1       1.692  -6.230  -0.487  0.00  0.00    -0.187 NA
ATOM     19  H   UNL     1       2.042  -6.114  -1.385  0.00  0.00    +0.148 HD
BRANCH  18  20
ATOM     20  C   UNL     1       2.567  -6.715   0.583  0.00  0.00    +0.073 C 
ATOM     21  C   UNL     1       3.339  -5.537   1.186  0.00  0.00    +0.002 C 
ATOM     22  C   UNL     1       4.309  -6.061   2.247  0.00  0.00    -0.077 C 
ATOM     23  N   UNL     1       5.252  -7.003   1.633  0.00  0.00    +0.382 N 
ATOM     24  C   UNL     1       4.525  -8.169   1.116  0.00  0.00    -0.077 C 
ATOM     25  C   UNL     1       3.563  -7.727   0.011  0.00  0.00    +0.002 C 
ATOM     26  H   UNL     1       5.736  -6.546   0.874  0.00  0.00    -0.081 HD
BRANCH  23  27
ATOM     27  C   UNL     1       6.228  -7.443   2.638  0.00  0.00    -0.043 C 
BRANCH  27  28
ATOM     28  C   UNL     1       7.269  -8.313   1.981  0.00  0.00    -0.064 A 
ATOM     29  C   UNL     1       7.075  -9.679   1.900  0.00  0.00    +0.002 A 
ATOM     30  C   UNL     1       8.030 -10.477   1.297  0.00  0.00    +0.000 A 
ATOM     31  C   UNL     1       9.177  -9.909   0.775  0.00  0.00    +0.000 A 
ATOM     32  C   UNL     1       9.369  -8.543   0.856  0.00  0.00    +0.000 A 
ATOM     33  C   UNL     1       8.413  -7.744   1.455  0.00  0.00    +0.002 A 
ENDBRANCH  27  28
ENDBRANCH  23  27
ENDBRANCH  18  20
ENDBRANCH   1  18
TORSDOF 5
