REMARK  Name = ZINC09821085
REMARK  10 active torsions:
REMARK  status: ('A' for Active; 'I' for Inactive)
REMARK    1  A    between atoms: C_1  and  C_2
REMARK    2  A    between atoms: C_6  and  C_8
REMARK    3  A    between atoms: C_11  and  S_19
REMARK    4  A    between atoms: N_12  and  C_13
REMARK    5  A    between atoms: C_13  and  C_14
REMARK    6  A    between atoms: S_19  and  C_20
REMARK    7  A    between atoms: C_20  and  C_21
REMARK    8  A    between atoms: N_23  and  C_24
REMARK    9  A    between atoms: C_29  and  C_30
REMARK   10  A    between atoms: N_32  and  C_33
REMARK                            x       y       z     vdW  Elec       q    Type
REMARK                         _______ _______ _______ _____ _____    ______ ____
ROOT
ATOM      1  S   UNL     1      -1.128   8.110  -0.293  0.00  0.00    -0.077 S 
ENDROOT
BRANCH   1   5
ATOM      2  C   UNL     1       0.027   4.401   0.116  0.00  0.00    +0.165 A 
ATOM      3  N   UNL     1       1.068   5.076   0.546  0.00  0.00    -0.128 NA
ATOM      4  N   UNL     1       0.836   6.337   0.465  0.00  0.00    -0.122 NA
ATOM      5  C   UNL     1      -0.370   6.545  -0.013  0.00  0.00    +0.193 A 
ATOM      6  N   UNL     1      -0.927   5.321  -0.251  0.00  0.00    -0.295 N 
BRANCH   2  12
ATOM      7  C   UNL     1       2.154  -0.112  -0.000  0.00  0.00    +0.044 C 
ATOM      8  C   UNL     1       0.921   0.755  -0.010  0.00  0.00    -0.050 A 
ATOM      9  C   UNL     1      -0.332   0.173  -0.084  0.00  0.00    +0.003 A 
ATOM     10  C   UNL     1      -1.468   0.962  -0.100  0.00  0.00    +0.001 A 
ATOM     11  C   UNL     1      -1.359   2.336  -0.029  0.00  0.00    +0.011 A 
ATOM     12  C   UNL     1      -0.098   2.929   0.046  0.00  0.00    +0.020 A 
ATOM     13  C   UNL     1       1.045   2.127   0.055  0.00  0.00    +0.015 A 
ENDBRANCH   2  12
BRANCH   6  14
ATOM     14  C   UNL     1      -2.262   5.045  -0.788  0.00  0.00    +0.200 C 
BRANCH  14  15
ATOM     15  C   UNL     1      -3.269   5.067   0.334  0.00  0.00    +0.125 A 
ATOM     16  C   UNL     1      -3.946   6.147   0.762  0.00  0.00    +0.046 A 
ATOM     17  C   UNL     1      -4.777   5.716   1.822  0.00  0.00    +0.041 A 
ATOM     18  C   UNL     1      -4.551   4.400   1.983  0.00  0.00    +0.195 A 
ATOM     19  O   UNL     1      -3.637   4.012   1.079  0.00  0.00    -0.466 OA
ENDBRANCH  14  15
ENDBRANCH   6  14
ENDBRANCH   1   5
BRANCH   1  20
ATOM     20  C   UNL     1       0.204   9.207   0.253  0.00  0.00    +0.173 C 
BRANCH  20  21
ATOM     21  C   UNL     1      -0.231  10.642   0.099  0.00  0.00    +0.228 C 
ATOM     22  O   UNL     1      -1.334  10.897  -0.337  0.00  0.00    -0.275 OA
ATOM     23  N   UNL     1       0.605  11.640   0.445  0.00  0.00    -0.284 N 
ATOM     24  H   UNL     1       1.515  11.440   0.715  0.00  0.00    +0.155 HD
BRANCH  23  25
ATOM     25  C   UNL     1       0.162  12.961   0.416  0.00  0.00    +0.046 A 
ATOM     26  C   UNL     1      -1.190  13.247   0.552  0.00  0.00    +0.024 A 
ATOM     27  C   UNL     1      -1.625  14.556   0.527  0.00  0.00    +0.002 A 
ATOM     28  C   UNL     1      -0.722  15.593   0.357  0.00  0.00    +0.001 A 
ATOM     29  C   UNL     1       0.623  15.328   0.215  0.00  0.00    +0.015 A 
ATOM     30  C   UNL     1       1.079  14.008   0.243  0.00  0.00    +0.058 A 
BRANCH  30  31
ATOM     31  C   UNL     1       2.518  13.717   0.091  0.00  0.00    +0.246 C 
ATOM     32  O   UNL     1       2.901  12.565   0.018  0.00  0.00    -0.270 OA
ATOM     33  N   UNL     1       3.407  14.728   0.033  0.00  0.00    -0.308 N 
ATOM     34  H   UNL     1       3.102  15.646   0.091  0.00  0.00    +0.149 HD
BRANCH  33  35
ATOM     35  C   UNL     1       4.835  14.439  -0.119  0.00  0.00    +0.073 C 
ATOM     36  C   UNL     1       5.813  15.234   0.749  0.00  0.00    +0.024 C 
ATOM     37  C   UNL     1       5.712  15.522  -0.750  0.00  0.00    +0.024 C 
ENDBRANCH  33  35
ENDBRANCH  30  31
ENDBRANCH  23  25
ENDBRANCH  20  21
ENDBRANCH   1  20
TORSDOF 9
