REMARK  Name = ZINC09429348
REMARK  8 active torsions:
REMARK  status: ('A' for Active; 'I' for Inactive)
REMARK    1  A    between atoms: C_1  and  C_2
REMARK    2  A    between atoms: C_5  and  N_9
REMARK    3  A    between atoms: C_6  and  C_8
REMARK    4  A    between atoms: C_10  and  C_12
REMARK    5  A    between atoms: N_15  and  S_18
REMARK    6  A    between atoms: S_18  and  C_21
REMARK    7  A    between atoms: C_28  and  C_36
REMARK    8  A    between atoms: C_31  and  C_33
REMARK                            x       y       z     vdW  Elec       q    Type
REMARK                         _______ _______ _______ _____ _____    ______ ____
ROOT
ATOM      1  C   UNL     1      -3.310   6.309  -3.735  0.00  0.00    +0.078 C 
ATOM      2  C   UNL     1      -4.127   5.325  -2.894  0.00  0.00    +0.030 C 
ATOM      3  C   UNL     1      -3.185   4.299  -2.257  0.00  0.00    +0.110 C 
ATOM      4  N   UNL     1      -2.145   5.014  -1.506  0.00  0.00    -0.177 NA
ATOM      5  C   UNL     1      -1.363   6.051  -2.195  0.00  0.00    +0.110 C 
ATOM      6  C   UNL     1      -2.322   7.054  -2.834  0.00  0.00    +0.030 C 
ENDROOT
BRANCH   1   8
ATOM      7  N   UNL     1      -3.736   8.268  -5.184  0.00  0.00    -0.285 N 
ATOM      8  C   UNL     1      -4.237   7.300  -4.391  0.00  0.00    +0.220 C 
ATOM      9  O   UNL     1      -5.433   7.226  -4.204  0.00  0.00    -0.275 OA
ATOM     10  H   UNL     1      -2.787   8.291  -5.380  0.00  0.00    +0.155 HD
BRANCH   7  15
ATOM     11  C   UNL     1      -7.184  12.203  -7.378  0.00  0.00    +0.044 C 
ATOM     12  C   UNL     1      -6.268  11.158  -6.795  0.00  0.00    -0.050 A 
ATOM     13  C   UNL     1      -6.771   9.918  -6.442  0.00  0.00    +0.005 A 
ATOM     14  C   UNL     1      -5.934   8.956  -5.913  0.00  0.00    +0.024 A 
ATOM     15  C   UNL     1      -4.587   9.238  -5.725  0.00  0.00    +0.036 A 
ATOM     16  C   UNL     1      -4.085  10.483  -6.080  0.00  0.00    -0.029 A 
ATOM     17  C   UNL     1      -4.927  11.439  -6.613  0.00  0.00    +0.008 A 
ATOM     18  C   UNL     1      -2.623  10.791  -5.882  0.00  0.00    +0.045 C 
ENDBRANCH   7  15
ENDBRANCH   1   8
BRANCH   4  19
ATOM     19  S   UNL     1      -1.862   4.663   0.087  0.00  0.00    +0.061 S 
ATOM     20  O   UNL     1      -3.062   4.097   0.597  0.00  0.00    -0.153 OA
ATOM     21  O   UNL     1      -1.263   5.818   0.657  0.00  0.00    -0.153 OA
BRANCH  19  22
ATOM     22  C   UNL     1      -0.645   3.390   0.133  0.00  0.00    +0.106 A 
ATOM     23  C   UNL     1       0.698   3.716   0.179  0.00  0.00    +0.030 A 
ATOM     24  C   UNL     1       1.653   2.722   0.214  0.00  0.00    +0.026 A 
ATOM     25  C   UNL     1       1.272   1.379   0.203  0.00  0.00    +0.040 A 
ATOM     26  C   UNL     1      -0.077   1.063   0.156  0.00  0.00    -0.022 A 
ATOM     27  C   UNL     1      -1.030   2.062   0.126  0.00  0.00    +0.034 A 
ATOM     28  C   UNL     1      -0.218  -0.443   0.153  0.00  0.00    +0.059 C 
ATOM     29  C   UNL     1       1.226  -0.967   0.205  0.00  0.00    +0.083 C 
ATOM     30  N   UNL     1       2.069   0.231   0.233  0.00  0.00    -0.268 N 
ATOM     31  C   UNL     1       3.416   0.227   0.281  0.00  0.00    +0.223 C 
ATOM     32  O   UNL     1       4.028   1.272   0.216  0.00  0.00    -0.275 OA
ATOM     33  C   UNL     1       1.444  -1.799   1.470  0.00  0.00    +0.029 C 
BRANCH  31  34
ATOM     34  C   UNL     1       4.162  -1.076   0.414  0.00  0.00    +0.076 C 
ATOM     35  C   UNL     1       4.994  -1.287   1.681  0.00  0.00    +0.013 C 
ATOM     36  C   UNL     1       5.689  -1.026   0.343  0.00  0.00    +0.013 C 
ENDBRANCH  31  34
ENDBRANCH  19  22
ENDBRANCH   4  19
TORSDOF 5
