REMARK  Name = ZINC01776359
REMARK  14 active torsions:
REMARK  status: ('A' for Active; 'I' for Inactive)
REMARK    1  A    between atoms: C_1  and  C_2
REMARK    2  A    between atoms: C_2  and  C_3
REMARK    3  A    between atoms: C_2  and  C_4
REMARK    4  A    between atoms: C_2  and  C_5
REMARK    5  A    between atoms: C_8  and  C_11
REMARK    6  A    between atoms: C_14  and  S_24
REMARK    7  A    between atoms: N_15  and  C_16
REMARK    8  A    between atoms: C_19  and  O_22
REMARK    9  A    between atoms: O_22  and  C_23
REMARK   10  A    between atoms: S_24  and  C_25
REMARK   11  A    between atoms: C_25  and  C_26
REMARK   12  A    between atoms: N_28  and  N_29
REMARK   13  A    between atoms: C_30  and  C_31
REMARK   14  A    between atoms: C_34  and  N_37
REMARK                            x       y       z     vdW  Elec       q    Type
REMARK                         _______ _______ _______ _____ _____    ______ ____
ROOT
ATOM      1  C   UNL     1       2.047   0.585  -0.014  0.00  0.00    +0.169 A 
ATOM      2  N   UNL     1       1.214  -0.430  -0.012  0.00  0.00    -0.128 NA
ATOM      3  N   UNL     1       0.002  -0.004   0.002  0.00  0.00    -0.122 NA
ATOM      4  C   UNL     1      -0.016   1.310   0.009  0.00  0.00    +0.197 A 
ATOM      5  N   UNL     1       1.285   1.733  -0.001  0.00  0.00    -0.270 N 
ENDROOT
BRANCH   1   9
ATOM      6  C   UNL     1       6.289   0.372  -0.054  0.00  0.00    -0.042 A 
ATOM      7  C   UNL     1       5.540  -0.750  -0.364  0.00  0.00    +0.005 A 
ATOM      8  C   UNL     1       4.162  -0.687  -0.353  0.00  0.00    +0.012 A 
ATOM      9  C   UNL     1       3.523   0.511  -0.028  0.00  0.00    +0.020 A 
ATOM     10  C   UNL     1       4.285   1.640   0.278  0.00  0.00    +0.012 A 
ATOM     11  C   UNL     1       5.662   1.562   0.269  0.00  0.00    +0.005 A 
BRANCH   6  13
ATOM     12  C   UNL     1       8.271  -0.095  -1.468  0.00  0.00    +0.015 C 
ATOM     13  C   UNL     1       7.794   0.296  -0.068  0.00  0.00    -0.013 C 
ATOM     14  C   UNL     1       8.377   1.660   0.307  0.00  0.00    +0.015 C 
ATOM     15  C   UNL     1       8.261  -0.754   0.942  0.00  0.00    +0.015 C 
ENDBRANCH   6  13
ENDBRANCH   1   9
BRANCH   5  16
ATOM     16  C   UNL     1       1.747   3.058   0.001  0.00  0.00    +0.051 A 
ATOM     17  C   UNL     1       2.449   3.550  -1.090  0.00  0.00    +0.030 A 
ATOM     18  C   UNL     1       2.898   4.856  -1.090  0.00  0.00    +0.047 A 
ATOM     19  C   UNL     1       2.657   5.672   0.006  0.00  0.00    +0.120 A 
ATOM     20  C   UNL     1       1.961   5.179   1.099  0.00  0.00    +0.047 A 
ATOM     21  C   UNL     1       1.506   3.875   1.097  0.00  0.00    +0.030 A 
BRANCH  19  22
ATOM     22  O   UNL     1       3.104   6.956   0.008  0.00  0.00    -0.495 OA
ATOM     23  C   UNL     1       3.814   7.398  -1.151  0.00  0.00    +0.277 C 
ENDBRANCH  19  22
ENDBRANCH   5  16
BRANCH   4  24
ATOM     24  S   UNL     1      -1.448   2.337   0.022  0.00  0.00    -0.076 S 
BRANCH  24  25
ATOM     25  C   UNL     1      -2.742   1.070   0.022  0.00  0.00    +0.174 C 
BRANCH  25  26
ATOM     26  C   UNL     1      -4.094   1.734   0.033  0.00  0.00    +0.242 C 
ATOM     27  O   UNL     1      -4.176   2.945   0.039  0.00  0.00    -0.273 OA
ATOM     28  N   UNL     1      -5.214   0.984   0.035  0.00  0.00    -0.206 N 
ATOM     29  H   UNL     1      -5.149   0.016   0.029  0.00  0.00    +0.177 HD
BRANCH  28  30
ATOM     30  N   UNL     1      -6.471   1.601   0.044  0.00  0.00    -0.188 NA
ATOM     31  C   UNL     1      -7.549   0.878   0.046  0.00  0.00    +0.138 C 
BRANCH  31  32
ATOM     32  C   UNL     1      -8.873   1.528   0.057  0.00  0.00    -0.005 A 
ATOM     33  C   UNL     1      -8.970   2.921   0.070  0.00  0.00    +0.012 A 
ATOM     34  C   UNL     1     -10.212   3.522   0.074  0.00  0.00    +0.033 A 
ATOM     35  C   UNL     1     -11.359   2.748   0.076  0.00  0.00    +0.126 A 
ATOM     36  C   UNL     1     -11.270   1.367   0.068  0.00  0.00    +0.033 A 
ATOM     37  C   UNL     1     -10.035   0.753   0.059  0.00  0.00    +0.012 A 
BRANCH  35  38
ATOM     38  N   UNL     1     -12.688   3.401   0.086  0.00  0.00    +0.056 N 
ATOM     39  O   UNL     1     -13.699   2.722   0.089  0.00  0.00    -0.126 OA
ATOM     40  O   UNL     1     -12.770   4.616   0.093  0.00  0.00    -0.126 OA
ENDBRANCH  35  38
ENDBRANCH  31  32
ENDBRANCH  28  30
ENDBRANCH  25  26
ENDBRANCH  24  25
ENDBRANCH   4  24
TORSDOF 10
