REMARK  Name = ZINC36054057
REMARK  10 active torsions:
REMARK  status: ('A' for Active; 'I' for Inactive)
REMARK    1  A    between atoms: C_1  and  C_2
REMARK    2  A    between atoms: C_5  and  C_31
REMARK    3  A    between atoms: C_6  and  C_8
REMARK    4  A    between atoms: C_8  and  N_9
REMARK    5  A    between atoms: N_9  and  C_10
REMARK    6  A    between atoms: N_9  and  C_22
REMARK    7  A    between atoms: C_10  and  C_11
REMARK    8  A    between atoms: C_11  and  C_12
REMARK    9  A    between atoms: C_22  and  C_23
REMARK   10  A    between atoms: C_25  and  C_28
REMARK                            x       y       z     vdW  Elec       q    Type
REMARK                         _______ _______ _______ _____ _____    ______ ____
ROOT
ATOM      1  N   UNK     1       1.692  -3.171   2.673  0.00  0.00    +0.388 N 
ATOM      2  H   UNK     1       2.141  -3.623   1.890  0.00  0.00    -0.081 HD
ENDROOT
BRANCH   1   3
ATOM      3  C   UNK     1       0.311  -2.822   2.311  0.00  0.00    -0.042 C 
BRANCH   3   9
ATOM      4  C   UNK     1      -0.112   1.621   0.048  0.00  0.00    +0.044 C 
ATOM      5  C   UNK     1       0.114   0.133  -0.030  0.00  0.00    -0.050 A 
ATOM      6  C   UNK     1       0.325  -0.471  -1.256  0.00  0.00    +0.003 A 
ATOM      7  C   UNK     1       0.531  -1.836  -1.327  0.00  0.00    +0.004 A 
ATOM      8  C   UNK     1       0.527  -2.597  -0.173  0.00  0.00    -0.049 A 
ATOM      9  C   UNK     1       0.317  -1.993   1.053  0.00  0.00    -0.061 A 
ATOM     10  C   UNK     1       0.114  -0.627   1.124  0.00  0.00    +0.005 A 
ATOM     11  C   UNK     1       0.751  -4.085  -0.250  0.00  0.00    +0.044 C 
ENDBRANCH   3   9
ENDBRANCH   1   3
BRANCH   1  12
ATOM     12  C   UNK     1       1.680  -4.084   3.824  0.00  0.00    -0.073 C 
BRANCH  12  13
ATOM     13  C   UNK     1       1.021  -5.405   3.421  0.00  0.00    +0.019 C 
BRANCH  13  14
ATOM     14  C   UNK     1       1.009  -6.341   4.601  0.00  0.00    -0.024 A 
ATOM     15  C   UNK     1       1.921  -7.286   4.880  0.00  0.00    +0.087 A 
ATOM     16  N   UNK     1       1.579  -7.939   6.033  0.00  0.00    -0.360 N 
ATOM     17  H   UNK     1       2.086  -8.662   6.435  0.00  0.00    +0.165 HD
ATOM     18  C   UNK     1       0.409  -7.417   6.537  0.00  0.00    +0.047 A 
ATOM     19  C   UNK     1       0.004  -6.389   5.665  0.00  0.00    +0.003 A 
ATOM     20  C   UNK     1      -1.162  -5.669   5.932  0.00  0.00    +0.010 A 
ATOM     21  C   UNK     1      -1.903  -5.965   7.041  0.00  0.00    +0.001 A 
ATOM     22  C   UNK     1      -1.506  -6.975   7.906  0.00  0.00    +0.002 A 
ATOM     23  C   UNK     1      -0.364  -7.704   7.657  0.00  0.00    +0.026 A 
ENDBRANCH  13  14
ENDBRANCH  12  13
ENDBRANCH   1  12
BRANCH   1  24
ATOM     24  C   UNK     1       2.429  -1.950   3.024  0.00  0.00    +0.017 C 
BRANCH  24  25
ATOM     25  C   UNK     1       3.878  -2.290   3.263  0.00  0.00    +0.158 A 
ATOM     26  N   UNK     1       4.822  -2.227   2.373  0.00  0.00    -0.323 N 
ATOM     27  C   UNK     1       5.992  -2.608   2.957  0.00  0.00    +0.166 A 
ATOM     28  C   UNK     1       5.710  -2.908   4.257  0.00  0.00    +0.230 A 
ATOM     29  O   UNK     1       4.396  -2.699   4.430  0.00  0.00    -0.451 OA
ATOM     30  H   UNK     1       4.712  -1.956   1.448  0.00  0.00    +0.169 HD
BRANCH  27  31
ATOM     31  C   UNK     1       7.309  -2.682   2.308  0.00  0.00    +0.406 C 
ATOM     32  O   UNK     1       7.445  -2.297   1.155  0.00  0.00    -0.239 OA
ATOM     33  O   UNK     1       8.268  -3.130   2.921  0.00  0.00    -0.239 OA
ENDBRANCH  27  31
ENDBRANCH  24  25
ENDBRANCH   1  24
TORSDOF 8
