REMARK  Name = ZINC14880777
REMARK  13 active torsions:
REMARK  status: ('A' for Active; 'I' for Inactive)
REMARK    1  A    between atoms: C_1  and  C_2
REMARK    2  A    between atoms: C_3  and  C_7
REMARK    3  A    between atoms: C_7  and  N_8
REMARK    4  A    between atoms: N_8  and  C_9
REMARK    5  A    between atoms: C_9  and  C_10
REMARK    6  A    between atoms: C_15  and  O_22
REMARK    7  A    between atoms: C_16  and  O_20
REMARK    8  A    between atoms: C_17  and  O_18
REMARK    9  A    between atoms: O_18  and  C_19
REMARK   10  A    between atoms: O_20  and  C_21
REMARK   11  A    between atoms: O_22  and  C_23
REMARK   12  A    between atoms: C_25  and  N_26
REMARK   13  A    between atoms: C_30  and  O_33
REMARK                            x       y       z     vdW  Elec       q    Type
REMARK                         _______ _______ _______ _____ _____    ______ ____
ROOT
ATOM      1  C   UNL     1      -4.107   3.425  -0.434  0.00  0.00    -0.024 A 
ATOM      2  C   UNL     1      -2.963   2.811  -0.019  0.00  0.00    +0.019 A 
ATOM      3  C   UNL     1      -2.019   3.570   0.697  0.00  0.00    +0.046 A 
ATOM      4  C   UNL     1      -2.289   4.936   0.959  0.00  0.00    +0.080 A 
ATOM      5  C   UNL     1      -1.351   5.698   1.674  0.00  0.00    +0.078 A 
ATOM      6  C   UNL     1      -0.183   5.116   2.111  0.00  0.00    +0.167 A 
ATOM      7  C   UNL     1       0.083   3.765   1.859  0.00  0.00    +0.204 A 
ATOM      8  C   UNL     1      -0.818   2.994   1.154  0.00  0.00    +0.174 A 
ATOM      9  N   UNL     1      -3.430   5.486   0.526  0.00  0.00    -0.232 NA
ATOM     10  C   UNL     1      -4.317   4.779  -0.145  0.00  0.00    +0.123 A 
ENDROOT
BRANCH  10  11
ATOM     11  N   UNL     1      -5.487   5.390  -0.574  0.00  0.00    -0.313 N 
ATOM     12  C   UNL     1      -6.523   5.331   0.465  0.00  0.00    +0.106 C 
ATOM     13  C   UNL     1      -7.838   5.882  -0.092  0.00  0.00    +0.021 C 
ATOM     14  C   UNL     1      -7.627   7.329  -0.547  0.00  0.00    +0.034 C 
ATOM     15  C   UNL     1      -6.510   7.368  -1.594  0.00  0.00    +0.132 C 
ATOM     16  C   UNL     1      -5.234   6.775  -0.993  0.00  0.00    +0.137 C 
BRANCH  15  17
ATOM     17  O   UNL     1      -6.269   8.722  -1.983  0.00  0.00    -0.390 OA
ATOM     18  H   UNL     1      -5.496   8.950  -2.732  0.00  0.00    +0.210 HD
ENDBRANCH  15  17
ENDBRANCH  10  11
BRANCH   8  19
ATOM     19  O   UNL     1      -0.551   1.685   0.907  0.00  0.00    -0.491 OA
ATOM     20  C   UNL     1      -0.945   0.742   1.907  0.00  0.00    +0.277 C 
ENDBRANCH   8  19
BRANCH   7  21
ATOM     21  O   UNL     1       1.242   3.209   2.307  0.00  0.00    -0.488 OA
ATOM     22  C   UNL     1       2.379   3.299   1.447  0.00  0.00    +0.277 C 
ENDBRANCH   7  21
BRANCH   6  23
ATOM     23  O   UNL     1       0.721   5.860   2.802  0.00  0.00    -0.491 OA
ATOM     24  C   UNL     1       0.391   7.231   3.033  0.00  0.00    +0.277 C 
ENDBRANCH   6  23
BRANCH   1  25
ATOM     25  C   UNL     1      -5.144   2.648  -1.204  0.00  0.00    -0.043 C 
BRANCH  25  26
ATOM     26  N   UNL     1      -5.053   2.988  -2.630  0.00  0.00    +0.386 N 
ATOM     27  H   UNL     1      -4.044   2.735  -2.989  0.00  0.00    -0.085 HD
ATOM     28  H   UNL     1      -5.223   4.069  -2.747  0.00  0.00    -0.085 HD
BRANCH  26  29
ATOM     29  C   UNL     1      -6.051   2.248  -3.413  0.00  0.00    -0.020 C 
BRANCH  29  32
ATOM     30  C   UNL     1      -4.213   0.792  -5.518  0.00  0.00    +0.071 C 
ATOM     31  C   UNL     1      -5.105   1.971  -5.809  0.00  0.00    +0.103 A 
ATOM     32  C   UNL     1      -5.926   2.622  -4.868  0.00  0.00    +0.090 A 
ATOM     33  N   UNL     1      -6.565   3.593  -5.451  0.00  0.00    -0.056 NA
ATOM     34  O   UNL     1      -6.164   3.608  -6.812  0.00  0.00    -0.242 OA
ATOM     35  N   UNL     1      -5.236   2.546  -6.967  0.00  0.00    -0.054 NA
ENDBRANCH  29  32
ENDBRANCH  26  29
ENDBRANCH  25  26
ENDBRANCH   1  25
TORSDOF 9
