REMARK  Name = ZINC56575280
REMARK  6 active torsions:
REMARK  status: ('A' for Active; 'I' for Inactive)
REMARK    1  A    between atoms: C_8  and  C_12
REMARK    2  A    between atoms: C_12  and  N_13
REMARK    3  A    between atoms: N_16  and  C_17
REMARK    4  A    between atoms: C_22  and  O_23
REMARK    5  A    between atoms: O_23  and  C_24
REMARK    6  A    between atoms: C_24  and  C_25
REMARK                            x       y       z     vdW  Elec       q    Type
REMARK                         _______ _______ _______ _____ _____    ______ ____
ROOT
ATOM      1  N   UNL     1       4.268  -4.632  -0.300  0.00  0.00    -0.299 N 
ATOM      2  C   UNL     1       4.570  -5.938  -0.161  0.00  0.00    +0.304 C 
ATOM      3  O   UNL     1       4.154  -6.559   0.799  0.00  0.00    -0.253 OA
ATOM      4  N   UNL     1       5.332  -6.556  -1.085  0.00  0.00    -0.266 N 
ATOM      5  H   UNL     1       4.599  -4.137  -1.065  0.00  0.00    +0.150 HD
ATOM      6  H   UNL     1       5.610  -6.079  -1.882  0.00  0.00    +0.156 HD
ENDROOT
BRANCH   4   7
ATOM      7  C   UNL     1       5.724  -7.888  -0.893  0.00  0.00    +0.077 A 
ATOM      8  C   UNL     1       4.870  -8.780  -0.261  0.00  0.00    +0.027 A 
ATOM      9  C   UNL     1       5.258 -10.093  -0.073  0.00  0.00    +0.002 A 
ATOM     10  C   UNL     1       6.497 -10.521  -0.514  0.00  0.00    +0.004 A 
ATOM     11  C   UNL     1       7.354  -9.637  -1.145  0.00  0.00    +0.047 A 
ATOM     12  C   UNL     1       6.969  -8.321  -1.342  0.00  0.00    +0.142 A 
BRANCH  12  13
ATOM     13  O   UNL     1       7.808  -7.452  -1.967  0.00  0.00    -0.488 OA
BRANCH  13  14
ATOM     14  C   UNL     1       9.069  -7.966  -2.400  0.00  0.00    +0.260 C 
BRANCH  14  15
ATOM     15  C   UNL     1       9.870  -6.851  -3.076  0.00  0.00    +0.156 C 
ATOM     16  C   UNL     1      11.166  -7.429  -3.650  0.00  0.00    +0.035 C 
ATOM     17  C   UNL     1      11.989  -6.297  -4.271  0.00  0.00    +0.005 C 
ATOM     18  C   UNL     1      12.251  -5.227  -3.207  0.00  0.00    +0.028 C 
ATOM     19  C   UNL     1      10.913  -4.734  -2.651  0.00  0.00    +0.160 C 
ATOM     20  O   UNL     1      10.184  -5.841  -2.116  0.00  0.00    -0.373 OA
ENDBRANCH  14  15
ENDBRANCH  13  14
ENDBRANCH  12  13
ENDBRANCH   4   7
BRANCH   1  21
ATOM     21  C   UNL     1       3.439  -3.961   0.704  0.00  0.00    +0.113 C 
BRANCH  21  29
ATOM     22  C   UNL     1       1.290   1.813   1.436  0.00  0.00    +0.000 A 
ATOM     23  C   UNL     1       2.337   2.428   0.775  0.00  0.00    +0.004 A 
ATOM     24  C   UNL     1       3.373   1.670   0.270  0.00  0.00    +0.046 A 
ATOM     25  C   UNL     1       3.369   0.287   0.424  0.00  0.00    +0.124 A 
ATOM     26  C   UNL     1       2.321  -0.325   1.089  0.00  0.00    -0.005 A 
ATOM     27  C   UNL     1       1.282   0.441   1.592  0.00  0.00    +0.007 A 
ATOM     28  C   UNL     1       2.283  -1.819   1.288  0.00  0.00    +0.047 C 
ATOM     29  C   UNL     1       3.249  -2.494   0.311  0.00  0.00    +0.048 C 
ATOM     30  C   UNL     1       4.594  -1.761   0.379  0.00  0.00    +0.234 C 
ATOM     31  O   UNL     1       4.404  -0.426  -0.092  0.00  0.00    -0.491 OA
ENDBRANCH  21  29
ENDBRANCH   1  21
TORSDOF 6
