REMARK  Name = ZINC39997846
REMARK  9 active torsions:
REMARK  status: ('A' for Active; 'I' for Inactive)
REMARK    1  A    between atoms: C_1  and  C_2
REMARK    2  A    between atoms: C_2  and  C_3
REMARK    3  A    between atoms: C_3  and  C_4
REMARK    4  A    between atoms: C_7  and  N_9
REMARK    5  A    between atoms: C_10  and  C_12
REMARK    6  A    between atoms: C_12  and  C_32
REMARK    7  A    between atoms: C_13  and  C_14
REMARK    8  A    between atoms: N_16  and  C_26
REMARK    9  A    between atoms: C_18  and  C_19
REMARK                            x       y       z     vdW  Elec       q    Type
REMARK                         _______ _______ _______ _____ _____    ______ ____
ROOT
ATOM      1  C   UNL     1       1.145 -10.694   1.145  0.00  0.00    +0.022 A 
ATOM      2  C   UNL     1       0.017 -11.158   1.802  0.00  0.00    +0.123 A 
ATOM      3  N   UNL     1       0.107 -12.498   1.875  0.00  0.00    -0.239 N 
ATOM      4  N   UNL     1       1.291 -12.925   1.269  0.00  0.00    -0.166 NA
ATOM      5  C   UNL     1       1.944 -11.882   0.811  0.00  0.00    +0.100 A 
ENDROOT
BRANCH   5   6
ATOM      6  C   UNL     1       3.242 -11.898   0.096  0.00  0.00    +0.003 A 
ATOM      7  C   UNL     1       3.496 -10.971  -0.914  0.00  0.00    +0.013 A 
ATOM      8  C   UNL     1       4.706 -10.991  -1.577  0.00  0.00    +0.039 A 
ATOM      9  C   UNL     1       5.668 -11.929  -1.240  0.00  0.00    +0.123 A 
ATOM     10  C   UNL     1       5.420 -12.852  -0.236  0.00  0.00    +0.039 A 
ATOM     11  C   UNL     1       4.215 -12.837   0.436  0.00  0.00    +0.013 A 
ATOM     12  F   UNL     1       6.851 -11.944  -1.891  0.00  0.00    -0.205 F 
ENDBRANCH   5   6
BRANCH   3  13
ATOM     13  C   UNL     1      -0.843 -13.338   2.470  0.00  0.00    +0.065 A 
ATOM     14  C   UNL     1      -1.989 -12.799   3.039  0.00  0.00    +0.028 A 
ATOM     15  C   UNL     1      -2.924 -13.630   3.625  0.00  0.00    +0.002 A 
ATOM     16  C   UNL     1      -2.719 -14.998   3.645  0.00  0.00    +0.000 A 
ATOM     17  C   UNL     1      -1.579 -15.537   3.079  0.00  0.00    +0.002 A 
ATOM     18  C   UNL     1      -0.643 -14.712   2.486  0.00  0.00    +0.028 A 
ENDBRANCH   3  13
BRANCH   1  20
ATOM     19  C   UNL     1       0.489  -8.336   0.890  0.00  0.00    +0.119 C 
ATOM     20  C   UNL     1       1.472  -9.303   0.839  0.00  0.00    +0.036 C 
BRANCH  19  22
ATOM     21  N   UNL     1      -0.094  -5.997   0.778  0.00  0.00    -0.180 NA
ATOM     22  C   UNL     1       0.843  -6.919   0.730  0.00  0.00    +0.290 C 
ATOM     23  O   UNL     1       2.133  -6.563   0.533  0.00  0.00    -0.264 OA
BRANCH  21  27
ATOM     24  C   UNL     1       0.512  -2.050   0.382  0.00  0.00    +0.104 A 
ATOM     25  N   UNL     1       1.545  -2.868   0.313  0.00  0.00    -0.144 NA
ATOM     26  N   UNL     1       1.422  -4.118   0.430  0.00  0.00    -0.121 NA
ATOM     27  C   UNL     1       0.234  -4.687   0.630  0.00  0.00    +0.218 A 
ATOM     28  S   UNL     1      -0.807  -3.230   0.656  0.00  0.00    -0.031 S 
BRANCH  24  29
ATOM     29  C   UNL     1       0.458  -0.548   0.268  0.00  0.00    +0.064 C 
BRANCH  29  31
ATOM     30  C   UNL     1       0.192   1.370  -1.310  0.00  0.00    +0.004 C 
ATOM     31  C   UNL     1       0.246  -0.155  -1.195  0.00  0.00    +0.003 C 
ENDBRANCH  29  31
ENDBRANCH  24  29
ENDBRANCH  21  27
ENDBRANCH  19  22
BRANCH  19  32
ATOM     32  C   UNL     1      -0.876  -8.713   1.098  0.00  0.00    +0.105 C 
ATOM     33  N   UNL     1      -1.960  -9.013   1.263  0.00  0.00    -0.191 NA
ENDBRANCH  19  32
ENDBRANCH   1  20
TORSDOF 8
