REMARK  Name = ZINC59292925
REMARK  4 active torsions:
REMARK  status: ('A' for Active; 'I' for Inactive)
REMARK    1  A    between atoms: C_1  and  O_2
REMARK    2  A    between atoms: O_2  and  C_3
REMARK    3  A    between atoms: C_3  and  C_5
REMARK    4  A    between atoms: C_6  and  N_30
REMARK                            x       y       z     vdW  Elec       q    Type
REMARK                         _______ _______ _______ _____ _____    ______ ____
ROOT
ATOM      1  C   UNL     1      -1.247  -2.036   0.008  0.00  0.00    +0.117 C 
ATOM      2  C   UNL     1      -2.449  -2.662   0.109  0.00  0.00    +0.196 C 
ATOM      3  O   UNL     1      -2.545  -4.002   0.103  0.00  0.00    -0.440 OA
ATOM      4  C   UNL     1      -1.533  -4.751  -0.375  0.00  0.00    +0.152 A 
ATOM      5  C   UNL     1      -1.769  -6.148  -0.774  0.00  0.00    +0.060 A 
ATOM      6  C   UNL     1      -3.036  -6.725  -0.663  0.00  0.00    +0.015 A 
ATOM      7  C   UNL     1      -3.223  -8.034  -1.047  0.00  0.00    +0.001 A 
ATOM      8  C   UNL     1      -2.162  -8.777  -1.542  0.00  0.00    +0.004 A 
ATOM      9  C   UNL     1      -0.905  -8.220  -1.654  0.00  0.00    +0.047 A 
ATOM     10  C   UNL     1      -0.695  -6.901  -1.272  0.00  0.00    +0.143 A 
ATOM     11  O   UNL     1       0.529  -6.339  -1.374  0.00  0.00    -0.422 OA
ATOM     12  C   UNL     1       0.754  -5.068  -1.007  0.00  0.00    +0.346 A 
ATOM     13  O   UNL     1       1.879  -4.611  -1.113  0.00  0.00    -0.245 OA
ATOM     14  C   UNL     1      -0.272  -4.248  -0.505  0.00  0.00    +0.104 A 
ATOM     15  C   UNL     1       0.023  -2.827  -0.122  0.00  0.00    +0.145 C 
ATOM     16  C   UNL     1       0.818  -2.773   1.145  0.00  0.00    -0.001 A 
ATOM     17  C   UNL     1       0.530  -3.205   2.422  0.00  0.00    +0.022 A 
ATOM     18  C   UNL     1       1.505  -2.997   3.393  0.00  0.00    +0.018 A 
ATOM     19  C   UNL     1       2.704  -2.386   3.088  0.00  0.00    +0.017 A 
ATOM     20  C   UNL     1       3.001  -1.950   1.806  0.00  0.00    +0.025 A 
ATOM     21  C   UNL     1       2.031  -2.153   0.822  0.00  0.00    +0.038 A 
ATOM     22  N   UNL     1       2.061  -1.826  -0.522  0.00  0.00    -0.284 N 
ATOM     23  C   UNL     1       0.926  -2.186  -1.156  0.00  0.00    +0.237 C 
ATOM     24  O   UNL     1       0.677  -2.028  -2.332  0.00  0.00    -0.274 OA
ATOM     25 BR   UNL     1       1.179  -3.563   5.168  0.00  0.00    -0.050 Br
ATOM     26  H   UNL     1       2.809  -1.388  -0.957  0.00  0.00    +0.155 HD
ENDROOT
BRANCH   2  27
ATOM     27  N   UNL     1      -3.588  -1.910   0.219  0.00  0.00    -0.329 N 
ATOM     28  H   UNL     1      -3.540  -0.944   0.149  0.00  0.00    +0.145 HD
ATOM     29  H   UNL     1      -4.443  -2.344   0.368  0.00  0.00    +0.145 HD
ENDBRANCH   2  27
BRANCH   1  30
ATOM     30  C   UNL     1      -1.192  -0.634   0.019  0.00  0.00    +0.341 C 
ATOM     31  O   UNL     1      -0.874  -0.045   1.037  0.00  0.00    -0.245 OA
BRANCH  30  33
ATOM     32  C   UNL     1      -1.415   1.488  -1.014  0.00  0.00    +0.280 C 
ATOM     33  O   UNL     1      -1.492   0.063  -1.098  0.00  0.00    -0.465 OA
ENDBRANCH  30  33
ENDBRANCH   1  30
TORSDOF 3
