REMARK  Name = ZINC65011003
REMARK  9 active torsions:
REMARK  status: ('A' for Active; 'I' for Inactive)
REMARK    1  A    between atoms: C_1  and  C_2
REMARK    2  A    between atoms: C_5  and  C_7
REMARK    3  A    between atoms: C_7  and  N_8
REMARK    4  A    between atoms: N_8  and  S_9
REMARK    5  A    between atoms: S_9  and  C_12
REMARK    6  A    between atoms: C_13  and  C_32
REMARK    7  A    between atoms: C_14  and  C_31
REMARK    8  A    between atoms: C_19  and  C_22
REMARK    9  A    between atoms: C_20  and  C_21
REMARK                            x       y       z     vdW  Elec       q    Type
REMARK                         _______ _______ _______ _____ _____    ______ ____
ROOT
ATOM      1  C   UNL     1       2.667  -6.290  -0.616  0.00  0.00    +0.151 A 
ATOM      2  C   UNL     1       3.155  -6.631   0.627  0.00  0.00    -0.018 A 
ATOM      3  C   UNL     1       2.962  -7.907   1.140  0.00  0.00    -0.045 A 
ATOM      4  C   UNL     1       2.282  -8.847   0.418  0.00  0.00    +0.015 A 
ATOM      5  C   UNL     1       1.778  -8.521  -0.843  0.00  0.00    +0.026 A 
ATOM      6  C   UNL     1       1.967  -7.228  -1.365  0.00  0.00    +0.163 A 
ATOM      7  O   UNL     1       1.380  -7.189  -2.577  0.00  0.00    -0.448 OA
ATOM      8  C   UNL     1       0.815  -8.377  -2.876  0.00  0.00    +0.194 A 
ATOM      9  C   UNL     1       1.026  -9.254  -1.861  0.00  0.00    +0.008 A 
ATOM     10  C   UNL     1       0.564 -10.687  -1.789  0.00  0.00    +0.048 C 
ATOM     11  C   UNL     1       3.507  -8.257   2.501  0.00  0.00    +0.044 C 
ATOM     12  C   UNL     1       3.908  -5.609   1.438  0.00  0.00    +0.046 C 
ENDROOT
BRANCH   8  13
ATOM     13  C   UNL     1       0.092  -8.681  -4.119  0.00  0.00    +0.282 C 
ATOM     14  O   UNL     1      -0.480  -9.748  -4.245  0.00  0.00    -0.267 OA
ATOM     15  N   UNL     1       0.063  -7.779  -5.120  0.00  0.00    -0.295 N 
ATOM     16  C   UNL     1       0.703  -6.499  -4.917  0.00  0.00    +0.108 C 
ATOM     17  C   UNL     1      -0.311  -5.502  -4.303  0.00  0.00    +0.019 C 
ATOM     18  C   UNL     1      -1.319  -5.118  -5.303  0.00  0.00    +0.002 C 
ATOM     19  C   UNL     1      -2.180  -6.273  -5.803  0.00  0.00    +0.002 C 
ATOM     20  C   UNL     1      -1.467  -6.977  -6.930  0.00  0.00    +0.019 C 
ATOM     21  C   UNL     1      -0.616  -8.141  -6.380  0.00  0.00    +0.108 C 
ENDBRANCH   8  13
BRANCH   1  22
ATOM     22  S   UNL     1       2.923  -4.666  -1.250  0.00  0.00    +0.063 S 
ATOM     23  O   UNL     1       2.896  -3.786  -0.134  0.00  0.00    -0.153 OA
ATOM     24  O   UNL     1       2.045  -4.519  -2.357  0.00  0.00    -0.153 OA
BRANCH  22  25
ATOM     25  N   UNL     1       4.463  -4.614  -1.857  0.00  0.00    -0.183 NA
ATOM     26  H   UNL     1       5.126  -4.036  -1.448  0.00  0.00    +0.148 HD
BRANCH  25  27
ATOM     27  C   UNL     1       4.824  -5.442  -3.010  0.00  0.00    +0.180 C 
BRANCH  27  32
ATOM     28  C   UNL     1       8.133  -2.887  -5.831  0.00  0.00    +0.086 C 
ATOM     29  C   UNL     1       7.566  -3.846  -4.816  0.00  0.00    +0.102 A 
ATOM     30  C   UNL     1       8.280  -4.666  -4.024  0.00  0.00    +0.044 A 
ATOM     31  C   UNL     1       7.353  -5.382  -3.233  0.00  0.00    +0.046 A 
ATOM     32  C   UNL     1       6.127  -4.957  -3.589  0.00  0.00    +0.121 A 
ATOM     33  O   UNL     1       6.263  -4.022  -4.544  0.00  0.00    -0.464 OA
ENDBRANCH  27  32
ENDBRANCH  25  27
ENDBRANCH  22  25
ENDBRANCH   1  22
TORSDOF 5
