REMARK  Name = ZINC33435935
REMARK  3 active torsions:
REMARK  status: ('A' for Active; 'I' for Inactive)
REMARK    1  A    between atoms: C_4  and  N_7
REMARK    2  A    between atoms: C_9  and  C_17
REMARK    3  A    between atoms: C_20  and  C_23
REMARK                            x       y       z     vdW  Elec       q    Type
REMARK                         _______ _______ _______ _____ _____    ______ ____
ROOT
ATOM      1  N   UNL     1      -4.241   0.078   0.021  0.00  0.00    -0.148 N 
ATOM      2  N   UNL     1      -2.954   0.093   0.010  0.00  0.00    -0.142 NA
ATOM      3  C   UNL     1      -2.526   1.341   0.020  0.00  0.00    +0.173 A 
ATOM      4  C   UNL     1      -3.657   2.186   0.029  0.00  0.00    +0.175 A 
ATOM      5  N   UNL     1      -4.712   1.397   0.029  0.00  0.00    -0.131 NA
ATOM      6  N   UNL     1      -3.657   3.583   0.037  0.00  0.00    -0.312 N 
ATOM      7  C   UNL     1      -3.024   4.122  -1.194  0.00  0.00    +0.106 C 
ATOM      8  C   UNL     1      -3.569   5.570  -1.268  0.00  0.00    +0.020 C 
ATOM      9  C   UNL     1      -5.026   5.417  -0.774  0.00  0.00    +0.020 C 
ATOM     10  C   UNL     1      -5.038   4.113   0.045  0.00  0.00    +0.106 C 
ENDROOT
BRANCH   1  14
ATOM     11  C   UNL     1      -6.622  -3.342   0.012  0.00  0.00    +0.000 A 
ATOM     12  C   UNL     1      -5.244  -3.461   0.005  0.00  0.00    +0.002 A 
ATOM     13  C   UNL     1      -4.452  -2.329   0.008  0.00  0.00    +0.029 A 
ATOM     14  C   UNL     1      -5.041  -1.071   0.018  0.00  0.00    +0.086 A 
ATOM     15  C   UNL     1      -6.425  -0.956   0.029  0.00  0.00    +0.029 A 
ATOM     16  C   UNL     1      -7.211  -2.091   0.020  0.00  0.00    +0.002 A 
ENDBRANCH   1  14
BRANCH   3  17
ATOM     17  C   UNL     1      -1.114   1.777   0.016  0.00  0.00    +0.205 A 
ATOM     18  N   UNL     1      -0.011   0.966   0.004  0.00  0.00    -0.210 NA
ATOM     19  H   UNL     1       1.308   3.874   0.013  0.00  0.00    +0.190 HD
ATOM     20  C   UNL     1       1.064   1.802  -0.004  0.00  0.00    +0.129 A 
ATOM     21  N   UNL     1       0.608   3.026   0.012  0.00  0.00    -0.262 N 
ATOM     22  N   UNL     1      -0.678   3.017   0.023  0.00  0.00    -0.150 NA
BRANCH  20  23
ATOM     23  C   UNL     1       2.514   1.392  -0.022  0.00  0.00    +0.056 C 
ATOM     24  C   UNL     1       2.672   0.120  -0.859  0.00  0.00    +0.011 C 
ATOM     25  C   UNL     1       4.144  -0.297  -0.878  0.00  0.00    +0.001 C 
ATOM     26  C   UNL     1       4.617  -0.565   0.552  0.00  0.00    +0.000 C 
ATOM     27  C   UNL     1       4.458   0.706   1.388  0.00  0.00    +0.001 C 
ATOM     28  C   UNL     1       2.986   1.123   1.408  0.00  0.00    +0.011 C 
ENDBRANCH  20  23
ENDBRANCH   3  17
TORSDOF 3
