REMARK  Name = ZINC36969328
REMARK  4 active torsions:
REMARK  status: ('A' for Active; 'I' for Inactive)
REMARK    1  A    between atoms: C_1  and  C_2
REMARK    2  A    between atoms: C_8  and  N_10
REMARK    3  A    between atoms: N_10  and  C_11
REMARK    4  A    between atoms: C_20  and  C_23
REMARK                            x       y       z     vdW  Elec       q    Type
REMARK                         _______ _______ _______ _____ _____    ______ ____
ROOT
ATOM      1  C   UNL     1       2.821   0.133   2.432  0.00  0.00    +0.029 A 
ATOM      2  C   UNL     1       2.219  -0.218   3.634  0.00  0.00    +0.026 A 
ATOM      3  C   UNL     1       2.911  -0.085   4.823  0.00  0.00    +0.049 A 
ATOM      4  C   UNL     1       4.208   0.399   4.818  0.00  0.00    +0.143 A 
ATOM      5  C   UNL     1       4.815   0.752   3.614  0.00  0.00    +0.077 A 
ATOM      6  C   UNL     1       4.124   0.614   2.422  0.00  0.00    +0.050 A 
ATOM      7  N   UNL     1       6.128   1.243   3.626  0.00  0.00    -0.279 N 
ATOM      8  C   UNL     1       6.881   1.070   4.734  0.00  0.00    +0.258 C 
ATOM      9  O   UNL     1       8.010   1.513   4.778  0.00  0.00    -0.271 OA
ATOM     10  C   UNL     1       6.314   0.325   5.916  0.00  0.00    +0.256 C 
ATOM     11  O   UNL     1       4.901   0.534   5.982  0.00  0.00    -0.478 OA
ATOM     12  C   UNL     1       6.600  -1.170   5.761  0.00  0.00    +0.062 C 
ATOM     13  H   UNL     1       6.490   1.699   2.851  0.00  0.00    +0.155 HD
ENDROOT
BRANCH   1  14
ATOM     14  N   UNL     1       2.116  -0.004   1.231  0.00  0.00    -0.341 N 
ATOM     15  H   UNL     1       2.538   0.237   0.392  0.00  0.00    +0.146 HD
BRANCH  14  22
ATOM     16  C   UNL     1      -0.019   1.526   0.010  0.00  0.00    +0.009 C 
ATOM     17  C   UNL     1       0.002  -0.004   0.002  0.00  0.00    +0.006 C 
ATOM     18  C   UNL     1       0.718  -0.497  -1.257  0.00  0.00    +0.005 C 
ATOM     19  C   UNL     1       0.739  -2.027  -1.265  0.00  0.00    +0.000 C 
ATOM     20  C   UNL     1       1.479  -2.534  -0.026  0.00  0.00    +0.002 C 
ATOM     21  C   UNL     1       0.763  -2.041   1.233  0.00  0.00    +0.022 C 
ATOM     22  C   UNL     1       0.742  -0.511   1.242  0.00  0.00    +0.073 C 
ENDBRANCH  14  22
ENDBRANCH   1  14
TORSDOF 2
