REMARK  Name = ZINC38975052
REMARK  7 active torsions:
REMARK  status: ('A' for Active; 'I' for Inactive)
REMARK    1  A    between atoms: C_1  and  C_2
REMARK    2  A    between atoms: C_5  and  N_8
REMARK    3  A    between atoms: C_11  and  N_29
REMARK    4  A    between atoms: C_14  and  C_16
REMARK    5  A    between atoms: C_16  and  S_17
REMARK    6  A    between atoms: S_17  and  C_18
REMARK    7  A    between atoms: C_21  and  C_23
REMARK                            x       y       z     vdW  Elec       q    Type
REMARK                         _______ _______ _______ _____ _____    ______ ____
ROOT
ATOM      1  N   UNL     1       0.058  -4.143  -0.021  0.00  0.00    -0.219 NA
ATOM      2  C   UNL     1       0.940  -4.791   0.702  0.00  0.00    +0.188 C 
ATOM      3  N   UNL     1       1.810  -4.151   1.575  0.00  0.00    -0.285 N 
ATOM      4  C   UNL     1       3.227  -4.536   1.476  0.00  0.00    +0.239 C 
ATOM      5  N   UNL     1       3.327  -5.973   1.231  0.00  0.00    -0.346 N 
ATOM      6  C   UNL     1       2.338  -6.695   0.847  0.00  0.00    +0.087 C 
ATOM      7  N   UNL     1       1.075  -6.174   0.658  0.00  0.00    -0.277 N 
ATOM      8  H   UNL     1       1.502  -3.488   2.212  0.00  0.00    +0.152 HD
ATOM      9  H   UNL     1       4.186  -6.404   1.366  0.00  0.00    +0.164 HD
ATOM     10  H   UNL     1       0.310  -6.749   0.498  0.00  0.00    +0.156 HD
ENDROOT
BRANCH   1  15
ATOM     11  C   UNL     1       0.005   1.503  -0.015  0.00  0.00    +0.044 C 
ATOM     12  C   UNL     1       0.019  -0.004  -0.016  0.00  0.00    -0.050 A 
ATOM     13  C   UNL     1      -1.133  -0.704   0.297  0.00  0.00    +0.005 A 
ATOM     14  C   UNL     1      -1.127  -2.083   0.297  0.00  0.00    +0.028 A 
ATOM     15  C   UNL     1       0.045  -2.773  -0.020  0.00  0.00    +0.067 A 
ATOM     16  C   UNL     1       1.204  -2.061  -0.335  0.00  0.00    +0.028 A 
ATOM     17  C   UNL     1       1.182  -0.681  -0.337  0.00  0.00    +0.005 A 
ENDBRANCH   1  15
BRANCH   4  18
ATOM     18  N   UNL     1       3.857  -3.806   0.367  0.00  0.00    -0.296 NA
ATOM     19  H   UNL     1       3.801  -2.809   0.513  0.00  0.00    +0.122 HD
ATOM     20  H   UNL     1       4.813  -4.100   0.237  0.00  0.00    +0.122 HD
ENDBRANCH   4  18
BRANCH   6  21
ATOM     21  C   UNL     1       2.563  -8.164   0.598  0.00  0.00    +0.148 C 
BRANCH  21  22
ATOM     22  S   UNL     1       1.008  -8.932   0.068  0.00  0.00    -0.058 S 
BRANCH  22  23
ATOM     23  C   UNL     1       1.431 -10.625  -0.180  0.00  0.00    +0.278 A 
ATOM     24  N   UNL     1       2.617 -11.164  -0.002  0.00  0.00    -0.101 NA
ATOM     25  N   UNL     1       2.561 -12.420  -0.276  0.00  0.00    -0.106 NA
ATOM     26  C   UNL     1       1.340 -12.733  -0.638  0.00  0.00    +0.249 A 
ATOM     27  O   UNL     1       0.599 -11.604  -0.580  0.00  0.00    -0.411 OA
BRANCH  26  28
ATOM     28  C   UNL     1       0.862 -14.073  -1.034  0.00  0.00    +0.041 A 
ATOM     29  C   UNL     1      -0.471 -14.280  -1.409  0.00  0.00    +0.033 A 
ATOM     30  C   UNL     1      -0.875 -15.548  -1.770  0.00  0.00    +0.111 A 
ATOM     31  N   UNL     1      -0.024 -16.557  -1.765  0.00  0.00    -0.263 NA
ATOM     32  C   UNL     1       1.241 -16.406  -1.419  0.00  0.00    +0.111 A 
ATOM     33  C   UNL     1       1.731 -15.171  -1.049  0.00  0.00    +0.033 A 
ENDBRANCH  26  28
ENDBRANCH  22  23
ENDBRANCH  21  22
ENDBRANCH   6  21
TORSDOF 6
