REMARK  Name = ZINC09936890
REMARK  18 active torsions:
REMARK  status: ('A' for Active; 'I' for Inactive)
REMARK    1  A    between atoms: C_1  and  C_2
REMARK    2  A    between atoms: C_2  and  C_3
REMARK    3  A    between atoms: C_3  and  C_4
REMARK    4  A    between atoms: C_4  and  N_75
REMARK    5  A    between atoms: C_5  and  C_6
REMARK    6  A    between atoms: C_5  and  N_75
REMARK    7  A    between atoms: C_7  and  C_8
REMARK    8  A    between atoms: C_7  and  N_75
REMARK    9  A    between atoms: C_8  and  N_9
REMARK   10  A    between atoms: C_10  and  C_12
REMARK   11  A    between atoms: C_16  and  O_36
REMARK   12  A    between atoms: C_17  and  O_34
REMARK   13  A    between atoms: N_22  and  C_33
REMARK   14  A    between atoms: C_23  and  C_25
REMARK   15  A    between atoms: C_28  and  S_31
REMARK   16  A    between atoms: S_31  and  C_32
REMARK   17  A    between atoms: O_34  and  C_35
REMARK   18  A    between atoms: O_36  and  C_37
REMARK                            x       y       z     vdW  Elec       q    Type
REMARK                         _______ _______ _______ _____ _____    ______ ____
ROOT
ATOM      1  C   UNL     1       0.978   3.713  -0.012  0.00  0.00    +0.130 C 
ATOM      2  C   UNL     1       1.100   2.228   0.205  0.00  0.00    -0.018 A 
ATOM      3  C   UNL     1       2.334   1.645   0.388  0.00  0.00    +0.054 A 
ATOM      4  C   UNL     1       2.430   0.280   0.624  0.00  0.00    +0.162 A 
ATOM      5  C   UNL     1       1.279  -0.506   0.676  0.00  0.00    +0.162 A 
ATOM      6  C   UNL     1       0.038   0.071   0.485  0.00  0.00    +0.062 A 
ATOM      7  C   UNL     1      -0.056   1.441   0.240  0.00  0.00    +0.045 A 
ATOM      8  C   UNL     1      -1.366   2.087   0.027  0.00  0.00    +0.247 C 
ATOM      9  O   UNL     1      -2.393   1.490   0.288  0.00  0.00    -0.270 OA
ATOM     10  N   UNL     1      -1.414   3.342  -0.458  0.00  0.00    -0.292 N 
ATOM     11  C   UNL     1      -0.205   4.014  -0.929  0.00  0.00    +0.122 C 
ATOM     12  C   UNL     1      -2.698   4.044  -0.516  0.00  0.00    +0.133 C 
ENDROOT
BRANCH  11  13
ATOM     13  C   UNL     1       0.116   3.539  -2.323  0.00  0.00    -0.026 A 
ATOM     14  C   UNL     1      -0.010   2.200  -2.641  0.00  0.00    +0.006 A 
ATOM     15  C   UNL     1       0.278   1.762  -3.919  0.00  0.00    +0.015 A 
ATOM     16  C   UNL     1       0.705   2.667  -4.882  0.00  0.00    +0.008 A 
ATOM     17  C   UNL     1       0.836   4.012  -4.557  0.00  0.00    +0.015 A 
ATOM     18  C   UNL     1       0.541   4.444  -3.279  0.00  0.00    +0.006 A 
BRANCH  16  19
ATOM     19  S   UNL     1       1.081   2.112  -6.511  0.00  0.00    -0.129 S 
ATOM     20  C   UNL     1       0.766   0.327  -6.450  0.00  0.00    +0.090 C 
ENDBRANCH  16  19
ENDBRANCH  11  13
BRANCH   1  22
ATOM     21  N   UNL     1       2.729   5.438  -0.289  0.00  0.00    -0.317 N 
ATOM     22  C   UNL     1       2.245   4.231  -0.643  0.00  0.00    +0.223 C 
ATOM     23  O   UNL     1       2.828   3.562  -1.470  0.00  0.00    -0.275 OA
ATOM     24  H   UNL     1       2.304   5.941   0.423  0.00  0.00    +0.149 HD
BRANCH  21  25
ATOM     25  C   UNL     1       3.898   5.989  -0.979  0.00  0.00    +0.085 C 
BRANCH  25  26
ATOM     26  C   UNL     1       4.239   7.359  -0.389  0.00  0.00    -0.060 C 
BRANCH  26  27
ATOM     27  N   UNL     1       5.432   7.892  -1.081  0.00  0.00    +0.381 N 
ATOM     28  H   UNL     1       6.174   7.183  -1.061  0.00  0.00    -0.082 HD
BRANCH  27  29
ATOM     29  C   UNL     1       5.103   8.204  -2.488  0.00  0.00    -0.082 C 
ATOM     30  C   UNL     1       4.029   9.291  -2.559  0.00  0.00    -0.017 C 
ENDBRANCH  27  29
BRANCH  27  31
ATOM     31  C   UNL     1       5.913   9.109  -0.393  0.00  0.00    -0.079 C 
BRANCH  31  32
ATOM     32  C   UNL     1       7.321   9.434  -0.896  0.00  0.00    -0.019 C 
BRANCH  32  34
ATOM     33  C   UNL     1       9.304  10.922  -0.589  0.00  0.00    +0.004 C 
ATOM     34  C   UNL     1       7.896  10.598  -0.086  0.00  0.00    -0.005 C 
ENDBRANCH  32  34
ENDBRANCH  31  32
ENDBRANCH  27  31
ENDBRANCH  26  27
ENDBRANCH  25  26
ENDBRANCH  21  25
ENDBRANCH   1  22
BRANCH   5  35
ATOM     35  O   UNL     1       1.378  -1.841   0.916  0.00  0.00    -0.491 OA
ATOM     36  C   UNL     1       0.159  -2.586   0.956  0.00  0.00    +0.277 C 
ENDBRANCH   5  35
BRANCH   4  37
ATOM     37  O   UNL     1       3.648  -0.291   0.805  0.00  0.00    -0.491 OA
ATOM     38  C   UNL     1       4.785   0.571   0.739  0.00  0.00    +0.277 C 
ENDBRANCH   4  37
TORSDOF 12
