REMARK  Name = ZINC45867954
REMARK  7 active torsions:
REMARK  status: ('A' for Active; 'I' for Inactive)
REMARK    1  A    between atoms: C_1  and  C_2
REMARK    2  A    between atoms: C_5  and  N_9
REMARK    3  A    between atoms: C_6  and  C_8
REMARK    4  A    between atoms: C_10  and  C_12
REMARK    5  A    between atoms: C_12  and  C_13
REMARK    6  A    between atoms: C_25  and  C_27
REMARK    7  A    between atoms: C_27  and  N_28
REMARK                            x       y       z     vdW  Elec       q    Type
REMARK                         _______ _______ _______ _____ _____    ______ ____
ROOT
ATOM      1  C   UNL     1      -0.344  -6.945  -2.820  0.00  0.00    +0.176 C 
ATOM      2  C   UNL     1      -0.750  -8.374  -3.072  0.00  0.00    +0.239 C 
ATOM      3  O   UNL     1      -1.924  -8.677  -3.049  0.00  0.00    -0.273 OA
ATOM      4  N   UNL     1       0.175  -9.319  -3.324  0.00  0.00    -0.282 N 
ATOM      5  C   UNL     1       1.532  -8.987  -3.406  0.00  0.00    +0.055 A 
ATOM      6  C   UNL     1       2.506  -9.973  -3.372  0.00  0.00    +0.025 A 
ATOM      7  C   UNL     1       3.841  -9.624  -3.460  0.00  0.00    +0.002 A 
ATOM      8  C   UNL     1       4.211  -8.297  -3.582  0.00  0.00    +0.002 A 
ATOM      9  C   UNL     1       3.245  -7.306  -3.614  0.00  0.00    +0.025 A 
ATOM     10  C   UNL     1       1.908  -7.648  -3.524  0.00  0.00    +0.058 A 
ATOM     11  N   UNL     1       0.905  -6.664  -3.544  0.00  0.00    -0.259 N 
ATOM     12  C   UNL     1       1.079  -5.502  -4.204  0.00  0.00    +0.204 C 
ATOM     13  O   UNL     1       0.229  -4.639  -4.148  0.00  0.00    -0.277 OA
ATOM     14  H   UNL     1      -0.102 -10.240  -3.450  0.00  0.00    +0.155 HD
ENDROOT
BRANCH   1  15
ATOM     15  C   UNL     1      -0.125  -6.732  -1.320  0.00  0.00    +0.128 C 
BRANCH  15  17
ATOM     16  N   UNL     1       0.392  -4.853   0.203  0.00  0.00    -0.285 N 
ATOM     17  C   UNL     1       0.164  -5.277  -1.056  0.00  0.00    +0.219 C 
ATOM     18  O   UNL     1       0.193  -4.488  -1.976  0.00  0.00    -0.275 OA
ATOM     19  H   UNL     1       0.425  -5.492   0.931  0.00  0.00    +0.155 HD
BRANCH  16  24
ATOM     20  C   UNL     1       1.150   0.673   1.240  0.00  0.00    +0.044 C 
ATOM     21  C   UNL     1       0.949  -0.795   0.965  0.00  0.00    -0.050 A 
ATOM     22  C   UNL     1       1.301  -1.321  -0.265  0.00  0.00    +0.005 A 
ATOM     23  C   UNL     1       1.118  -2.666  -0.520  0.00  0.00    +0.024 A 
ATOM     24  C   UNL     1       0.579  -3.490   0.459  0.00  0.00    +0.036 A 
ATOM     25  C   UNL     1       0.226  -2.959   1.692  0.00  0.00    -0.029 A 
ATOM     26  C   UNL     1       0.417  -1.614   1.944  0.00  0.00    +0.008 A 
ATOM     27  C   UNL     1      -0.359  -3.850   2.758  0.00  0.00    +0.045 C 
ENDBRANCH  16  24
ENDBRANCH  15  17
ENDBRANCH   1  15
BRANCH  12  28
ATOM     28  C   UNL     1       2.331  -5.275  -5.012  0.00  0.00    +0.020 C 
BRANCH  28  29
ATOM     29  N   UNL     1       2.115  -4.165  -5.949  0.00  0.00    +0.388 N 
ATOM     30  C   UNL     1       3.280  -4.047  -6.836  0.00  0.00    -0.073 C 
ATOM     31  C   UNL     1       2.919  -3.122  -8.011  0.00  0.00    +0.024 C 
ATOM     32  C   UNL     1       2.259  -1.908  -7.442  0.00  0.00    -0.011 A 
ATOM     33  C   UNL     1       1.787  -1.764  -6.172  0.00  0.00    -0.054 A 
ATOM     34  C   UNL     1       1.212  -0.535  -5.858  0.00  0.00    +0.009 A 
ATOM     35  C   UNL     1       1.141   0.438  -6.796  0.00  0.00    +0.045 A 
ATOM     36  S   UNL     1       1.904  -0.352  -8.206  0.00  0.00    -0.101 S 
ATOM     37  C   UNL     1       1.909  -2.926  -5.190  0.00  0.00    -0.042 C 
ATOM     38  H   UNL     1       1.294  -4.354  -6.504  0.00  0.00    -0.081 HD
ENDBRANCH  28  29
ENDBRANCH  12  28
TORSDOF 5
