REMARK  Name = ZINC12432299
REMARK  6 active torsions:
REMARK  status: ('A' for Active; 'I' for Inactive)
REMARK    1  A    between atoms: C_1  and  N_55
REMARK    2  A    between atoms: C_7  and  C_9
REMARK    3  A    between atoms: C_9  and  C_10
REMARK    4  A    between atoms: N_12  and  C_13
REMARK    5  A    between atoms: N_12  and  C_14
REMARK    6  A    between atoms: C_14  and  C_15
REMARK                            x       y       z     vdW  Elec       q    Type
REMARK                         _______ _______ _______ _____ _____    ______ ____
ROOT
ATOM      1  C   UNL     1       0.149   4.573   1.826  0.00  0.00    +0.214 C 
ATOM      2  O   UNL     1       1.087   3.856   2.104  0.00  0.00    -0.276 OA
ATOM      3  N   UNL     1      -0.959   4.047   1.268  0.00  0.00    -0.304 N 
ATOM      4  C   UNL     1      -2.092   4.913   0.932  0.00  0.00    +0.132 C 
ENDROOT
BRANCH   1   5
ATOM      5  C   UNL     1       0.223   6.052   2.105  0.00  0.00    +0.090 C 
BRANCH   5  12
ATOM      6  C   UNL     1       2.719   6.737   0.715  0.00  0.00    -0.095 C 
ATOM      7  C   UNL     1       3.931   6.035   2.693  0.00  0.00    -0.059 C 
ATOM      8  C   UNL     1       3.936   4.966   3.788  0.00  0.00    +0.085 C 
ATOM      9  N   UNL     1       2.700   5.038   4.563  0.00  0.00    -0.318 N 
ATOM     10  C   UNL     1       1.601   5.659   4.122  0.00  0.00    +0.200 C 
ATOM     11  O   UNL     1       0.608   5.644   4.817  0.00  0.00    -0.278 OA
ATOM     12  C   UNL     1       1.546   6.375   2.802  0.00  0.00    +0.028 C 
ATOM     13  H   UNL     1       2.676   4.615   5.436  0.00  0.00    +0.149 HD
ATOM     14  N   UNL     1       2.660   5.921   1.949  0.00  0.00    +0.387 N 
ATOM     15  H   UNL     1       2.509   4.938   1.693  0.00  0.00    -0.081 HD
ENDBRANCH   5  12
ENDBRANCH   1   5
BRANCH   3  16
ATOM     16  C   UNL     1      -1.030   2.609   0.997  0.00  0.00    +0.114 C 
BRANCH  16  17
ATOM     17  C   UNL     1      -0.498   2.328  -0.410  0.00  0.00    -0.013 C 
ATOM     18  C   UNL     1       0.956   2.793  -0.507  0.00  0.00    +0.012 C 
ATOM     19  C   UNL     1       1.488   2.512  -1.914  0.00  0.00    -0.010 C 
ATOM     20  C   UNL     1       1.413   1.010  -2.197  0.00  0.00    +0.007 C 
ATOM     21  C   UNL     1      -0.041   0.545  -2.099  0.00  0.00    -0.010 C 
ATOM     22  C   UNL     1      -0.573   0.826  -0.693  0.00  0.00    +0.012 C 
ATOM     23  C   UNL     1      -0.888   1.300  -3.125  0.00  0.00    +0.007 C 
ATOM     24  C   UNL     1      -0.814   2.801  -2.842  0.00  0.00    -0.010 C 
ATOM     25  C   UNL     1       0.641   3.267  -2.940  0.00  0.00    +0.007 C 
ATOM     26  C   UNL     1      -1.346   3.083  -1.436  0.00  0.00    +0.012 C 
ENDBRANCH  16  17
ENDBRANCH   3  16
TORSDOF 4
