REMARK  Name = ZINC33033437
REMARK  15 active torsions:
REMARK  status: ('A' for Active; 'I' for Inactive)
REMARK    1  A    between atoms: C_1  and  C_2
REMARK    2  A    between atoms: C_2  and  C_3
REMARK    3  A    between atoms: C_3  and  C_4
REMARK    4  A    between atoms: C_4  and  N_5
REMARK    5  A    between atoms: N_5  and  C_6
REMARK    6  A    between atoms: C_6  and  C_7
REMARK    7  A    between atoms: C_8  and  C_10
REMARK    8  A    between atoms: C_13  and  N_30
REMARK    9  A    between atoms: C_14  and  N_16
REMARK   10  A    between atoms: N_16  and  S_17
REMARK   11  A    between atoms: S_17  and  C_20
REMARK   12  A    between atoms: C_23  and  C_26
REMARK   13  A    between atoms: C_26  and  C_27
REMARK   14  A    between atoms: C_27  and  C_28
REMARK   15  A    between atoms: C_27  and  C_29
REMARK                            x       y       z     vdW  Elec       q    Type
REMARK                         _______ _______ _______ _____ _____    ______ ____
ROOT
ATOM      1  C   UNL     1       0.170   8.462   5.027  0.00  0.00    +0.039 A 
ATOM      2  C   UNL     1      -0.808   8.103   5.958  0.00  0.00    +0.015 A 
ATOM      3  C   UNL     1      -2.141   8.161   5.616  0.00  0.00    +0.026 A 
ATOM      4  C   UNL     1      -2.518   8.577   4.345  0.00  0.00    +0.052 A 
ATOM      5  C   UNL     1      -1.545   8.938   3.408  0.00  0.00    +0.070 A 
ATOM      6  C   UNL     1      -0.206   8.876   3.745  0.00  0.00    +0.039 A 
ENDROOT
BRANCH   4   7
ATOM      7  N   UNL     1      -3.868   8.633   4.003  0.00  0.00    -0.332 N 
ATOM      8  C   UNL     1      -4.698   7.988   5.029  0.00  0.00    +0.086 C 
ATOM      9  C   UNL     1      -6.161   8.000   4.580  0.00  0.00    -0.063 C 
ATOM     10  N   UNL     1      -6.590   9.388   4.355  0.00  0.00    +0.381 N 
ATOM     11  C   UNL     1      -5.759  10.033   3.328  0.00  0.00    -0.063 C 
ATOM     12  C   UNL     1      -4.296  10.020   3.778  0.00  0.00    +0.086 C 
ATOM     13  H   UNL     1      -7.638   9.398   4.020  0.00  0.00    -0.086 HD
ATOM     14  H   UNL     1      -6.499   9.956   5.292  0.00  0.00    -0.086 HD
ENDBRANCH   4   7
BRANCH   1  16
ATOM     15  N   UNL     1       2.026   8.971   6.536  0.00  0.00    -0.298 N 
ATOM     16  C   UNL     1       1.598   8.400   5.393  0.00  0.00    +0.247 C 
ATOM     17  O   UNL     1       2.388   7.833   4.663  0.00  0.00    -0.270 OA
BRANCH  15  18
ATOM     18  C   UNL     1       1.058   9.537   7.479  0.00  0.00    +0.104 C 
ATOM     19  C   UNL     1       0.781   8.527   8.594  0.00  0.00    +0.024 C 
ENDBRANCH  15  18
BRANCH  15  20
ATOM     20  C   UNL     1       3.459   9.025   6.836  0.00  0.00    +0.108 C 
BRANCH  20  21
ATOM     21  C   UNL     1       4.050  10.318   6.269  0.00  0.00    +0.019 C 
BRANCH  21  23
ATOM     22  C   UNL     1       6.137  11.667   6.016  0.00  0.00    +0.004 C 
ATOM     23  C   UNL     1       5.546  10.374   6.583  0.00  0.00    -0.002 C 
ENDBRANCH  21  23
ENDBRANCH  20  21
ENDBRANCH  15  20
ENDBRANCH   1  16
BRANCH   5  24
ATOM     24  N   UNL     1      -1.927   9.357   2.127  0.00  0.00    -0.214 N 
ATOM     25  H   UNL     1      -2.212  10.405   1.954  0.00  0.00    +0.174 HD
BRANCH  24  26
ATOM     26  S   UNL     1      -1.948   8.274   0.875  0.00  0.00    +0.072 S 
ATOM     27  O   UNL     1      -0.692   7.610   0.890  0.00  0.00    -0.150 OA
ATOM     28  O   UNL     1      -2.423   8.980  -0.264  0.00  0.00    -0.150 OA
BRANCH  26  29
ATOM     29  C   UNL     1      -3.166   7.059   1.257  0.00  0.00    +0.109 A 
ATOM     30  C   UNL     1      -4.475   7.241   0.852  0.00  0.00    +0.029 A 
ATOM     31  C   UNL     1      -5.430   6.287   1.151  0.00  0.00    +0.005 A 
ATOM     32  C   UNL     1      -5.075   5.151   1.855  0.00  0.00    -0.047 A 
ATOM     33  C   UNL     1      -3.767   4.972   2.264  0.00  0.00    +0.005 A 
ATOM     34  C   UNL     1      -2.811   5.924   1.961  0.00  0.00    +0.029 A 
BRANCH  32  35
ATOM     35  C   UNL     1      -6.116   4.112   2.181  0.00  0.00    +0.038 C 
BRANCH  35  36
ATOM     36  C   UNL     1      -6.180   3.082   1.051  0.00  0.00    -0.013 C 
ATOM     37  C   UNL     1      -7.320   2.098   1.322  0.00  0.00    +0.007 C 
ATOM     38  C   UNL     1      -4.855   2.320   0.981  0.00  0.00    +0.007 C 
ENDBRANCH  35  36
ENDBRANCH  32  35
ENDBRANCH  26  29
ENDBRANCH  24  26
ENDBRANCH   5  24
TORSDOF 11
