REMARK  Name = ZINC36640621
REMARK  11 active torsions:
REMARK  status: ('A' for Active; 'I' for Inactive)
REMARK    1  A    between atoms: C_1  and  C_2
REMARK    2  A    between atoms: C_2  and  N_3
REMARK    3  A    between atoms: N_3  and  C_4
REMARK    4  A    between atoms: N_3  and  C_6
REMARK    5  A    between atoms: C_4  and  C_5
REMARK    6  A    between atoms: C_6  and  C_7
REMARK    7  A    between atoms: C_7  and  N_8
REMARK    8  A    between atoms: C_12  and  O_19
REMARK    9  A    between atoms: C_15  and  C_18
REMARK   10  A    between atoms: O_19  and  C_20
REMARK   11  A    between atoms: C_21  and  C_23
REMARK                            x       y       z     vdW  Elec       q    Type
REMARK                         _______ _______ _______ _____ _____    ______ ____
ROOT
ATOM      1  N   UNL     1      -0.735  -3.600   1.850  0.00  0.00    -0.252 N 
ATOM      2  C   UNL     1       0.378  -4.355   1.512  0.00  0.00    +0.168 A 
ATOM      3  N   UNL     1       0.623  -5.618   1.768  0.00  0.00    -0.221 NA
ATOM      4  C   UNL     1       1.762  -6.230   1.374  0.00  0.00    +0.122 A 
ATOM      5  C   UNL     1       2.149  -7.578   1.584  0.00  0.00    +0.147 A 
ATOM      6  C   UNL     1       3.354  -8.043   1.113  0.00  0.00    +0.048 A 
ATOM      7  C   UNL     1       4.228  -7.216   0.421  0.00  0.00    +0.008 A 
ATOM      8  C   UNL     1       3.880  -5.897   0.200  0.00  0.00    -0.034 A 
ATOM      9  C   UNL     1       2.678  -5.422   0.666  0.00  0.00    +0.047 A 
ATOM     10  S   UNL     1       1.839  -3.857   0.612  0.00  0.00    -0.051 S 
ATOM     11  C   UNL     1       4.816  -4.983  -0.550  0.00  0.00    +0.045 C 
ATOM     12  C   UNL     1      -1.747  -4.162   2.540  0.00  0.00    +0.227 C 
ATOM     13  O   UNL     1      -1.664  -5.316   2.906  0.00  0.00    -0.275 OA
ENDROOT
BRANCH  12  14
ATOM     14  C   UNL     1      -2.981  -3.358   2.858  0.00  0.00    +0.048 C 
ATOM     15  C   UNL     1      -3.619  -2.868   1.557  0.00  0.00    +0.019 C 
ATOM     16  C   UNL     1      -4.872  -2.051   1.879  0.00  0.00    -0.009 C 
ATOM     17  C   UNL     1      -5.871  -2.927   2.638  0.00  0.00    +0.007 C 
ATOM     18  C   UNL     1      -5.232  -3.417   3.940  0.00  0.00    -0.009 C 
ATOM     19  C   UNL     1      -3.979  -4.234   3.617  0.00  0.00    +0.019 C 
ATOM     20  C   UNL     1      -4.849  -2.215   4.804  0.00  0.00    +0.007 C 
ATOM     21  C   UNL     1      -3.850  -1.339   4.045  0.00  0.00    -0.009 C 
ATOM     22  C   UNL     1      -4.489  -0.848   2.744  0.00  0.00    +0.007 C 
ATOM     23  C   UNL     1      -2.598  -2.155   3.722  0.00  0.00    +0.019 C 
ENDBRANCH  12  14
BRANCH   5  24
ATOM     24  O   UNL     1       1.320  -8.419   2.257  0.00  0.00    -0.493 OA
ATOM     25  C   UNL     1       1.766  -9.765   2.436  0.00  0.00    +0.277 C 
ENDBRANCH   5  24
BRANCH   1  26
ATOM     26  C   UNL     1      -0.811  -2.191   1.457  0.00  0.00    +0.097 C 
BRANCH  26  27
ATOM     27  C   UNL     1      -0.681  -2.078  -0.064  0.00  0.00    -0.059 C 
BRANCH  27  28
ATOM     28  N   UNL     1      -0.900  -0.684  -0.472  0.00  0.00    +0.380 N 
ATOM     29  H   UNL     1      -1.791  -0.366  -0.119  0.00  0.00    -0.082 HD
BRANCH  28  31
ATOM     30  C   UNL     1      -0.116   1.626  -0.257  0.00  0.00    -0.017 C 
ATOM     31  C   UNL     1       0.172   0.160   0.073  0.00  0.00    -0.082 C 
ENDBRANCH  28  31
BRANCH  28  32
ATOM     32  C   UNL     1      -0.895  -0.596  -1.938  0.00  0.00    -0.082 C 
ATOM     33  C   UNL     1      -2.079  -1.385  -2.501  0.00  0.00    -0.017 C 
ENDBRANCH  28  32
ENDBRANCH  27  28
ENDBRANCH  26  27
ENDBRANCH   1  26
TORSDOF 7
