REMARK  Name = ZINC35513985
REMARK  5 active torsions:
REMARK  status: ('A' for Active; 'I' for Inactive)
REMARK    1  A    between atoms: C_6  and  S_7
REMARK    2  A    between atoms: S_7  and  N_10
REMARK    3  A    between atoms: N_10  and  C_11
REMARK    4  A    between atoms: C_13  and  C_23
REMARK    5  A    between atoms: N_25  and  C_26
REMARK                            x       y       z     vdW  Elec       q    Type
REMARK                         _______ _______ _______ _____ _____    ______ ____
ROOT
ATOM      1  C   UNL     1      -1.145  -1.831  -2.543  0.00  0.00    +0.067 A 
ATOM      2  C   UNL     1      -0.709  -1.552  -3.832  0.00  0.00    +0.042 A 
ATOM      3  C   UNL     1       0.096  -2.497  -4.479  0.00  0.00    +0.078 A 
ATOM      4  C   UNL     1       0.429  -3.681  -3.802  0.00  0.00    +0.133 A 
ATOM      5  N   UNL     1      -0.012  -3.899  -2.573  0.00  0.00    -0.238 NA
ATOM      6  C   UNL     1      -0.767  -3.024  -1.939  0.00  0.00    +0.137 A 
ATOM      7  N   UNL     1       1.225  -4.629  -4.425  0.00  0.00    -0.318 N 
ATOM      8  C   UNL     1       2.681  -4.651  -4.213  0.00  0.00    +0.087 C 
ATOM      9  C   UNL     1       3.095  -6.077  -3.835  0.00  0.00    -0.063 C 
ATOM     10  N   UNL     1       2.618  -7.012  -4.862  0.00  0.00    +0.381 N 
ATOM     11  C   UNL     1       1.149  -7.021  -4.886  0.00  0.00    -0.063 C 
ATOM     12  C   UNL     1       0.638  -5.645  -5.311  0.00  0.00    +0.087 C 
ATOM     13  H   UNL     1       2.966  -6.726  -5.764  0.00  0.00    -0.086 HD
ATOM     14  H   UNL     1       2.955  -7.940  -4.652  0.00  0.00    -0.086 HD
ENDROOT
BRANCH   3  15
ATOM     15  C   UNL     1       0.586  -2.253  -5.848  0.00  0.00    +0.248 C 
ATOM     16  O   UNL     1       1.367  -3.030  -6.362  0.00  0.00    -0.270 OA
ATOM     17  N   UNL     1       0.168  -1.168  -6.530  0.00  0.00    -0.308 N 
ATOM     18  H   UNL     1      -0.455  -0.548  -6.120  0.00  0.00    +0.149 HD
BRANCH  17  19
ATOM     19  C   UNL     1       0.654  -0.925  -7.891  0.00  0.00    +0.073 C 
ATOM     20  C   UNL     1       1.970  -0.121  -7.846  0.00  0.00    +0.022 C 
ATOM     21  C   UNL     1       1.873   0.833  -9.062  0.00  0.00    +0.002 C 
ATOM     22  C   UNL     1       0.376   1.228  -9.068  0.00  0.00    +0.002 C 
ATOM     23  C   UNL     1      -0.359  -0.067  -8.668  0.00  0.00    +0.022 C 
ENDBRANCH  17  19
ENDBRANCH   3  15
BRANCH   1  24
ATOM     24  N   UNL     1      -1.952  -0.915  -1.856  0.00  0.00    -0.215 N 
ATOM     25  H   UNL     1      -2.704  -0.499  -2.306  0.00  0.00    +0.174 HD
BRANCH  24  26
ATOM     26  S   UNL     1      -1.623  -0.544  -0.276  0.00  0.00    +0.072 S 
ATOM     27  O   UNL     1      -1.452  -1.780   0.405  0.00  0.00    -0.150 OA
ATOM     28  O   UNL     1      -2.589   0.419   0.124  0.00  0.00    -0.150 OA
BRANCH  26  34
ATOM     29  C   UNL     1       0.010   1.643  -0.369  0.00  0.00    +0.029 A 
ATOM     30  C   UNL     1       1.238   2.271  -0.346  0.00  0.00    +0.006 A 
ATOM     31  C   UNL     1       2.405   1.534  -0.200  0.00  0.00    -0.044 A 
ATOM     32  C   UNL     1       2.336   0.165  -0.073  0.00  0.00    -0.042 A 
ATOM     33  C   UNL     1       1.099  -0.466  -0.099  0.00  0.00    +0.032 A 
ATOM     34  C   UNL     1      -0.060   0.268  -0.246  0.00  0.00    +0.109 A 
ATOM     35  C   UNL     1       3.559  -0.696   0.105  0.00  0.00    +0.035 C 
ATOM     36  C   UNL     1       4.816   0.063  -0.314  0.00  0.00    +0.005 C 
ATOM     37  C   UNL     1       4.823   1.419   0.402  0.00  0.00    +0.005 C 
ATOM     38  C   UNL     1       3.712   2.283  -0.193  0.00  0.00    +0.035 C 
ENDBRANCH  26  34
ENDBRANCH  24  26
ENDBRANCH   1  24
TORSDOF 5
