REMARK  Name = ZINC22184837
REMARK  6 active torsions:
REMARK  status: ('A' for Active; 'I' for Inactive)
REMARK    1  A    between atoms: C_1  and  O_2
REMARK    2  A    between atoms: O_2  and  C_3
REMARK    3  A    between atoms: C_7  and  C_11
REMARK    4  A    between atoms: C_8  and  O_9
REMARK    5  A    between atoms: O_9  and  C_10
REMARK    6  A    between atoms: C_14  and  C_28
REMARK                            x       y       z     vdW  Elec       q    Type
REMARK                         _______ _______ _______ _____ _____    ______ ____
ROOT
ATOM      1  C   UNL     1      -2.493   4.728   0.422  0.00  0.00    +0.144 C 
ATOM      2  C   UNL     1      -1.251   5.397   0.972  0.00  0.00    +0.039 C 
ATOM      3  C   UNL     1      -0.210   4.539   1.073  0.00  0.00    +0.047 C 
ATOM      4  N   UNL     1       1.076   4.807   1.540  0.00  0.00    -0.312 N 
ATOM      5  C   UNL     1       1.576   6.044   2.001  0.00  0.00    +0.057 A 
ATOM      6  C   UNL     1       2.899   5.949   2.382  0.00  0.00    +0.025 A 
ATOM      7  C   UNL     1       3.562   7.066   2.868  0.00  0.00    +0.002 A 
ATOM      8  C   UNL     1       2.904   8.276   2.973  0.00  0.00    +0.002 A 
ATOM      9  C   UNL     1       1.577   8.384   2.595  0.00  0.00    +0.030 A 
ATOM     10  C   UNL     1       0.903   7.268   2.106  0.00  0.00    +0.087 A 
ATOM     11  N   UNL     1      -0.397   7.565   1.783  0.00  0.00    -0.230 NA
ATOM     12  C   UNL     1      -1.333   6.776   1.297  0.00  0.00    +0.134 C 
ATOM     13  N   UNL     1      -2.523   7.452   1.104  0.00  0.00    -0.254 N 
ATOM     14  C   UNL     1      -3.626   6.871   0.619  0.00  0.00    +0.306 C 
ATOM     15  O   UNL     1      -4.624   7.551   0.486  0.00  0.00    -0.252 OA
ATOM     16  N   UNL     1      -3.689   5.574   0.271  0.00  0.00    -0.288 N 
ATOM     17  H   UNL     1       1.826   4.004   1.576  0.00  0.00    +0.152 HD
ATOM     18  H   UNL     1      -2.595   8.521   1.353  0.00  0.00    +0.158 HD
ATOM     19  H   UNL     1      -4.621   5.143  -0.124  0.00  0.00    +0.151 HD
ENDROOT
BRANCH   1  24
ATOM     20  C   UNL     1      -2.550   2.547  -2.672  0.00  0.00    +0.162 A 
ATOM     21  C   UNL     1      -1.524   3.107  -3.417  0.00  0.00    +0.049 A 
ATOM     22  C   UNL     1      -0.818   4.186  -2.919  0.00  0.00    +0.004 A 
ATOM     23  C   UNL     1      -1.135   4.712  -1.681  0.00  0.00    +0.009 A 
ATOM     24  C   UNL     1      -2.153   4.155  -0.930  0.00  0.00    +0.023 A 
ATOM     25  C   UNL     1      -2.865   3.074  -1.423  0.00  0.00    +0.167 A 
BRANCH  20  27
ATOM     26  C   UNL     1      -2.866   0.999  -4.449  0.00  0.00    +0.277 C 
ATOM     27  O   UNL     1      -3.245   1.486  -3.160  0.00  0.00    -0.491 OA
ENDBRANCH  20  27
BRANCH  25  28
ATOM     28  O   UNL     1      -3.870   2.527  -0.688  0.00  0.00    -0.491 OA
ATOM     29  C   UNL     1      -5.201   2.950  -0.992  0.00  0.00    +0.277 C 
ENDBRANCH  25  28
ENDBRANCH   1  24
BRANCH   3  30
ATOM     30  C   UNL     1      -0.467   3.151   0.642  0.00  0.00    -0.003 A 
ATOM     31  C   UNL     1      -1.413   2.372   1.312  0.00  0.00    +0.010 A 
ATOM     32  C   UNL     1      -1.649   1.076   0.904  0.00  0.00    +0.001 A 
ATOM     33  C   UNL     1      -0.952   0.547  -0.168  0.00  0.00    +0.000 A 
ATOM     34  C   UNL     1      -0.009   1.311  -0.834  0.00  0.00    +0.001 A 
ATOM     35  C   UNL     1       0.233   2.610  -0.439  0.00  0.00    +0.010 A 
ENDBRANCH   3  30
TORSDOF 4
