REMARK  Name = ZINC14505525
REMARK  6 active torsions:
REMARK  status: ('A' for Active; 'I' for Inactive)
REMARK    1  A    between atoms: C_1  and  C_2
REMARK    2  A    between atoms: C_8  and  C_10
REMARK    3  A    between atoms: C_10  and  C_12
REMARK    4  A    between atoms: C_10  and  S_13
REMARK    5  A    between atoms: S_13  and  C_14
REMARK    6  A    between atoms: C_14  and  C_15
REMARK                            x       y       z     vdW  Elec       q    Type
REMARK                         _______ _______ _______ _____ _____    ______ ____
ROOT
ATOM      1  C   UNL     1      -2.619  -3.085   1.161  0.00  0.00    +0.229 C 
ATOM      2  O   UNL     1      -3.587  -2.407   1.432  0.00  0.00    -0.275 OA
ATOM      3  N   UNL     1      -2.677  -4.425   1.295  0.00  0.00    -0.264 N 
ATOM      4  C   UNL     1      -3.841  -5.028   1.744  0.00  0.00    +0.165 A 
ATOM      5  N   UNL     1      -4.091  -6.303   1.939  0.00  0.00    -0.224 NA
ATOM      6  C   UNL     1      -5.274  -6.750   2.381  0.00  0.00    +0.088 A 
ATOM      7  C   UNL     1      -5.691  -8.142   2.643  0.00  0.00    +0.009 A 
ATOM      8  C   UNL     1      -4.798  -9.199   2.430  0.00  0.00    +0.010 A 
ATOM      9  C   UNL     1      -5.199 -10.479   2.678  0.00  0.00    +0.001 A 
ATOM     10  C   UNL     1      -6.485 -10.745   3.140  0.00  0.00    +0.001 A 
ATOM     11  C   UNL     1      -7.376  -9.738   3.357  0.00  0.00    +0.008 A 
ATOM     12  C   UNL     1      -6.995  -8.407   3.111  0.00  0.00    -0.016 A 
ATOM     13  C   UNL     1      -7.902  -7.350   3.329  0.00  0.00    +0.010 A 
ATOM     14  C   UNL     1      -7.521  -6.067   3.088  0.00  0.00    +0.018 A 
ATOM     15  C   UNL     1      -6.251  -5.768   2.630  0.00  0.00    +0.041 A 
ATOM     16  S   UNL     1      -5.390  -4.269   2.215  0.00  0.00    -0.052 S 
ATOM     17  H   UNL     1      -1.902  -4.968   1.079  0.00  0.00    +0.157 HD
ENDROOT
BRANCH   1  18
ATOM     18  C   UNL     1      -1.353  -2.430   0.673  0.00  0.00    +0.165 C 
BRANCH  18  19
ATOM     19  S   UNL     1      -1.591  -0.634   0.599  0.00  0.00    -0.139 S 
BRANCH  19  20
ATOM     20  C   UNL     1       0.002  -0.004   0.002  0.00  0.00    +0.130 C 
ATOM     21  C   UNL     1       0.246  -0.503  -1.424  0.00  0.00    +0.029 C 
BRANCH  20  29
ATOM     22  C   UNL     1      -0.296   6.967   0.043  0.00  0.00    +0.089 C 
ATOM     23  C   UNL     1       0.483   5.677   0.028  0.00  0.00    +0.136 A 
ATOM     24  C   UNL     1      -0.027   4.424   0.026  0.00  0.00    +0.091 A 
ATOM     25  C   UNL     1       1.121   3.587   0.011  0.00  0.00    +0.168 A 
ATOM     26  N   UNL     1       2.155   4.386   0.011  0.00  0.00    -0.063 NA
ATOM     27  O   UNL     1       1.818   5.547   0.015  0.00  0.00    -0.358 OA
ATOM     28  N   UNL     1       1.139   2.192   0.003  0.00  0.00    -0.267 N 
ATOM     29  C   UNL     1      -0.018   1.503   0.010  0.00  0.00    +0.231 C 
ATOM     30  O   UNL     1      -1.077   2.095   0.018  0.00  0.00    -0.274 OA
ATOM     31  H   UNL     1       1.986   1.719  -0.008  0.00  0.00    +0.156 HD
ENDBRANCH  20  29
ENDBRANCH  19  20
ENDBRANCH  18  19
ENDBRANCH   1  18
TORSDOF 4
