REMARK  Name = ZINC34377802
REMARK  3 active torsions:
REMARK  status: ('A' for Active; 'I' for Inactive)
REMARK    1  A    between atoms: C_6  and  N_11
REMARK    2  A    between atoms: C_27  and  C_33
REMARK    3  A    between atoms: N_35  and  C_36
REMARK                            x       y       z     vdW  Elec       q    Type
REMARK                         _______ _______ _______ _____ _____    ______ ____
ROOT
ATOM      1  N   UNL     1       4.934  -2.673  -0.059  0.00  0.00    -0.210 N 
ATOM      2  C   UNL     1       5.038  -4.008   0.034  0.00  0.00    +0.232 C 
ATOM      3  O   UNL     1       4.130  -4.777   0.267  0.00  0.00    -0.274 OA
ATOM      4  C   UNL     1       6.484  -4.390  -0.203  0.00  0.00    +0.115 C 
ATOM      5  C   UNL     1       6.978  -5.344   0.882  0.00  0.00    +0.117 C 
ATOM      6  C   UNL     1       5.868  -6.219   1.404  0.00  0.00    -0.019 A 
ATOM      7  C   UNL     1       4.862  -6.663   0.578  0.00  0.00    +0.006 A 
ATOM      8  C   UNL     1       3.851  -7.462   1.086  0.00  0.00    +0.000 A 
ATOM      9  C   UNL     1       3.849  -7.815   2.424  0.00  0.00    +0.001 A 
ATOM     10  C   UNL     1       4.854  -7.378   3.262  0.00  0.00    +0.008 A 
ATOM     11  C   UNL     1       5.877  -6.574   2.758  0.00  0.00    -0.019 A 
ATOM     12  C   UNL     1       6.965  -6.110   3.644  0.00  0.00    +0.023 C 
ATOM     13  C   UNL     1       7.735  -5.074   3.257  0.00  0.00    +0.072 C 
ATOM     14  N   UNL     1       7.466  -4.525   2.007  0.00  0.00    -0.316 N 
ATOM     15  C   UNL     1       7.508  -3.122   1.611  0.00  0.00    +0.172 C 
ATOM     16  C   UNL     1       7.224  -3.046   0.078  0.00  0.00    +0.119 C 
ATOM     17  C   UNL     1       6.112  -2.037  -0.162  0.00  0.00    +0.232 C 
ATOM     18  O   UNL     1       6.262  -0.858  -0.403  0.00  0.00    -0.274 OA
ENDROOT
BRANCH   1  24
ATOM     19  C   UNL     1      -0.293   0.812  -1.033  0.00  0.00    +0.001 A 
ATOM     20  C   UNL     1       0.590   1.007  -2.094  0.00  0.00    +0.001 A 
ATOM     21  C   UNL     1       1.792   0.371  -2.131  0.00  0.00    +0.008 A 
ATOM     22  C   UNL     1       2.153  -0.495  -1.084  0.00  0.00    -0.016 A 
ATOM     23  C   UNL     1       3.386  -1.167  -1.088  0.00  0.00    +0.032 A 
ATOM     24  C   UNL     1       3.704  -2.002  -0.054  0.00  0.00    +0.044 A 
ATOM     25  C   UNL     1       2.816  -2.195   1.010  0.00  0.00    +0.024 A 
ATOM     26  C   UNL     1       1.615  -1.559   1.043  0.00  0.00    +0.010 A 
ATOM     27  C   UNL     1       1.256  -0.693  -0.005  0.00  0.00    -0.018 A 
ATOM     28  C   UNL     1       0.023  -0.019  -0.003  0.00  0.00    +0.008 A 
ENDBRANCH   1  24
BRANCH  15  29
ATOM     29  C   UNL     1       6.457  -2.347   2.364  0.00  0.00    +0.238 C 
ATOM     30  O   UNL     1       5.534  -2.931   2.890  0.00  0.00    -0.273 OA
ATOM     31  N   UNL     1       6.544  -1.005   2.452  0.00  0.00    -0.284 N 
ATOM     32  H   UNL     1       7.236  -0.531   1.966  0.00  0.00    +0.155 HD
BRANCH  31  33
ATOM     33  C   UNL     1       5.635  -0.296   3.247  0.00  0.00    +0.034 A 
ATOM     34  C   UNL     1       5.163  -0.852   4.428  0.00  0.00    +0.025 A 
ATOM     35  C   UNL     1       4.266  -0.150   5.210  0.00  0.00    +0.022 A 
ATOM     36  C   UNL     1       3.838   1.105   4.817  0.00  0.00    +0.041 A 
ATOM     37  C   UNL     1       4.307   1.662   3.639  0.00  0.00    +0.022 A 
ATOM     38  C   UNL     1       5.208   0.967   2.857  0.00  0.00    +0.025 A 
ATOM     39 CL   UNL     1       2.711   1.984   5.801  0.00  0.00    -0.084 Cl
ENDBRANCH  31  33
ENDBRANCH  15  29
TORSDOF 3
