REMARK  Name = ZINC08442877
REMARK  6 active torsions:
REMARK  status: ('A' for Active; 'I' for Inactive)
REMARK    1  A    between atoms: C_1  and  C_2
REMARK    2  A    between atoms: C_5  and  N_9
REMARK    3  A    between atoms: C_7  and  C_8
REMARK    4  A    between atoms: C_13  and  N_14
REMARK    5  A    between atoms: C_20  and  S_24
REMARK    6  A    between atoms: S_24  and  C_25
REMARK                            x       y       z     vdW  Elec       q    Type
REMARK                         _______ _______ _______ _____ _____    ______ ____
ROOT
ATOM      1  N   UNL     1       8.884   0.600  -0.293  0.00  0.00    -0.190 N 
ATOM      2  C   UNL     1       7.609   1.032  -0.211  0.00  0.00    +0.265 C 
ATOM      3  O   UNL     1       7.354   2.220  -0.146  0.00  0.00    -0.269 OA
ATOM      4  C   UNL     1       6.532   0.025  -0.195  0.00  0.00    +0.113 C 
ATOM      5  C   UNL     1       5.203   0.392  -0.106  0.00  0.00    +0.092 C 
ATOM      6  C   UNL     1       6.936  -1.390  -0.284  0.00  0.00    +0.258 C 
ATOM      7  O   UNL     1       6.104  -2.278  -0.281  0.00  0.00    -0.270 OA
ATOM      8  N   UNL     1       8.252  -1.674  -0.368  0.00  0.00    -0.235 N 
ATOM      9  C   UNL     1       9.178  -0.705  -0.371  0.00  0.00    +0.320 C 
ATOM     10  O   UNL     1      10.348  -1.028  -0.449  0.00  0.00    -0.251 OA
ATOM     11  H   UNL     1       8.534  -2.600  -0.427  0.00  0.00    +0.159 HD
ENDROOT
BRANCH   5  12
ATOM     12  N   UNL     1       4.857   1.697  -0.159  0.00  0.00    -0.299 N 
ATOM     13  C   UNL     1       3.521   2.059  -0.179  0.00  0.00    +0.163 A 
ATOM     14  N   UNL     1       2.459   1.289  -0.153  0.00  0.00    -0.225 NA
ATOM     15  C   UNL     1       1.202   1.783  -0.178  0.00  0.00    +0.080 A 
ATOM     16  C   UNL     1      -0.018   1.067  -0.156  0.00  0.00    +0.030 A 
ATOM     17  C   UNL     1      -1.211   1.718  -0.192  0.00  0.00    +0.018 A 
ATOM     18  C   UNL     1      -1.283   3.109  -0.242  0.00  0.00    +0.024 A 
ATOM     19  C   UNL     1      -0.106   3.847  -0.266  0.00  0.00    +0.033 A 
ATOM     20  C   UNL     1       1.100   3.192  -0.234  0.00  0.00    +0.042 A 
ATOM     21  S   UNL     1       2.804   3.695  -0.246  0.00  0.00    -0.052 S 
ATOM     22  H   UNL     1       5.545   2.381  -0.183  0.00  0.00    +0.154 HD
BRANCH  18  23
ATOM     23  S   UNL     1      -2.846   3.921  -0.282  0.00  0.00    -0.010 S 
BRANCH  23  24
ATOM     24  C   UNL     1      -3.947   2.485  -0.231  0.00  0.00    +0.138 C 
ATOM     25  N   UNL     1      -4.638   1.584  -0.199  0.00  0.00    -0.183 NA
ENDBRANCH  23  24
ENDBRANCH  18  23
ENDBRANCH   5  12
BRANCH   1  30
ATOM     26  C   UNL     1      13.099   4.400  -0.342  0.00  0.00    +0.044 C 
ATOM     27  C   UNL     1      11.980   3.391  -0.329  0.00  0.00    -0.047 A 
ATOM     28  C   UNL     1      11.727   2.627  -1.453  0.00  0.00    +0.005 A 
ATOM     29  C   UNL     1      10.702   1.701  -1.445  0.00  0.00    +0.024 A 
ATOM     30  C   UNL     1       9.925   1.538  -0.305  0.00  0.00    +0.046 A 
ATOM     31  C   UNL     1      10.178   2.311   0.820  0.00  0.00    +0.027 A 
ATOM     32  C   UNL     1      11.208   3.231   0.807  0.00  0.00    -0.046 A 
ATOM     33  C   UNL     1      11.487   4.066   2.030  0.00  0.00    +0.044 C 
ENDBRANCH   1  30
TORSDOF 4
