REMARK  Name = ZINC09464426
REMARK  6 active torsions:
REMARK  status: ('A' for Active; 'I' for Inactive)
REMARK    1  A    between atoms: C_9  and  S_11
REMARK    2  A    between atoms: S_11  and  C_12
REMARK    3  A    between atoms: C_12  and  C_13
REMARK    4  A    between atoms: C_16  and  C_19
REMARK    5  A    between atoms: N_24  and  C_27
REMARK    6  A    between atoms: C_30  and  C_32
REMARK                            x       y       z     vdW  Elec       q    Type
REMARK                         _______ _______ _______ _____ _____    ______ ____
ROOT
ATOM      1  C   UNL     1      -5.579   2.818   7.486  0.00  0.00    +0.247 C 
ATOM      2  O   UNL     1      -6.339   3.757   7.622  0.00  0.00    -0.270 OA
ATOM      3  N   UNL     1      -5.030   2.564   6.282  0.00  0.00    -0.295 N 
ATOM      4  C   UNL     1      -5.400   3.359   5.101  0.00  0.00    +0.127 C 
ATOM      5  C   UNL     1      -5.790   2.400   3.971  0.00  0.00    +0.125 C 
ATOM      6  N   UNL     1      -4.703   1.436   3.755  0.00  0.00    -0.314 N 
ATOM      7  C   UNL     1      -4.488   0.600   4.944  0.00  0.00    +0.125 C 
ATOM      8  C   UNL     1      -4.045   1.485   6.114  0.00  0.00    +0.127 C 
ENDROOT
BRANCH   6   9
ATOM      9  C   UNL     1      -4.947   0.653   2.633  0.00  0.00    +0.099 A 
ATOM     10  C   UNL     1      -4.029  -0.324   2.260  0.00  0.00    +0.042 A 
ATOM     11  C   UNL     1      -4.285  -1.096   1.142  0.00  0.00    +0.017 A 
ATOM     12  C   UNL     1      -5.455  -0.864   0.430  0.00  0.00    +0.071 A 
ATOM     13  C   UNL     1      -6.319   0.126   0.853  0.00  0.00    +0.096 A 
ATOM     14  N   UNL     1      -6.103   0.899   1.950  0.00  0.00    -0.349 N 
ATOM     15  H   UNL     1      -6.767   1.623   2.247  0.00  0.00    +0.167 HD
BRANCH  12  16
ATOM     16  C   UNL     1      -5.775  -1.681  -0.795  0.00  0.00    +0.419 C 
ATOM     17  F   UNL     1      -6.505  -2.814  -0.422  0.00  0.00    -0.166 F 
ATOM     18  F   UNL     1      -4.585  -2.077  -1.416  0.00  0.00    -0.166 F 
ATOM     19  F   UNL     1      -6.531  -0.911  -1.685  0.00  0.00    -0.166 F 
ENDBRANCH  12  16
ENDBRANCH   6   9
BRANCH   1  23
ATOM     20  C   UNL     1      -4.655   0.336  10.807  0.00  0.00    -0.037 A 
ATOM     21  C   UNL     1      -5.975   0.627  10.511  0.00  0.00    +0.005 A 
ATOM     22  C   UNL     1      -6.282   1.433   9.434  0.00  0.00    +0.013 A 
ATOM     23  C   UNL     1      -5.258   1.954   8.642  0.00  0.00    +0.037 A 
ATOM     24  C   UNL     1      -3.928   1.653   8.943  0.00  0.00    +0.013 A 
ATOM     25  C   UNL     1      -3.635   0.850  10.026  0.00  0.00    +0.005 A 
BRANCH  20  26
ATOM     26  C   UNL     1      -4.327  -0.545  11.985  0.00  0.00    +0.112 C 
BRANCH  26  27
ATOM     27  S   UNL     1      -4.272  -2.273  11.450  0.00  0.00    -0.083 S 
BRANCH  27  36
ATOM     28  C   UNL     1      -2.887  -5.605  16.601  0.00  0.00    +0.002 A 
ATOM     29  C   UNL     1      -2.882  -4.354  17.199  0.00  0.00    +0.002 A 
ATOM     30  C   UNL     1      -3.144  -3.224  16.458  0.00  0.00    +0.030 A 
ATOM     31  C   UNL     1      -3.417  -3.338  15.092  0.00  0.00    +0.090 A 
ATOM     32  C   UNL     1      -3.420  -4.607  14.491  0.00  0.00    +0.067 A 
ATOM     33  C   UNL     1      -3.154  -5.734  15.253  0.00  0.00    +0.028 A 
ATOM     34  N   UNL     1      -3.716  -4.400  13.154  0.00  0.00    -0.333 N 
ATOM     35  H   UNL     1      -3.795  -5.104  12.448  0.00  0.00    +0.168 HD
ATOM     36  C   UNL     1      -3.881  -3.055  12.979  0.00  0.00    +0.168 A 
ATOM     37  N   UNL     1      -3.699  -2.433  14.118  0.00  0.00    -0.222 NA
ENDBRANCH  27  36
ENDBRANCH  26  27
ENDBRANCH  20  26
ENDBRANCH   1  23
TORSDOF 6
