REMARK  Name = ZINC38664624
REMARK  14 active torsions:
REMARK  status: ('A' for Active; 'I' for Inactive)
REMARK    1  A    between atoms: C_1  and  C_2
REMARK    2  A    between atoms: C_2  and  N_3
REMARK    3  A    between atoms: N_3  and  C_4
REMARK    4  A    between atoms: N_3  and  C_6
REMARK    5  A    between atoms: C_4  and  C_5
REMARK    6  A    between atoms: C_6  and  C_7
REMARK    7  A    between atoms: C_7  and  O_9
REMARK    8  A    between atoms: O_9  and  C_10
REMARK    9  A    between atoms: C_10  and  C_11
REMARK   10  A    between atoms: C_11  and  C_13
REMARK   11  A    between atoms: C_13  and  O_38
REMARK   12  A    between atoms: C_18  and  C_37
REMARK   13  A    between atoms: C_20  and  O_36
REMARK   14  A    between atoms: C_34  and  C_35
REMARK                            x       y       z     vdW  Elec       q    Type
REMARK                         _______ _______ _______ _____ _____    ______ ____
ROOT
ATOM      1  C   UNL     1      -4.656  -6.175  -0.993  0.00  0.00    +0.133 C 
ATOM      2  C   UNL     1      -5.185  -6.523  -2.408  0.00  0.00    +0.043 C 
ATOM      3  C   UNL     1      -5.563  -8.031  -2.375  0.00  0.00    +0.008 C 
ATOM      4  C   UNL     1      -5.764  -8.278  -0.870  0.00  0.00    +0.002 C 
ATOM      5  C   UNL     1      -4.551  -7.535  -0.277  0.00  0.00    +0.009 C 
ATOM      6  C   UNL     1      -4.629  -7.481   1.229  0.00  0.00    +0.041 C 
ATOM      7  C   UNL     1      -5.512  -8.638   1.754  0.00  0.00    +0.119 C 
ATOM      8  C   UNL     1      -5.194  -9.886   0.951  0.00  0.00    +0.031 C 
ATOM      9  C   UNL     1      -5.853  -9.707  -0.431  0.00  0.00    -0.001 C 
ATOM     10  C   UNL     1      -5.363 -10.746  -1.420  0.00  0.00    +0.008 C 
ATOM     11  C   UNL     1      -5.827 -12.125  -0.899  0.00  0.00    +0.032 C 
ATOM     12  C   UNL     1      -5.236 -12.272   0.493  0.00  0.00    -0.060 C 
ATOM     13  C   UNL     1      -4.434 -13.305   0.719  0.00  0.00    +0.046 C 
ATOM     14  C   UNL     1      -3.764 -13.456   2.015  0.00  0.00    +0.156 C 
ATOM     15  O   UNL     1      -3.313 -14.511   2.401  0.00  0.00    -0.293 OA
ATOM     16  C   UNL     1      -3.637 -12.179   2.829  0.00  0.00    +0.080 C 
ATOM     17  C   UNL     1      -5.029 -11.554   2.891  0.00  0.00    +0.019 C 
ATOM     18  C   UNL     1      -5.593 -11.229   1.529  0.00  0.00    -0.005 C 
ATOM     19  C   UNL     1      -7.112 -11.269   1.701  0.00  0.00    +0.016 C 
ATOM     20  C   UNL     1      -3.226  -8.168  -0.716  0.00  0.00    +0.015 C 
ENDROOT
BRANCH   1  21
ATOM     21  C   UNL     1      -3.299  -5.534  -1.084  0.00  0.00    +0.202 C 
ATOM     22  O   UNL     1      -2.625  -5.683  -2.075  0.00  0.00    -0.291 OA
BRANCH  21  23
ATOM     23  C   UNL     1      -2.779  -4.705   0.062  0.00  0.00    +0.309 C 
BRANCH  23  24
ATOM     24  O   UNL     1      -1.479  -4.208  -0.261  0.00  0.00    -0.458 OA
BRANCH  24  25
ATOM     25  C   UNL     1      -0.871  -3.445   0.662  0.00  0.00    +0.291 C 
ATOM     26  O   UNL     1      -1.425  -3.208   1.709  0.00  0.00    -0.253 OA
BRANCH  25  27
ATOM     27  C   UNL     1       0.501  -2.885   0.392  0.00  0.00    +0.044 C 
BRANCH  27  28
ATOM     28  N   UNL     1       0.942  -2.091   1.547  0.00  0.00    +0.386 N 
ATOM     29  H   UNL     1       0.253  -1.384   1.752  0.00  0.00    -0.081 HD
BRANCH  28  31
ATOM     30  C   UNL     1       1.412  -2.126   3.950  0.00  0.00    -0.017 C 
ATOM     31  C   UNL     1       1.104  -2.971   2.712  0.00  0.00    -0.082 C 
ENDBRANCH  28  31
BRANCH  28  32
ATOM     32  C   UNL     1       2.226  -1.448   1.237  0.00  0.00    -0.082 C 
ATOM     33  C   UNL     1       2.026  -0.421   0.120  0.00  0.00    -0.017 C 
ENDBRANCH  28  32
ENDBRANCH  27  28
ENDBRANCH  25  27
ENDBRANCH  24  25
ENDBRANCH  23  24
ENDBRANCH  21  23
ENDBRANCH   1  21
BRANCH   7  34
ATOM     34  O   UNL     1      -5.271  -8.787   3.147  0.00  0.00    -0.391 OA
ATOM     35  H   UNL     1      -5.476  -7.998   3.668  0.00  0.00    +0.210 HD
ENDBRANCH   7  34
BRANCH   1  36
ATOM     36  O   UNL     1      -5.577  -5.325  -0.316  0.00  0.00    -0.380 OA
ATOM     37  H   UNL     1      -5.701  -4.464  -0.738  0.00  0.00    +0.211 HD
ENDBRANCH   1  36
TORSDOF 10
