REMARK  Name = ZINC50358947
REMARK  5 active torsions:
REMARK  status: ('A' for Active; 'I' for Inactive)
REMARK    1  A    between atoms: C_1  and  C_2
REMARK    2  A    between atoms: C_2  and  C_3
REMARK    3  A    between atoms: C_2  and  C_4
REMARK    4  A    between atoms: C_2  and  C_5
REMARK    5  A    between atoms: C_11  and  C_13
REMARK                            x       y       z     vdW  Elec       q    Type
REMARK                         _______ _______ _______ _____ _____    ______ ____
ROOT
ATOM      1  C   UNL     1       0.707  -0.490  -1.238  0.00  0.00    +0.054 A 
ATOM      2  C   UNL     1       1.210   0.411  -2.132  0.00  0.00    +0.094 A 
ATOM      3  C   UNL     1       1.865  -0.064  -3.284  0.00  0.00    +0.252 A 
ATOM      4  O   UNL     1       2.325   0.715  -4.103  0.00  0.00    -0.268 OA
ATOM      5  N   UNL     1       1.975  -1.397  -3.465  0.00  0.00    -0.304 N 
ATOM      6  H   UNL     1       2.423  -1.747  -4.251  0.00  0.00    +0.170 HD
ATOM      7  C   UNL     1       1.452  -2.252  -2.535  0.00  0.00    +0.177 A 
ATOM      8  N   UNL     1       0.844  -1.795  -1.454  0.00  0.00    -0.230 NA
ENDROOT
BRANCH   7   9
ATOM      9  C   UNL     1       1.573  -3.699  -2.736  0.00  0.00    +0.173 A 
ATOM     10  C   UNL     1       2.182  -4.314  -3.794  0.00  0.00    +0.069 A 
ATOM     11  C   UNL     1       2.065  -5.696  -3.580  0.00  0.00    +0.071 A 
ATOM     12  C   UNL     1       1.397  -5.863  -2.414  0.00  0.00    +0.185 A 
ATOM     13  O   UNL     1       1.109  -4.656  -1.907  0.00  0.00    -0.444 OA
ATOM     14 BR   UNL     1       0.953  -7.524  -1.627  0.00  0.00    -0.007 Br
ATOM     15 BR   UNL     1       2.716  -7.067  -4.708  0.00  0.00    -0.046 Br
ENDBRANCH   7   9
BRANCH   1  17
ATOM     16  C   UNL     1      -0.019   1.526   0.010  0.00  0.00    +0.017 C 
ATOM     17  C   UNL     1       0.002  -0.004   0.002  0.00  0.00    +0.005 C 
ATOM     18  C   UNL     1       0.742  -0.511   1.242  0.00  0.00    +0.017 C 
ATOM     19  C   UNL     1      -1.433  -0.534   0.013  0.00  0.00    +0.017 C 
ENDBRANCH   1  17
TORSDOF 2
