REMARK  Name = ZINC23525845
REMARK  9 active torsions:
REMARK  status: ('A' for Active; 'I' for Inactive)
REMARK    1  A    between atoms: C_1  and  C_2
REMARK    2  A    between atoms: C_2  and  C_3
REMARK    3  A    between atoms: C_3  and  N_4
REMARK    4  A    between atoms: C_5  and  C_26
REMARK    5  A    between atoms: C_8  and  S_9
REMARK    6  A    between atoms: S_9  and  C_10
REMARK    7  A    between atoms: C_10  and  C_11
REMARK    8  A    between atoms: C_16  and  C_19
REMARK    9  A    between atoms: C_22  and  C_25
REMARK                            x       y       z     vdW  Elec       q    Type
REMARK                         _______ _______ _______ _____ _____    ______ ____
ROOT
ATOM      1  C   UNL     1       0.656   4.953   3.024  0.00  0.00    +0.173 C 
ENDROOT
BRANCH   1   2
ATOM      2  C   UNL     1       1.730   6.011   3.006  0.00  0.00    +0.229 C 
ATOM      3  O   UNL     1       2.652   5.926   2.223  0.00  0.00    -0.275 OA
ATOM      4  N   UNL     1       1.665   7.051   3.860  0.00  0.00    -0.264 N 
ATOM      5  C   UNL     1       2.655   8.027   3.844  0.00  0.00    +0.165 A 
ATOM      6  N   UNL     1       2.772   9.110   4.589  0.00  0.00    -0.225 NA
ATOM      7  C   UNL     1       3.793   9.941   4.438  0.00  0.00    +0.080 A 
ATOM      8  C   UNL     1       4.743   9.671   3.493  0.00  0.00    +0.076 A 
ATOM      9  S   UNL     1       4.110   8.143   2.814  0.00  0.00    -0.060 S 
ATOM     10  H   UNL     1       0.828   7.129   4.571  0.00  0.00    +0.157 HD
BRANCH   7  11
ATOM     11  C   UNL     1       3.904  11.151   5.288  0.00  0.00    +0.001 A 
ATOM     12  C   UNL     1       4.983  12.020   5.130  0.00  0.00    +0.010 A 
ATOM     13  C   UNL     1       5.078  13.148   5.919  0.00  0.00    +0.004 A 
ATOM     14  C   UNL     1       4.111  13.412   6.873  0.00  0.00    -0.050 A 
ATOM     15  C   UNL     1       3.042  12.550   7.038  0.00  0.00    +0.004 A 
ATOM     16  C   UNL     1       2.933  11.422   6.250  0.00  0.00    +0.010 A 
ATOM     17  C   UNL     1       4.224  14.642   7.736  0.00  0.00    +0.044 C 
ENDBRANCH   7  11
ENDBRANCH   1   2
BRANCH   1  18
ATOM     18  S   UNL     1       1.023   3.700   1.771  0.00  0.00    -0.077 S 
BRANCH  18  23
ATOM     19  N   UNL     1      -0.604   1.472   1.315  0.00  0.00    -0.302 N 
ATOM     20  C   UNL     1      -1.771   0.970   1.844  0.00  0.00    +0.165 A 
ATOM     21  N   UNL     1      -2.157   1.802   2.783  0.00  0.00    -0.128 NA
ATOM     22  N   UNL     1      -1.324   2.776   2.877  0.00  0.00    -0.122 NA
ATOM     23  C   UNL     1      -0.350   2.621   2.006  0.00  0.00    +0.192 A 
BRANCH  20  24
ATOM     24  C   UNL     1      -2.460  -0.270   1.432  0.00  0.00    +0.022 A 
ATOM     25  C   UNL     1      -2.192  -0.865   0.193  0.00  0.00    +0.031 A 
ATOM     26  C   UNL     1      -2.854  -2.025  -0.149  0.00  0.00    +0.111 A 
ATOM     27  N   UNL     1      -3.736  -2.568   0.669  0.00  0.00    -0.263 NA
ATOM     28  C   UNL     1      -4.023  -2.038   1.843  0.00  0.00    +0.111 A 
ATOM     29  C   UNL     1      -3.404  -0.881   2.267  0.00  0.00    +0.031 A 
ENDBRANCH  20  24
BRANCH  19  30
ATOM     30  C   UNL     1       0.202   0.890   0.239  0.00  0.00    +0.125 C 
BRANCH  30  32
ATOM     31  C   UNL     1       0.616   0.884  -2.225  0.00  0.00    +0.005 C 
ATOM     32  C   UNL     1      -0.226   1.492  -1.101  0.00  0.00    +0.018 C 
ENDBRANCH  30  32
ENDBRANCH  19  30
ENDBRANCH  18  23
ENDBRANCH   1  18
TORSDOF 7
