REMARK  Name = ZINC01204161
REMARK  6 active torsions:
REMARK  status: ('A' for Active; 'I' for Inactive)
REMARK    1  A    between atoms: C_1  and  C_2
REMARK    2  A    between atoms: C_5  and  O_29
REMARK    3  A    between atoms: C_6  and  N_8
REMARK    4  A    between atoms: C_9  and  C_11
REMARK    5  A    between atoms: C_17  and  C_24
REMARK    6  A    between atoms: C_19  and  C_20
REMARK                            x       y       z     vdW  Elec       q    Type
REMARK                         _______ _______ _______ _____ _____    ______ ____
ROOT
ATOM      1  C   UNL     1      -0.116   8.610   0.067  0.00  0.00    +0.101 A 
ATOM      2  C   UNL     1       0.884   9.600   0.068  0.00  0.00    +0.150 A 
ATOM      3  N   UNL     1       2.053   9.017   0.064  0.00  0.00    -0.172 NA
ATOM      4  N   UNL     1       1.884   7.628   0.061  0.00  0.00    -0.209 N 
ATOM      5  C   UNL     1       0.543   7.363   0.063  0.00  0.00    +0.169 A 
ATOM      6  N   UNL     1       0.092   6.111   0.055  0.00  0.00    -0.226 NA
ATOM      7  C   UNL     1       0.936   5.086   0.056  0.00  0.00    +0.082 A 
ATOM      8  C   UNL     1       2.330   5.324   0.054  0.00  0.00    +0.061 A 
ATOM      9  C   UNL     1       2.783   6.598   0.057  0.00  0.00    +0.149 A 
ENDROOT
BRANCH   7  10
ATOM     10  C   UNL     1       0.422   3.707   0.054  0.00  0.00    +0.038 A 
ATOM     11  C   UNL     1      -0.888   3.264   0.055  0.00  0.00    +0.017 A 
ATOM     12  C   UNL     1      -1.090   1.903   0.045  0.00  0.00    +0.008 A 
ATOM     13  C   UNL     1      -0.016   1.075   0.047  0.00  0.00    +0.046 A 
ATOM     14  S   UNL     1       1.328   2.169   0.048  0.00  0.00    -0.095 S 
ENDBRANCH   7  10
BRANCH   1  16
ATOM     15  N   UNL     1      -2.053  10.087   0.073  0.00  0.00    -0.278 N 
ATOM     16  C   UNL     1      -1.563   8.831   0.069  0.00  0.00    +0.253 C 
ATOM     17  O   UNL     1      -2.325   7.881   0.068  0.00  0.00    -0.270 OA
ATOM     18  H   UNL     1      -1.449  10.843   0.140  0.00  0.00    +0.155 HD
BRANCH  15  24
ATOM     19  C   UNL     1      -6.636   8.660   1.138  0.00  0.00    +0.044 C 
ATOM     20  C   UNL     1      -5.679   9.625   0.487  0.00  0.00    -0.048 A 
ATOM     21  C   UNL     1      -6.166  10.721  -0.200  0.00  0.00    +0.007 A 
ATOM     22  C   UNL     1      -5.293  11.610  -0.799  0.00  0.00    +0.047 A 
ATOM     23  C   UNL     1      -3.926  11.404  -0.712  0.00  0.00    +0.138 A 
ATOM     24  C   UNL     1      -3.434  10.300  -0.019  0.00  0.00    +0.076 A 
ATOM     25  C   UNL     1      -4.317   9.409   0.575  0.00  0.00    +0.030 A 
BRANCH  23  26
ATOM     26  O   UNL     1      -3.066  12.277  -1.301  0.00  0.00    -0.505 OA
ATOM     27  H   UNL     1      -2.842  12.052  -2.214  0.00  0.00    +0.292 HD
ENDBRANCH  23  26
ENDBRANCH  15  24
ENDBRANCH   1  16
BRANCH   9  28
ATOM     28  C   UNL     1       4.263   6.880   0.056  0.00  0.00    +0.434 C 
ATOM     29  F   UNL     1       4.967   5.676  -0.063  0.00  0.00    -0.164 F 
ATOM     30  F   UNL     1       4.579   7.712  -1.023  0.00  0.00    -0.164 F 
ATOM     31  F   UNL     1       4.619   7.511   1.252  0.00  0.00    -0.164 F 
ENDBRANCH   9  28
TORSDOF 5
