REMARK  Name = ZINC09909542
REMARK  4 active torsions:
REMARK  status: ('A' for Active; 'I' for Inactive)
REMARK    1  A    between atoms: C_6  and  C_7
REMARK    2  A    between atoms: N_9  and  C_10
REMARK    3  A    between atoms: C_10  and  C_12
REMARK    4  A    between atoms: C_10  and  C_20
REMARK                            x       y       z     vdW  Elec       q    Type
REMARK                         _______ _______ _______ _____ _____    ______ ____
ROOT
ATOM      1  C   UNL     1       2.446  -4.300  -0.045  0.00  0.00    +0.166 C 
ENDROOT
BRANCH   1   2
ATOM      2  C   UNL     1       2.211  -4.722  -1.497  0.00  0.00    -0.002 C 
ATOM      3  C   UNL     1       3.391  -4.267  -2.358  0.00  0.00    +0.012 C 
ATOM      4  C   UNL     1       3.156  -4.689  -3.810  0.00  0.00    -0.010 C 
ATOM      5  C   UNL     1       3.027  -6.211  -3.884  0.00  0.00    +0.007 C 
ATOM      6  C   UNL     1       1.847  -6.667  -3.023  0.00  0.00    -0.010 C 
ATOM      7  C   UNL     1       2.083  -6.245  -1.571  0.00  0.00    +0.012 C 
ATOM      8  C   UNL     1       0.560  -6.021  -3.539  0.00  0.00    +0.007 C 
ATOM      9  C   UNL     1       0.688  -4.498  -3.465  0.00  0.00    -0.010 C 
ATOM     10  C   UNL     1       1.868  -4.043  -4.326  0.00  0.00    +0.007 C 
ATOM     11  C   UNL     1       0.924  -4.076  -2.014  0.00  0.00    +0.012 C 
ENDBRANCH   1   2
BRANCH   1  12
ATOM     12  C   UNL     1       3.699  -4.958   0.472  0.00  0.00    +0.240 C 
ATOM     13  O   UNL     1       4.767  -4.391   0.375  0.00  0.00    -0.273 OA
ATOM     14  N   UNL     1       3.634  -6.178   1.043  0.00  0.00    -0.263 N 
ATOM     15  C   UNL     1       4.771  -6.744   1.606  0.00  0.00    +0.164 A 
ATOM     16  N   UNL     1       5.994  -6.253   1.675  0.00  0.00    -0.233 NA
ATOM     17  C   UNL     1       6.968  -6.926   2.255  0.00  0.00    +0.120 A 
ATOM     18  C   UNL     1       6.691  -8.148   2.772  0.00  0.00    +0.068 A 
ATOM     19  S   UNL     1       4.950  -8.282   2.393  0.00  0.00    -0.061 S 
ATOM     20  H   UNL     1       2.792  -6.660   1.060  0.00  0.00    +0.157 HD
ENDBRANCH   1  12
BRANCH   1  23
ATOM     21  C   UNL     1       1.505  -2.058   0.106  0.00  0.00    +0.245 C 
ATOM     22  O   UNL     1       0.396  -2.557   0.126  0.00  0.00    -0.270 OA
ATOM     23  N   UNL     1       2.596  -2.844   0.022  0.00  0.00    -0.299 N 
ATOM     24  H   UNL     1       3.481  -2.446   0.006  0.00  0.00    +0.150 HD
BRANCH  21  30
ATOM     25  C   UNL     1       0.527   0.228   0.262  0.00  0.00    +0.014 A 
ATOM     26  C   UNL     1       0.674   1.597   0.325  0.00  0.00    +0.021 A 
ATOM     27  C   UNL     1       1.939   2.163   0.303  0.00  0.00    +0.041 A 
ATOM     28  C   UNL     1       3.062   1.357   0.216  0.00  0.00    +0.021 A 
ATOM     29  C   UNL     1       2.927  -0.014   0.152  0.00  0.00    +0.014 A 
ATOM     30  C   UNL     1       1.656  -0.589   0.174  0.00  0.00    +0.037 A 
ATOM     31 CL   UNL     1       2.116   3.888   0.383  0.00  0.00    -0.084 Cl
ENDBRANCH  21  30
ENDBRANCH   1  23
TORSDOF 4
