REMARK  Name = ZINC37246097
REMARK  11 active torsions:
REMARK  status: ('A' for Active; 'I' for Inactive)
REMARK    1  A    between atoms: C_4  and  C_7
REMARK    2  A    between atoms: N_9  and  C_10
REMARK    3  A    between atoms: C_10  and  C_11
REMARK    4  A    between atoms: C_11  and  C_12
REMARK    5  A    between atoms: C_12  and  N_13
REMARK    6  A    between atoms: C_17  and  N_20
REMARK    7  A    between atoms: N_20  and  C_21
REMARK    8  A    between atoms: C_21  and  C_22
REMARK    9  A    between atoms: C_22  and  C_23
REMARK   10  A    between atoms: C_23  and  N_24
REMARK   11  A    between atoms: C_25  and  C_27
REMARK                            x       y       z     vdW  Elec       q    Type
REMARK                         _______ _______ _______ _____ _____    ______ ____
ROOT
ATOM      1  N   UNL     1       5.835  -6.441  -0.089  0.00  0.00    -0.383 N 
ATOM      2  C   UNL     1       6.183  -7.150  -1.109  0.00  0.00    +0.084 C 
ATOM      3  C   UNL     1       6.105  -8.610  -1.499  0.00  0.00    +0.199 C 
ATOM      4  O   UNL     1       4.886  -9.246  -1.111  0.00  0.00    -0.226 OA
ATOM      5  C   UNL     1       6.107  -8.108  -2.951  0.00  0.00    +0.041 C 
ATOM      6  C   UNL     1       6.829  -6.893  -2.419  0.00  0.00    +0.167 C 
ATOM      7  O   UNL     1       7.595  -6.073  -2.866  0.00  0.00    -0.292 OA
ATOM      8  H   UNL     1       5.412  -6.864   0.674  0.00  0.00    +0.160 HD
ENDROOT
BRANCH   5   9
ATOM      9  N   UNL     1       4.768  -7.813  -3.478  0.00  0.00    +0.388 N 
ATOM     10  H   UNL     1       4.179  -8.626  -3.374  0.00  0.00    -0.085 HD
ATOM     11  H   UNL     1       4.368  -7.041  -2.966  0.00  0.00    -0.085 HD
BRANCH   9  12
ATOM     12  C   UNL     1       4.869  -7.458  -4.900  0.00  0.00    -0.080 C 
BRANCH  12  13
ATOM     13  C   UNL     1       3.474  -7.151  -5.448  0.00  0.00    -0.000 C 
BRANCH  13  14
ATOM     14  C   UNL     1       3.579  -6.781  -6.929  0.00  0.00    +0.102 C 
BRANCH  14  15
ATOM     15  N   UNL     1       2.244  -6.487  -7.455  0.00  0.00    -0.311 N 
ATOM     16  C   UNL     1       2.090  -6.135  -8.747  0.00  0.00    +0.244 C 
ATOM     17  O   UNL     1       3.060  -6.063  -9.476  0.00  0.00    -0.270 OA
ATOM     18  H   UNL     1       1.470  -6.544  -6.873  0.00  0.00    +0.149 HD
BRANCH  16  19
ATOM     19  C   UNL     1       0.743  -5.838  -9.277  0.00  0.00    +0.037 A 
ATOM     20  C   UNL     1      -0.372  -5.914  -8.441  0.00  0.00    +0.013 A 
ATOM     21  C   UNL     1      -1.627  -5.635  -8.942  0.00  0.00    +0.001 A 
ATOM     22  C   UNL     1      -1.782  -5.280 -10.270  0.00  0.00    +0.000 A 
ATOM     23  C   UNL     1      -0.681  -5.203 -11.105  0.00  0.00    +0.001 A 
ATOM     24  C   UNL     1       0.580  -5.474 -10.615  0.00  0.00    +0.013 A 
ENDBRANCH  16  19
ENDBRANCH  14  15
ENDBRANCH  13  14
ENDBRANCH  12  13
ENDBRANCH   9  12
ENDBRANCH   5   9
BRANCH   1  25
ATOM     25  C   UNL     1       6.079  -4.996  -0.084  0.00  0.00    +0.114 C 
BRANCH  25  26
ATOM     26  C   UNL     1       4.742  -4.253  -0.067  0.00  0.00    +0.040 C 
BRANCH  26  27
ATOM     27  C   UNL     1       4.997  -2.744  -0.061  0.00  0.00    +0.106 C 
BRANCH  27  30
ATOM     28  C   UNL     1       3.696  -0.685  -0.037  0.00  0.00    +0.244 C 
ATOM     29  O   UNL     1       4.738  -0.060  -0.044  0.00  0.00    -0.270 OA
ATOM     30  N   UNL     1       3.717  -2.032  -0.045  0.00  0.00    -0.311 N 
ATOM     31  H   UNL     1       2.885  -2.531  -0.039  0.00  0.00    +0.149 HD
BRANCH  28  35
ATOM     32  C   UNL     1      -0.017   1.379   0.010  0.00  0.00    +0.000 A 
ATOM     33  C   UNL     1       1.168   2.094   0.002  0.00  0.00    +0.001 A 
ATOM     34  C   UNL     1       2.377   1.429  -0.013  0.00  0.00    +0.013 A 
ATOM     35  C   UNL     1       2.403   0.034  -0.021  0.00  0.00    +0.037 A 
ATOM     36  C   UNL     1       1.204  -0.681  -0.013  0.00  0.00    +0.013 A 
ATOM     37  C   UNL     1       0.002  -0.004   0.002  0.00  0.00    +0.001 A 
ENDBRANCH  28  35
ENDBRANCH  27  30
ENDBRANCH  26  27
ENDBRANCH  25  26
ENDBRANCH   1  25
TORSDOF 11
