REMARK  Name = ZINC41043251
REMARK  6 active torsions:
REMARK  status: ('A' for Active; 'I' for Inactive)
REMARK    1  A    between atoms: C_1  and  C_2
REMARK    2  A    between atoms: C_2  and  C_3
REMARK    3  A    between atoms: C_3  and  C_4
REMARK    4  A    between atoms: N_6  and  C_7
REMARK    5  A    between atoms: C_7  and  C_13
REMARK    6  A    between atoms: N_14  and  O_15
REMARK                            x       y       z     vdW  Elec       q    Type
REMARK                         _______ _______ _______ _____ _____    ______ ____
ROOT
ATOM      1  C   UNL     1       1.329  -4.141  -2.406  0.00  0.00    +0.093 C 
ATOM      2  C   UNL     1      -0.045  -4.793  -2.577  0.00  0.00    +0.033 C 
ATOM      3  C   UNL     1      -0.739  -4.205  -3.807  0.00  0.00    +0.002 C 
ATOM      4  C   UNL     1       0.111  -4.474  -5.050  0.00  0.00    +0.000 C 
ATOM      5  C   UNL     1       1.485  -3.822  -4.879  0.00  0.00    +0.002 C 
ATOM      6  C   UNL     1       2.179  -4.410  -3.649  0.00  0.00    +0.033 C 
ENDROOT
BRANCH   1   7
ATOM      7  C   UNL     1       2.013  -4.720  -1.194  0.00  0.00    +0.155 C 
ATOM      8  N   UNL     1       3.135  -5.346  -1.324  0.00  0.00    -0.075 NA
ATOM      9  N   UNL     1       1.442  -4.581   0.051  0.00  0.00    -0.342 N 
ATOM     10  H   UNL     1       0.644  -4.039   0.161  0.00  0.00    +0.144 HD
ATOM     11  H   UNL     1       1.837  -5.024   0.818  0.00  0.00    +0.144 HD
BRANCH   8  12
ATOM     12  O   UNL     1       3.778  -5.890  -0.186  0.00  0.00    -0.408 OA
ATOM     13  H   UNL     1       4.611  -6.340  -0.382  0.00  0.00    +0.328 HD
ENDBRANCH   8  12
ENDBRANCH   1   7
BRANCH   1  16
ATOM     14  C   UNL     1       2.244  -1.915  -2.021  0.00  0.00    +0.214 C 
ATOM     15  O   UNL     1       3.339  -2.418  -1.888  0.00  0.00    -0.276 OA
ATOM     16  N   UNL     1       1.165  -2.695  -2.230  0.00  0.00    -0.303 N 
ATOM     17  H   UNL     1       0.280  -2.300  -2.265  0.00  0.00    +0.150 HD
BRANCH  14  18
ATOM     18  C   UNL     1       2.089  -0.418  -1.951  0.00  0.00    +0.095 C 
BRANCH  18  20
ATOM     19  C   UNL     1       3.298   1.746  -1.636  0.00  0.00    +0.004 C 
ATOM     20  C   UNL     1       3.455   0.226  -1.707  0.00  0.00    +0.006 C 
ENDBRANCH  18  20
ENDBRANCH  14  18
ENDBRANCH   1  16
TORSDOF 5
