REMARK  Name = ZINC06059803
REMARK  7 active torsions:
REMARK  status: ('A' for Active; 'I' for Inactive)
REMARK    1  A    between atoms: C_1  and  C_2
REMARK    2  A    between atoms: C_10  and  N_19
REMARK    3  A    between atoms: N_19  and  S_20
REMARK    4  A    between atoms: S_20  and  C_23
REMARK    5  A    between atoms: C_26  and  C_29
REMARK    6  A    between atoms: C_29  and  C_30
REMARK    7  A    between atoms: C_29  and  C_31
REMARK                            x       y       z     vdW  Elec       q    Type
REMARK                         _______ _______ _______ _____ _____    ______ ____
ROOT
ATOM      1  C   UNL     1      -1.135  10.507   2.748  0.00  0.00    +0.008 C 
ATOM      2  C   UNL     1      -0.078   9.478   3.154  0.00  0.00    -0.009 C 
ATOM      3  C   UNL     1       1.006  10.161   3.992  0.00  0.00    +0.011 C 
ATOM      4  C   UNL     1       2.183   9.199   4.191  0.00  0.00    +0.075 C 
ATOM      5  C   UNL     1       1.643   7.877   4.686  0.00  0.00    +0.110 A 
ATOM      6  C   UNL     1       0.349   7.520   4.590  0.00  0.00    +0.002 A 
ATOM      7  C   UNL     1       0.238   6.186   5.176  0.00  0.00    +0.026 A 
ATOM      8  C   UNL     1      -0.826   5.287   5.369  0.00  0.00    +0.037 A 
ATOM      9  C   UNL     1      -0.619   4.082   5.967  0.00  0.00    +0.057 A 
ATOM     10  C   UNL     1       0.680   3.715   6.394  0.00  0.00    +0.008 A 
ATOM     11  C   UNL     1       0.913   2.475   7.008  0.00  0.00    +0.010 A 
ATOM     12  C   UNL     1       2.172   2.146   7.410  0.00  0.00    +0.001 A 
ATOM     13  C   UNL     1       3.237   3.023   7.221  0.00  0.00    +0.001 A 
ATOM     14  C   UNL     1       3.046   4.235   6.628  0.00  0.00    +0.012 A 
ATOM     15  C   UNL     1       1.762   4.607   6.202  0.00  0.00    +0.027 A 
ATOM     16  C   UNL     1       1.532   5.856   5.586  0.00  0.00    +0.143 A 
ATOM     17  O   UNL     1       2.337   6.891   5.273  0.00  0.00    -0.459 OA
ATOM     18  C   UNL     1      -0.736   8.368   3.985  0.00  0.00    +0.042 C 
ENDROOT
BRANCH   9  19
ATOM     19  N   UNL     1      -1.688   3.203   6.154  0.00  0.00    -0.216 N 
ATOM     20  H   UNL     1      -1.727   2.648   6.949  0.00  0.00    +0.174 HD
BRANCH  19  21
ATOM     21  S   UNL     1      -2.890   3.108   5.018  0.00  0.00    +0.072 S 
ATOM     22  O   UNL     1      -3.364   4.432   4.816  0.00  0.00    -0.150 OA
ATOM     23  O   UNL     1      -3.745   2.046   5.420  0.00  0.00    -0.150 OA
BRANCH  21  24
ATOM     24  C   UNL     1      -2.139   2.605   3.506  0.00  0.00    +0.109 A 
ATOM     25  C   UNL     1      -2.027   1.261   3.203  0.00  0.00    +0.029 A 
ATOM     26  C   UNL     1      -1.438   0.867   2.016  0.00  0.00    +0.006 A 
ATOM     27  C   UNL     1      -0.961   1.816   1.132  0.00  0.00    -0.045 A 
ATOM     28  C   UNL     1      -1.068   3.160   1.437  0.00  0.00    +0.006 A 
ATOM     29  C   UNL     1      -1.661   3.555   2.622  0.00  0.00    +0.029 A 
BRANCH  27  30
ATOM     30  C   UNL     1      -0.319   1.386  -0.162  0.00  0.00    +0.013 C 
ATOM     31  C   UNL     1       1.123   1.898  -0.210  0.00  0.00    +0.012 C 
ATOM     32  C   UNL     1      -1.105   1.966  -1.339  0.00  0.00    +0.012 C 
ENDBRANCH  27  30
ENDBRANCH  21  24
ENDBRANCH  19  21
ENDBRANCH   9  19
TORSDOF 4
