REMARK  Name = ZINC64928155
REMARK  5 active torsions:
REMARK  status: ('A' for Active; 'I' for Inactive)
REMARK    1  A    between atoms: N_9  and  S_24
REMARK    2  A    between atoms: C_10  and  C_12
REMARK    3  A    between atoms: C_12  and  C_13
REMARK    4  A    between atoms: N_15  and  C_16
REMARK    5  A    between atoms: S_24  and  C_27
REMARK                            x       y       z     vdW  Elec       q    Type
REMARK                         _______ _______ _______ _____ _____    ______ ____
ROOT
ATOM      1  C   UNL     1      -0.129   0.889   0.770  0.00  0.00    +0.000 A 
ATOM      2  C   UNL     1       0.954   1.681   0.435  0.00  0.00    +0.000 A 
ATOM      3  C   UNL     1       2.148   1.090   0.076  0.00  0.00    +0.005 A 
ATOM      4  C   UNL     1       2.271  -0.292   0.051  0.00  0.00    -0.025 A 
ATOM      5  C   UNL     1       1.197  -1.082   0.392  0.00  0.00    -0.041 A 
ATOM      6  C   UNL     1      -0.007  -0.485   0.747  0.00  0.00    +0.004 A 
ATOM      7  C   UNL     1       1.264  -2.587   0.417  0.00  0.00    +0.052 C 
ATOM      8  C   UNL     1       2.430  -3.094  -0.430  0.00  0.00    +0.115 C 
ATOM      9  N   UNL     1       3.624  -2.310  -0.072  0.00  0.00    -0.168 NA
ATOM     10  C   UNL     1       3.599  -0.873  -0.366  0.00  0.00    +0.119 C 
ENDROOT
BRANCH   9  11
ATOM     11  S   UNL     1       4.942  -3.022   0.633  0.00  0.00    +0.061 S 
ATOM     12  O   UNL     1       5.537  -2.039   1.468  0.00  0.00    -0.153 OA
ATOM     13  O   UNL     1       4.507  -4.281   1.129  0.00  0.00    -0.153 OA
BRANCH  11  14
ATOM     14  C   UNL     1       6.100  -3.361  -0.651  0.00  0.00    +0.106 A 
ATOM     15  C   UNL     1       5.981  -4.515  -1.403  0.00  0.00    +0.031 A 
ATOM     16  C   UNL     1       6.888  -4.781  -2.410  0.00  0.00    +0.040 A 
ATOM     17  C   UNL     1       7.918  -3.892  -2.666  0.00  0.00    +0.124 A 
ATOM     18  C   UNL     1       8.037  -2.736  -1.913  0.00  0.00    +0.040 A 
ATOM     19  C   UNL     1       7.125  -2.470  -0.909  0.00  0.00    +0.031 A 
ATOM     20  F   UNL     1       8.806  -4.152  -3.651  0.00  0.00    -0.205 F 
ENDBRANCH  11  14
ENDBRANCH   9  11
BRANCH  10  21
ATOM     21  C   UNL     1       4.723  -0.177   0.405  0.00  0.00    +0.121 C 
BRANCH  21  22
ATOM     22  C   UNL     1       4.388  -0.157   1.874  0.00  0.00    +0.215 C 
ATOM     23  O   UNL     1       3.401  -0.735   2.278  0.00  0.00    -0.276 OA
ATOM     24  N   UNL     1       5.185   0.502   2.738  0.00  0.00    -0.312 N 
ATOM     25  H   UNL     1       6.009   0.906   2.426  0.00  0.00    +0.149 HD
BRANCH  24  26
ATOM     26  C   UNL     1       4.806   0.607   4.149  0.00  0.00    +0.073 C 
ATOM     27  C   UNL     1       5.341  -0.607   4.912  0.00  0.00    +0.022 C 
ATOM     28  C   UNL     1       5.304  -0.321   6.415  0.00  0.00    +0.002 C 
ATOM     29  C   UNL     1       3.865  -0.435   6.921  0.00  0.00    +0.000 C 
ATOM     30  C   UNL     1       3.077   0.808   6.502  0.00  0.00    +0.000 C 
ATOM     31  C   UNL     1       3.925   2.057   6.751  0.00  0.00    +0.000 C 
ATOM     32  C   UNL     1       4.291   2.700   5.412  0.00  0.00    +0.002 C 
ATOM     33  C   UNL     1       5.400   1.885   4.743  0.00  0.00    +0.022 C 
ENDBRANCH  24  26
ENDBRANCH  21  22
ENDBRANCH  10  21
TORSDOF 5
