REMARK  Name = ZINC31057716
REMARK  9 active torsions:
REMARK  status: ('A' for Active; 'I' for Inactive)
REMARK    1  A    between atoms: C_1  and  C_2
REMARK    2  A    between atoms: N_5  and  C_8
REMARK    3  A    between atoms: C_11  and  C_14
REMARK    4  A    between atoms: C_14  and  C_16
REMARK    5  A    between atoms: C_14  and  N_17
REMARK    6  A    between atoms: C_18  and  C_20
REMARK    7  A    between atoms: N_25  and  C_27
REMARK    8  A    between atoms: C_27  and  C_28
REMARK    9  A    between atoms: C_30  and  C_33
REMARK                            x       y       z     vdW  Elec       q    Type
REMARK                         _______ _______ _______ _____ _____    ______ ____
ROOT
ATOM      1  N   UNL     1      -4.646   9.708  -4.019  0.00  0.00    -0.309 N 
ATOM      2  C   UNL     1      -4.497   9.054  -2.850  0.00  0.00    +0.215 C 
ATOM      3  O   UNL     1      -4.954   9.525  -1.830  0.00  0.00    -0.276 OA
ATOM      4  H   UNL     1      -4.231   9.280  -4.944  0.00  0.00    +0.149 HD
ENDROOT
BRANCH   2   5
ATOM      5  C   UNL     1      -3.763   7.739  -2.810  0.00  0.00    +0.058 C 
ATOM      6  C   UNL     1      -4.481   6.726  -3.706  0.00  0.00    +0.009 C 
ATOM      7  C   UNL     1      -3.764   5.376  -3.613  0.00  0.00    -0.018 C 
ATOM      8  C   UNL     1      -3.737   4.918  -2.153  0.00  0.00    -0.078 C 
ATOM      9  N   UNL     1      -3.039   5.920  -1.337  0.00  0.00    +0.386 N 
ATOM     10  C   UNL     1      -3.736   7.212  -1.373  0.00  0.00    -0.065 C 
ATOM     11  H   UNL     1      -2.039   6.067  -1.769  0.00  0.00    -0.081 HD
BRANCH   9  12
ATOM     12  C   UNL     1      -2.873   5.451   0.045  0.00  0.00    +0.022 C 
BRANCH  12  13
ATOM     13  C   UNL     1      -2.382   4.026   0.036  0.00  0.00    +0.211 A 
ATOM     14  N   UNL     1      -1.133   3.634   0.033  0.00  0.00    -0.192 NA
ATOM     15  C   UNL     1      -1.176   2.281   0.020  0.00  0.00    +0.209 A 
ATOM     16  N   UNL     1      -2.440   1.936   0.025  0.00  0.00    -0.056 NA
ATOM     17  O   UNL     1      -3.141   2.925   0.034  0.00  0.00    -0.340 OA
BRANCH  15  18
ATOM     18  C   UNL     1      -0.017   1.366   0.010  0.00  0.00    +0.060 A 
ATOM     19  C   UNL     1       0.002  -0.004   0.002  0.00  0.00    +0.019 A 
ATOM     20  C   UNL     1       1.218  -0.649  -0.013  0.00  0.00    +0.008 A 
ATOM     21  C   UNL     1       2.359   0.088  -0.020  0.00  0.00    +0.046 A 
ATOM     22  S   UNL     1       1.725   1.757  -0.005  0.00  0.00    -0.093 S 
ENDBRANCH  15  18
ENDBRANCH  12  13
ENDBRANCH   9  12
ENDBRANCH   2   5
BRANCH   1  23
ATOM     23  C   UNL     1      -5.359  10.987  -4.059  0.00  0.00    +0.100 C 
ATOM     24  C   UNL     1      -6.862  10.729  -4.180  0.00  0.00    +0.033 C 
BRANCH  23  28
ATOM     25  C   UNL     1      -4.027  13.259  -7.425  0.00  0.00    +0.030 A 
ATOM     26  C   UNL     1      -4.269  13.889  -6.211  0.00  0.00    +0.023 A 
ATOM     27  C   UNL     1      -4.699  13.152  -5.125  0.00  0.00    +0.007 A 
ATOM     28  C   UNL     1      -4.889  11.788  -5.245  0.00  0.00    -0.027 A 
ATOM     29  C   UNL     1      -4.644  11.156  -6.451  0.00  0.00    +0.007 A 
ATOM     30  C   UNL     1      -4.219  11.888  -7.542  0.00  0.00    +0.023 A 
BRANCH  25  35
ATOM     31  C   UNL     1      -1.484  15.715 -11.825  0.00  0.00    +0.007 C 
ATOM     32  C   UNL     1      -1.790  14.804 -10.634  0.00  0.00    -0.011 C 
ATOM     33  C   UNL     1      -3.064  14.003 -10.916  0.00  0.00    +0.022 C 
ATOM     34  C   UNL     1      -3.399  13.140  -9.698  0.00  0.00    +0.105 C 
ATOM     35  N   UNL     1      -3.591  14.001  -8.524  0.00  0.00    -0.330 N 
ATOM     36  C   UNL     1      -2.366  14.745  -8.205  0.00  0.00    +0.105 C 
ATOM     37  C   UNL     1      -2.001  15.656  -9.379  0.00  0.00    +0.022 C 
ENDBRANCH  25  35
ENDBRANCH  23  28
ENDBRANCH   1  23
TORSDOF 7
