REMARK  Name = ZINC12803813
REMARK  11 active torsions:
REMARK  status: ('A' for Active; 'I' for Inactive)
REMARK    1  A    between atoms: C_1  and  C_2
REMARK    2  A    between atoms: C_4  and  C_34
REMARK    3  A    between atoms: C_5  and  C_9
REMARK    4  A    between atoms: C_7  and  C_8
REMARK    5  A    between atoms: C_15  and  C_17
REMARK    6  A    between atoms: C_17  and  N_18
REMARK    7  A    between atoms: N_18  and  C_19
REMARK    8  A    between atoms: N_18  and  C_20
REMARK    9  A    between atoms: C_20  and  C_21
REMARK   10  A    between atoms: N_23  and  C_24
REMARK   11  A    between atoms: C_29  and  C_30
REMARK                            x       y       z     vdW  Elec       q    Type
REMARK                         _______ _______ _______ _____ _____    ______ ____
ROOT
ATOM      1  C   UNL     1       0.152  -9.126  -3.605  0.00  0.00    +0.019 C 
ENDROOT
BRANCH   1   8
ATOM      2  C   UNL     1       0.111  -4.058  -0.284  0.00  0.00    +0.080 A 
ATOM      3  C   UNL     1       0.022  -4.764   0.883  0.00  0.00    +0.076 A 
ATOM      4  S   UNL     1       0.009  -6.439   0.256  0.00  0.00    -0.060 S 
ATOM      5  C   UNL     1       0.122  -6.029  -1.480  0.00  0.00    +0.165 A 
ATOM      6  N   UNL     1       0.153  -4.710  -1.437  0.00  0.00    -0.225 NA
ATOM      7  N   UNL     1       0.161  -6.874  -2.582  0.00  0.00    -0.266 N 
ATOM      8  C   UNL     1       0.110  -8.210  -2.409  0.00  0.00    +0.202 C 
ATOM      9  O   UNL     1       0.031  -8.674  -1.292  0.00  0.00    -0.277 OA
ATOM     10  H   UNL     1       0.224  -6.502  -3.476  0.00  0.00    +0.157 HD
BRANCH   2  15
ATOM     11  C   UNL     1       0.277   1.698  -0.193  0.00  0.00    +0.044 C 
ATOM     12  C   UNL     1       0.234   0.191  -0.217  0.00  0.00    -0.047 A 
ATOM     13  C   UNL     1      -0.655  -0.459  -1.054  0.00  0.00    +0.007 A 
ATOM     14  C   UNL     1      -0.699  -1.838  -1.081  0.00  0.00    -0.041 A 
ATOM     15  C   UNL     1       0.154  -2.576  -0.261  0.00  0.00    +0.004 A 
ATOM     16  C   UNL     1       1.047  -1.915   0.581  0.00  0.00    +0.014 A 
ATOM     17  C   UNL     1       1.087  -0.535   0.594  0.00  0.00    -0.047 A 
ATOM     18  C   UNL     1       2.056   0.180   1.499  0.00  0.00    +0.044 C 
ATOM     19  C   UNL     1      -1.668  -2.545  -1.993  0.00  0.00    +0.044 C 
ENDBRANCH   2  15
ENDBRANCH   1   8
BRANCH   1  20
ATOM     20  N   UNL     1       0.084 -10.522  -3.154  0.00  0.00    +0.389 N 
ATOM     21  C   UNL     1      -1.219 -10.769  -2.521  0.00  0.00    -0.095 C 
ATOM     22  H   UNL     1       0.820 -10.697  -2.487  0.00  0.00    -0.081 HD
BRANCH  20  23
ATOM     23  C   UNL     1       0.245 -11.418  -4.308  0.00  0.00    +0.019 C 
BRANCH  23  24
ATOM     24  C   UNL     1       0.297 -12.847  -3.831  0.00  0.00    +0.201 C 
ATOM     25  O   UNL     1       0.209 -13.094  -2.647  0.00  0.00    -0.278 OA
ATOM     26  N   UNL     1       0.443 -13.849  -4.720  0.00  0.00    -0.287 N 
ATOM     27  H   UNL     1       0.576 -13.648  -5.660  0.00  0.00    +0.155 HD
BRANCH  26  28
ATOM     28  C   UNL     1       0.401 -15.179  -4.288  0.00  0.00    +0.045 A 
ATOM     29  C   UNL     1       0.916 -15.523  -3.045  0.00  0.00    +0.024 A 
ATOM     30  C   UNL     1       0.873 -16.837  -2.622  0.00  0.00    +0.002 A 
ATOM     31  C   UNL     1       0.319 -17.809  -3.434  0.00  0.00    +0.001 A 
ATOM     32  C   UNL     1      -0.194 -17.470  -4.673  0.00  0.00    +0.014 A 
ATOM     33  C   UNL     1      -0.161 -16.156  -5.099  0.00  0.00    +0.076 A 
BRANCH  33  34
ATOM     34  C   UNL     1      -0.727 -15.786  -6.446  0.00  0.00    +0.419 C 
ATOM     35  F   UNL     1      -1.232 -16.931  -7.071  0.00  0.00    -0.166 F 
ATOM     36  F   UNL     1      -1.756 -14.854  -6.278  0.00  0.00    -0.166 F 
ATOM     37  F   UNL     1       0.282 -15.229  -7.238  0.00  0.00    -0.166 F 
ENDBRANCH  33  34
ENDBRANCH  26  28
ENDBRANCH  23  24
ENDBRANCH  20  23
ENDBRANCH   1  20
TORSDOF 7
