REMARK  Name = ZINC25015943
REMARK  9 active torsions:
REMARK  status: ('A' for Active; 'I' for Inactive)
REMARK    1  A    between atoms: C_1  and  C_2
REMARK    2  A    between atoms: C_4  and  C_11
REMARK    3  A    between atoms: C_5  and  C_10
REMARK    4  A    between atoms: C_6  and  C_9
REMARK    5  A    between atoms: C_7  and  C_8
REMARK    6  A    between atoms: C_11  and  C_13
REMARK    7  A    between atoms: C_13  and  N_14
REMARK    8  A    between atoms: C_17  and  C_21
REMARK    9  A    between atoms: C_17  and  C_22
REMARK                            x       y       z     vdW  Elec       q    Type
REMARK                         _______ _______ _______ _____ _____    ______ ____
ROOT
ATOM      1  N   UNL     1       0.961  -3.420  -4.649  0.00  0.00    -0.216 N 
ATOM      2  C   UNL     1       2.196  -3.831  -4.996  0.00  0.00    +0.251 C 
ATOM      3  O   UNL     1       3.253  -3.428  -4.558  0.00  0.00    -0.272 OA
ATOM      4  C   UNL     1       1.991  -4.903  -6.048  0.00  0.00    +0.135 C 
ATOM      5  N   UNL     1       0.526  -4.978  -6.184  0.00  0.00    -0.281 N 
ATOM      6  C   UNL     1       0.013  -4.080  -5.325  0.00  0.00    +0.310 C 
ATOM      7  O   UNL     1      -1.178  -3.886  -5.180  0.00  0.00    -0.252 OA
ATOM      8  C   UNL     1       2.557  -6.242  -5.570  0.00  0.00    +0.047 C 
ATOM      9  H   UNL     1       0.029  -5.564  -6.776  0.00  0.00    +0.152 HD
ENDROOT
BRANCH   4  10
ATOM     10  C   UNL     1       2.624  -4.494  -7.353  0.00  0.00    -0.012 A 
ATOM     11  C   UNL     1       3.744  -3.683  -7.351  0.00  0.00    +0.010 A 
ATOM     12  C   UNL     1       4.331  -3.304  -8.545  0.00  0.00    +0.050 A 
ATOM     13  C   UNL     1       3.793  -3.740  -9.743  0.00  0.00    +0.162 A 
ATOM     14  C   UNL     1       2.669  -4.554  -9.745  0.00  0.00    +0.162 A 
ATOM     15  C   UNL     1       2.087  -4.936  -8.549  0.00  0.00    +0.055 A 
ATOM     16  O   UNL     1       2.147  -4.979 -10.932  0.00  0.00    -0.488 OA
ATOM     17  C   UNL     1       1.547  -3.971 -11.748  0.00  0.00    +0.232 C 
ATOM     18  C   UNL     1       2.597  -3.265 -12.591  0.00  0.00    +0.082 C 
ATOM     19  C   UNL     1       3.594  -2.489 -11.745  0.00  0.00    +0.232 C 
ATOM     20  O   UNL     1       4.363  -3.374 -10.928  0.00  0.00    -0.488 OA
ENDBRANCH   4  10
BRANCH   1  21
ATOM     21  C   UNL     1       0.689  -2.383  -3.651  0.00  0.00    +0.197 C 
BRANCH  21  22
ATOM     22  C   UNL     1       0.559  -3.017  -2.290  0.00  0.00    +0.181 C 
ATOM     23  O   UNL     1       0.681  -4.217  -2.166  0.00  0.00    -0.290 OA
BRANCH  22  27
ATOM     24  C   UNL     1      -0.017   1.492  -0.241  0.00  0.00    +0.044 C 
ATOM     25  C   UNL     1       0.004  -0.010  -0.118  0.00  0.00    -0.047 A 
ATOM     26  C   UNL     1       0.263  -0.787  -1.228  0.00  0.00    +0.015 A 
ATOM     27  C   UNL     1       0.283  -2.180  -1.111  0.00  0.00    +0.022 A 
ATOM     28  C   UNL     1       0.039  -2.775   0.131  0.00  0.00    -0.037 A 
ATOM     29  C   UNL     1      -0.219  -1.984   1.231  0.00  0.00    -0.044 A 
ATOM     30  C   UNL     1      -0.232  -0.605   1.108  0.00  0.00    -0.044 A 
ATOM     31  C   UNL     1      -0.509   0.252   2.317  0.00  0.00    +0.044 C 
ATOM     32  C   UNL     1      -0.483  -2.622   2.570  0.00  0.00    +0.044 C 
ATOM     33  C   UNL     1       0.057  -4.275   0.268  0.00  0.00    +0.045 C 
ENDBRANCH  22  27
ENDBRANCH  21  22
ENDBRANCH   1  21
TORSDOF 4
