REMARK  Name = ZINC58405433
REMARK  7 active torsions:
REMARK  status: ('A' for Active; 'I' for Inactive)
REMARK    1  A    between atoms: C_1  and  C_2
REMARK    2  A    between atoms: C_2  and  O_3
REMARK    3  A    between atoms: O_3  and  C_4
REMARK    4  A    between atoms: C_4  and  C_6
REMARK    5  A    between atoms: C_7  and  C_31
REMARK    6  A    between atoms: C_11  and  C_15
REMARK    7  A    between atoms: C_26  and  C_28
REMARK                            x       y       z     vdW  Elec       q    Type
REMARK                         _______ _______ _______ _____ _____    ______ ____
ROOT
ATOM      1  C   UNL     1      -5.184  -4.054  -3.709  0.00  0.00    +0.102 A 
ATOM      2  C   UNL     1      -4.868  -4.855  -2.653  0.00  0.00    -0.017 A 
ATOM      3  C   UNL     1      -5.382  -4.568  -1.383  0.00  0.00    +0.051 A 
ATOM      4  C   UNL     1      -5.186  -5.262  -0.151  0.00  0.00    +0.134 A 
ATOM      5  N   UNL     1      -5.774  -4.811   0.944  0.00  0.00    -0.217 NA
ATOM      6  C   UNL     1      -6.542  -3.736   0.941  0.00  0.00    +0.129 A 
ATOM      7  N   UNL     1      -6.763  -3.050  -0.164  0.00  0.00    -0.225 NA
ATOM      8  C   UNL     1      -6.217  -3.426  -1.303  0.00  0.00    +0.115 A 
ATOM      9  S   UNL     1      -6.238  -2.818  -2.970  0.00  0.00    -0.062 S 
ATOM     10  C   UNL     1      -7.180  -3.282   2.229  0.00  0.00    +0.088 C 
ATOM     11  N   UNL     1      -4.392  -6.390  -0.103  0.00  0.00    -0.300 N 
ATOM     12  C   UNL     1      -4.860  -7.777  -0.169  0.00  0.00    +0.079 C 
ATOM     13  C   UNL     1      -6.238  -7.964   0.425  0.00  0.00    +0.023 C 
ATOM     14  C   UNL     1      -6.229  -7.712   1.933  0.00  0.00    +0.002 C 
ATOM     15  C   UNL     1      -5.247  -8.693   2.582  0.00  0.00    +0.000 C 
ATOM     16  C   UNL     1      -3.845  -8.401   2.055  0.00  0.00    +0.005 C 
ATOM     17  C   UNL     1      -3.789  -8.612   0.555  0.00  0.00    +0.012 C 
ATOM     18  C   UNL     1      -2.492  -7.894   0.069  0.00  0.00    +0.037 C 
ATOM     19  C   UNL     1      -2.923  -6.412   0.016  0.00  0.00    +0.161 C 
ATOM     20  C   UNL     1      -3.968  -6.048  -2.852  0.00  0.00    +0.046 C 
ENDROOT
BRANCH  19  21
ATOM     21  C   UNL     1      -2.501  -5.712   1.282  0.00  0.00    +0.231 C 
ATOM     22  O   UNL     1      -3.338  -5.333   2.074  0.00  0.00    -0.274 OA
ATOM     23  N   UNL     1      -1.193  -5.507   1.535  0.00  0.00    -0.328 N 
ATOM     24  H   UNL     1      -0.523  -5.810   0.902  0.00  0.00    +0.145 HD
ATOM     25  H   UNL     1      -0.921  -5.056   2.350  0.00  0.00    +0.145 HD
ENDBRANCH  19  21
BRANCH   1  26
ATOM     26  C   UNL     1      -4.758  -4.175  -5.107  0.00  0.00    +0.346 C 
ATOM     27  O   UNL     1      -4.029  -5.088  -5.444  0.00  0.00    -0.244 OA
BRANCH  26  28
ATOM     28  O   UNL     1      -5.173  -3.272  -6.019  0.00  0.00    -0.461 OA
BRANCH  28  30
ATOM     29  C   UNL     1      -5.290  -2.338  -8.245  0.00  0.00    +0.048 C 
ATOM     30  C   UNL     1      -4.720  -3.450  -7.362  0.00  0.00    +0.229 C 
ENDBRANCH  28  30
ENDBRANCH  26  28
ENDBRANCH   1  26
TORSDOF 4
