REMARK  Name = ZINC22259650
REMARK  7 active torsions:
REMARK  status: ('A' for Active; 'I' for Inactive)
REMARK    1  A    between atoms: C_4  and  N_24
REMARK    2  A    between atoms: C_5  and  C_7
REMARK    3  A    between atoms: N_9  and  N_10
REMARK    4  A    between atoms: C_11  and  C_13
REMARK    5  A    between atoms: C_13  and  C_14
REMARK    6  A    between atoms: N_24  and  S_25
REMARK    7  A    between atoms: S_25  and  C_28
REMARK                            x       y       z     vdW  Elec       q    Type
REMARK                         _______ _______ _______ _____ _____    ______ ____
ROOT
ATOM      1  C   UNL     1       1.272   7.285   3.031  0.00  0.00    +0.262 C 
ATOM      2  O   UNL     1       1.097   8.138   2.182  0.00  0.00    -0.269 OA
ATOM      3  N   UNL     1       1.392   5.991   2.671  0.00  0.00    -0.230 N 
ATOM      4  H   UNL     1       1.550   5.220   3.439  0.00  0.00    +0.173 HD
ENDROOT
BRANCH   1   9
ATOM      5  C   UNL     1       1.626   7.050   6.759  0.00  0.00    +0.001 A 
ATOM      6  C   UNL     1       1.502   8.380   7.130  0.00  0.00    +0.002 A 
ATOM      7  C   UNL     1       1.304   9.356   6.176  0.00  0.00    +0.027 A 
ATOM      8  C   UNL     1       1.233   9.011   4.831  0.00  0.00    +0.086 A 
ATOM      9  C   UNL     1       1.352   7.665   4.453  0.00  0.00    +0.063 A 
ATOM     10  C   UNL     1       1.552   6.688   5.432  0.00  0.00    +0.015 A 
BRANCH   8  11
ATOM     11  N   UNL     1       1.039   9.993   3.868  0.00  0.00    -0.097 NA
BRANCH  11  12
ATOM     12  S   UNL     1       1.727  11.487   4.059  0.00  0.00    +0.098 S 
ATOM     13  O   UNL     1       1.464  12.210   2.864  0.00  0.00    -0.148 OA
ATOM     14  O   UNL     1       1.326  11.958   5.338  0.00  0.00    -0.148 OA
BRANCH  12  15
ATOM     15  C   UNL     1       3.471  11.252   4.133  0.00  0.00    +0.148 A 
ATOM     16  C   UNL     1       4.375  11.245   3.123  0.00  0.00    +0.037 A 
ATOM     17  C   UNL     1       5.710  11.040   3.419  0.00  0.00    +0.010 A 
ATOM     18  C   UNL     1       6.075  10.852   4.710  0.00  0.00    +0.047 A 
ATOM     19  S   UNL     1       4.508  10.970   5.558  0.00  0.00    -0.077 S 
ENDBRANCH  12  15
ENDBRANCH  11  12
ENDBRANCH   8  11
ENDBRANCH   1   9
BRANCH   3  20
ATOM     20  N   UNL     1       1.316   5.630   1.320  0.00  0.00    -0.234 N 
ATOM     21  C   UNL     1       1.436   4.336   0.961  0.00  0.00    +0.233 C 
ATOM     22  O   UNL     1       1.610   3.485   1.807  0.00  0.00    -0.274 OA
ATOM     23  H   UNL     1       1.158   6.401   0.552  0.00  0.00    +0.173 HD
BRANCH  21  24
ATOM     24  C   UNL     1       1.355   3.947  -0.493  0.00  0.00    +0.132 C 
BRANCH  24  25
ATOM     25  C   UNL     1       1.518   2.455  -0.624  0.00  0.00    -0.038 A 
ATOM     26  C   UNL     1       2.777   1.907  -0.788  0.00  0.00    +0.004 A 
ATOM     27  C   UNL     1       2.918   0.540  -0.910  0.00  0.00    +0.004 A 
ATOM     28  C   UNL     1       1.806  -0.291  -0.869  0.00  0.00    -0.044 A 
ATOM     29  C   UNL     1       0.553   0.255  -0.702  0.00  0.00    -0.044 A 
ATOM     30  C   UNL     1       0.413   1.631  -0.580  0.00  0.00    +0.008 A 
ATOM     31  C   UNL     1      -0.695  -0.586  -0.640  0.00  0.00    +0.035 C 
ATOM     32  C   UNL     1      -0.434  -1.979  -1.208  0.00  0.00    +0.005 C 
ATOM     33  C   UNL     1       0.814  -2.553  -0.527  0.00  0.00    +0.005 C 
ATOM     34  C   UNL     1       2.032  -1.773  -1.017  0.00  0.00    +0.035 C 
ENDBRANCH  24  25
ENDBRANCH  21  24
ENDBRANCH   3  20
TORSDOF 7
