REMARK  Name = ZINC66133002
REMARK  8 active torsions:
REMARK  status: ('A' for Active; 'I' for Inactive)
REMARK    1  A    between atoms: C_4  and  O_7
REMARK    2  A    between atoms: O_7  and  C_8
REMARK    3  A    between atoms: C_8  and  C_9
REMARK    4  A    between atoms: C_9  and  O_10
REMARK    5  A    between atoms: O_10  and  C_11
REMARK    6  A    between atoms: C_16  and  C_17
REMARK    7  A    between atoms: N_28  and  C_29
REMARK    8  A    between atoms: C_29  and  C_30
REMARK                            x       y       z     vdW  Elec       q    Type
REMARK                         _______ _______ _______ _____ _____    ______ ____
ROOT
ATOM      1  C   UNL     1       6.952  -1.602   3.552  0.00  0.00    +0.196 C 
ATOM      2  N   UNL     1       5.526  -1.944   3.620  0.00  0.00    -0.321 N 
ATOM      3  C   UNL     1       5.160  -3.152   4.202  0.00  0.00    +0.041 A 
ATOM      4  C   UNL     1       4.024  -3.840   3.812  0.00  0.00    +0.024 A 
ATOM      5  C   UNL     1       3.708  -5.039   4.421  0.00  0.00    +0.002 A 
ATOM      6  C   UNL     1       4.519  -5.559   5.418  0.00  0.00    +0.001 A 
ATOM      7  C   UNL     1       5.654  -4.885   5.820  0.00  0.00    +0.015 A 
ATOM      8  C   UNL     1       5.984  -3.675   5.216  0.00  0.00    +0.058 A 
ATOM      9  C   UNL     1       7.180  -2.909   5.612  0.00  0.00    +0.250 C 
ATOM     10  O   UNL     1       7.776  -3.186   6.635  0.00  0.00    -0.270 OA
ATOM     11  N   UNL     1       7.604  -1.902   4.827  0.00  0.00    -0.272 N 
ATOM     12  H   UNL     1       4.854  -1.341   3.266  0.00  0.00    +0.148 HD
ENDROOT
BRANCH   1  18
ATOM     13  C   UNL     1       6.901  -2.704   1.301  0.00  0.00    +0.127 A 
ATOM     14  C   UNL     1       7.507  -3.438   0.291  0.00  0.00    +0.046 A 
ATOM     15  C   UNL     1       8.810  -3.871   0.442  0.00  0.00    +0.004 A 
ATOM     16  C   UNL     1       9.510  -3.574   1.597  0.00  0.00    +0.001 A 
ATOM     17  C   UNL     1       8.907  -2.844   2.604  0.00  0.00    +0.011 A 
ATOM     18  C   UNL     1       7.606  -2.403   2.456  0.00  0.00    +0.032 A 
BRANCH  13  19
ATOM     19  O   UNL     1       5.619  -2.277   1.155  0.00  0.00    -0.488 OA
BRANCH  19  20
ATOM     20  C   UNL     1       4.954  -2.624  -0.061  0.00  0.00    +0.270 C 
BRANCH  20  21
ATOM     21  C   UNL     1       3.531  -2.060  -0.044  0.00  0.00    +0.270 C 
BRANCH  21  22
ATOM     22  O   UNL     1       3.586  -0.632  -0.037  0.00  0.00    -0.489 OA
BRANCH  22  26
ATOM     23  C   UNL     1      -0.017   1.378   0.010  0.00  0.00    +0.000 A 
ATOM     24  C   UNL     1       1.170   2.088   0.002  0.00  0.00    +0.004 A 
ATOM     25  C   UNL     1       2.377   1.417  -0.013  0.00  0.00    +0.045 A 
ATOM     26  C   UNL     1       2.399   0.030  -0.021  0.00  0.00    +0.121 A 
ATOM     27  C   UNL     1       1.207  -0.680  -0.013  0.00  0.00    +0.045 A 
ATOM     28  C   UNL     1       0.002  -0.004   0.002  0.00  0.00    +0.004 A 
ENDBRANCH  22  26
ENDBRANCH  21  22
ENDBRANCH  20  21
ENDBRANCH  19  20
ENDBRANCH  13  19
ENDBRANCH   1  18
BRANCH  11  29
ATOM     29  C   UNL     1       8.743  -1.090   5.260  0.00  0.00    +0.141 C 
BRANCH  29  30
ATOM     30  C   UNL     1       8.240   0.097   6.084  0.00  0.00    +0.136 C 
ATOM     31  C   UNL     1       9.421   1.024   6.443  0.00  0.00    +0.035 C 
ATOM     32  C   UNL     1       9.082   1.440   7.901  0.00  0.00    +0.031 C 
ATOM     33  C   UNL     1       8.410   0.147   8.427  0.00  0.00    +0.160 C 
ATOM     34  O   UNL     1       7.666  -0.371   7.310  0.00  0.00    -0.375 OA
ENDBRANCH  29  30
ENDBRANCH  11  29
TORSDOF 8
