REMARK  Name = ZINC39197738
REMARK  11 active torsions:
REMARK  status: ('A' for Active; 'I' for Inactive)
REMARK    1  A    between atoms: C_1  and  C_2
REMARK    2  A    between atoms: C_5  and  S_8
REMARK    3  A    between atoms: S_8  and  N_11
REMARK    4  A    between atoms: N_11  and  C_12
REMARK    5  A    between atoms: C_12  and  C_14
REMARK    6  A    between atoms: C_12  and  C_21
REMARK    7  A    between atoms: C_14  and  C_15
REMARK    8  A    between atoms: N_23  and  C_24
REMARK    9  A    between atoms: C_24  and  C_25
REMARK   10  A    between atoms: C_25  and  C_27
REMARK   11  A    between atoms: C_25  and  N_33
REMARK                            x       y       z     vdW  Elec       q    Type
REMARK                         _______ _______ _______ _____ _____    ______ ____
ROOT
ATOM      1  C   UNL     1       2.494  -4.695   1.184  0.00  0.00    +0.166 C 
ENDROOT
BRANCH   1   2
ATOM      2  C   UNL     1       3.854  -4.299   0.672  0.00  0.00    +0.232 C 
ATOM      3  O   UNL     1       4.045  -4.188  -0.520  0.00  0.00    -0.274 OA
ATOM      4  N   UNL     1       4.859  -4.068   1.540  0.00  0.00    -0.315 N 
ATOM      5  H   UNL     1       4.707  -4.157   2.494  0.00  0.00    +0.149 HD
BRANCH   4   6
ATOM      6  C   UNL     1       6.183  -3.682   1.043  0.00  0.00    +0.093 C 
BRANCH   6   7
ATOM      7  C   UNL     1       7.103  -3.378   2.226  0.00  0.00    -0.019 C 
BRANCH   7   8
ATOM      8  C   UNL     1       7.340  -4.639   3.016  0.00  0.00    -0.041 A 
ATOM      9  C   UNL     1       6.628  -4.882   4.181  0.00  0.00    +0.005 A 
ATOM     10  C   UNL     1       6.879  -6.056   4.875  0.00  0.00    +0.020 A 
ATOM     11  C   UNL     1       7.823  -6.939   4.386  0.00  0.00    +0.111 A 
ATOM     12  N   UNL     1       8.482  -6.675   3.275  0.00  0.00    -0.263 NA
ATOM     13  C   UNL     1       8.265  -5.571   2.585  0.00  0.00    +0.112 A 
ENDBRANCH   7   8
BRANCH   7  14
ATOM     14  N   UNL     1       8.386  -2.864   1.729  0.00  0.00    +0.385 N 
ATOM     15  C   UNL     1       8.180  -1.581   1.009  0.00  0.00    -0.078 C 
ATOM     16  C   UNL     1       9.579  -0.917   1.059  0.00  0.00    -0.020 C 
ATOM     17  C   UNL     1      10.095  -1.304   2.464  0.00  0.00    -0.020 C 
ATOM     18  C   UNL     1       9.284  -2.551   2.862  0.00  0.00    -0.078 C 
ATOM     19  H   UNL     1       8.819  -3.540   1.118  0.00  0.00    -0.081 HD
ENDBRANCH   7  14
ENDBRANCH   6   7
ENDBRANCH   4   6
ENDBRANCH   1   2
BRANCH   1  20
ATOM     20  N   UNL     1       1.583  -4.887   0.052  0.00  0.00    -0.178 NA
ATOM     21  H   UNL     1       1.917  -5.255  -0.781  0.00  0.00    +0.149 HD
BRANCH  20  22
ATOM     22  S   UNL     1      -0.015  -4.476   0.195  0.00  0.00    +0.059 S 
ATOM     23  O   UNL     1      -0.476  -5.058   1.407  0.00  0.00    -0.153 OA
ATOM     24  O   UNL     1      -0.619  -4.752  -1.061  0.00  0.00    -0.153 OA
BRANCH  22  29
ATOM     25  C   UNL     1      -0.261   1.505   0.952  0.00  0.00    +0.044 C 
ATOM     26  C   UNL     1      -0.199   0.011   0.763  0.00  0.00    -0.050 A 
ATOM     27  C   UNL     1      -0.238  -0.527  -0.510  0.00  0.00    +0.005 A 
ATOM     28  C   UNL     1      -0.182  -1.897  -0.683  0.00  0.00    +0.029 A 
ATOM     29  C   UNL     1      -0.085  -2.730   0.416  0.00  0.00    +0.105 A 
ATOM     30  C   UNL     1      -0.045  -2.192   1.689  0.00  0.00    +0.029 A 
ATOM     31  C   UNL     1      -0.097  -0.821   1.862  0.00  0.00    +0.005 A 
ENDBRANCH  22  29
ENDBRANCH  20  22
ENDBRANCH   1  20
BRANCH   1  32
ATOM     32  C   UNL     1       2.606  -6.000   1.975  0.00  0.00    +0.065 C 
BRANCH  32  33
ATOM     33  C   UNL     1       1.270  -6.332   2.589  0.00  0.00    -0.045 A 
ATOM     34  C   UNL     1       0.953  -5.859   3.849  0.00  0.00    +0.004 A 
ATOM     35  C   UNL     1      -0.273  -6.164   4.412  0.00  0.00    +0.000 A 
ATOM     36  C   UNL     1      -1.180  -6.940   3.716  0.00  0.00    +0.000 A 
ATOM     37  C   UNL     1      -0.862  -7.412   2.456  0.00  0.00    +0.000 A 
ATOM     38  C   UNL     1       0.361  -7.104   1.891  0.00  0.00    +0.004 A 
ENDBRANCH  32  33
ENDBRANCH   1  32
TORSDOF 10
