REMARK  Name = ZINC12707209
REMARK  10 active torsions:
REMARK  status: ('A' for Active; 'I' for Inactive)
REMARK    1  A    between atoms: C_1  and  N_2
REMARK    2  A    between atoms: N_2  and  C_3
REMARK    3  A    between atoms: N_2  and  C_4
REMARK    4  A    between atoms: C_4  and  C_5
REMARK    5  A    between atoms: C_5  and  N_6
REMARK    6  A    between atoms: N_6  and  C_7
REMARK    7  A    between atoms: C_7  and  C_8
REMARK    8  A    between atoms: C_12  and  O_20
REMARK    9  A    between atoms: O_20  and  C_21
REMARK   10  A    between atoms: N_24  and  C_25
REMARK                            x       y       z     vdW  Elec       q    Type
REMARK                         _______ _______ _______ _____ _____    ______ ____
ROOT
ATOM      1  N   UNL     1      -2.345   0.934   0.018  0.00  0.00    -0.283 N 
ATOM      2  C   UNL     1      -1.187   1.624   0.017  0.00  0.00    +0.303 C 
ATOM      3  O   UNL     1      -1.204   2.840   0.023  0.00  0.00    -0.253 OA
ATOM      4  N   UNL     1      -0.011   0.966   0.007  0.00  0.00    -0.296 N 
ATOM      5  H   UNL     1       0.004  -0.134   0.006  0.00  0.00    +0.151 HD
ENDROOT
BRANCH   4   6
ATOM      6  C   UNL     1       1.248   1.716  -0.001  0.00  0.00    +0.074 C 
ATOM      7  C   UNL     1       1.608   2.092  -1.439  0.00  0.00    +0.022 C 
ATOM      8  C   UNL     1       2.922   2.875  -1.448  0.00  0.00    +0.002 C 
ATOM      9  C   UNL     1       4.035   2.010  -0.853  0.00  0.00    +0.000 C 
ATOM     10  C   UNL     1       3.675   1.633   0.585  0.00  0.00    +0.002 C 
ATOM     11  C   UNL     1       2.361   0.850   0.594  0.00  0.00    +0.022 C 
ENDBRANCH   4   6
BRANCH   1  12
ATOM     12  C   UNL     1      -2.325  -0.531   0.010  0.00  0.00    +0.091 C 
BRANCH  12  13
ATOM     13  C   UNL     1      -2.312  -1.048   1.450  0.00  0.00    -0.060 C 
BRANCH  13  15
ATOM     14  C   UNL     1      -1.034  -3.024   0.876  0.00  0.00    -0.097 C 
ATOM     15  N   UNL     1      -2.292  -2.517   1.442  0.00  0.00    +0.377 N 
ATOM     16  C   UNL     1      -2.516  -3.054   2.791  0.00  0.00    -0.097 C 
ATOM     17  H   UNL     1      -3.115  -2.863   0.799  0.00  0.00    -0.083 HD
ENDBRANCH  13  15
ENDBRANCH  12  13
ENDBRANCH   1  12
BRANCH   1  18
ATOM     18  C   UNL     1      -3.624   1.649   0.028  0.00  0.00    +0.149 C 
BRANCH  18  19
ATOM     19  C   UNL     1      -4.069   1.902  -1.389  0.00  0.00    +0.035 A 
ATOM     20  C   UNL     1      -4.920   1.037  -1.994  0.00  0.00    +0.020 A 
ATOM     21  C   UNL     1      -5.337   1.314  -3.370  0.00  0.00    +0.002 A 
ATOM     22  C   UNL     1      -6.217   0.460  -4.043  0.00  0.00    +0.055 A 
ATOM     23  C   UNL     1      -6.586   0.747  -5.342  0.00  0.00    +0.121 A 
ATOM     24  C   UNL     1      -6.087   1.880  -5.981  0.00  0.00    +0.047 A 
ATOM     25  C   UNL     1      -5.219   2.728  -5.329  0.00  0.00    +0.030 A 
ATOM     26  C   UNL     1      -4.835   2.457  -4.019  0.00  0.00    +0.049 A 
ATOM     27  N   UNL     1      -3.967   3.295  -3.349  0.00  0.00    -0.322 N 
ATOM     28  H   UNL     1      -3.571   4.191  -3.849  0.00  0.00    +0.169 HD
ATOM     29  C   UNL     1      -3.594   3.035  -2.084  0.00  0.00    +0.254 A 
ATOM     30  O   UNL     1      -2.826   3.797  -1.522  0.00  0.00    -0.268 OA
BRANCH  23  31
ATOM     31  O   UNL     1      -7.441  -0.080  -6.001  0.00  0.00    -0.495 OA
ATOM     32  C   UNL     1      -7.782   0.276  -7.343  0.00  0.00    +0.277 C 
ENDBRANCH  23  31
ENDBRANCH  18  19
ENDBRANCH   1  18
TORSDOF 7
