REMARK  Name = ZINC00114173
REMARK  2 active torsions:
REMARK  status: ('A' for Active; 'I' for Inactive)
REMARK    1  A    between atoms: C_6  and  C_7
REMARK    2  A    between atoms: C_9  and  C_13
REMARK                            x       y       z     vdW  Elec       q    Type
REMARK                         _______ _______ _______ _____ _____    ______ ____
ROOT
ATOM      1  C   UNK     1      -3.744   1.314   0.068  0.00  0.00    +0.020 C 
ATOM      2  C   UNK     1      -1.329   1.940   0.019  0.00  0.00    +0.055 C 
ATOM      3  C   UNK     1      -1.629   2.434   1.465  0.00  0.00    +0.063 C 
ATOM      4  S   UNK     1      -3.459   2.650   1.305  0.00  0.00    -0.173 S 
ATOM      5  N   UNK     1      -2.378   1.008  -0.481  0.00  0.00    +0.399 N 
ATOM      6  H   UNK     1      -2.414   1.076  -1.505  0.00  0.00    -0.083 HD
ATOM      7  H   UNK     1      -2.123   0.052  -0.210  0.00  0.00    -0.083 HD
ENDROOT
BRANCH   1  13
ATOM      8  C   UNK     1      -4.119   2.420  -2.146  0.00  0.00    +0.004 A 
ATOM      9  C   UNK     1      -4.950   2.856  -3.160  0.00  0.00    +0.020 A 
ATOM     10  C   UNK     1      -6.319   2.677  -3.057  0.00  0.00    +0.041 A 
ATOM     11  C   UNK     1      -6.853   2.056  -1.942  0.00  0.00    +0.020 A 
ATOM     12  C   UNK     1      -6.019   1.616  -0.931  0.00  0.00    +0.004 A 
ATOM     13  C   UNK     1      -4.652   1.795  -1.034  0.00  0.00    -0.052 A 
ATOM     14 CL   UNK     1      -7.365   3.230  -4.328  0.00  0.00    -0.084 Cl
ENDBRANCH   1  13
BRANCH   2  15
ATOM     15  C   UNK     1      -0.014   1.204   0.009  0.00  0.00    +0.343 C 
ATOM     16  O   UNK     1       0.002  -0.004   0.002  0.00  0.00    -0.248 OA
ATOM     17  O   UNK     1       1.139   1.891   0.001  0.00  0.00    -0.248 OA
ENDBRANCH   2  15
TORSDOF 2
