REMARK  Name = ZINC33451914
REMARK  10 active torsions:
REMARK  status: ('A' for Active; 'I' for Inactive)
REMARK    1  A    between atoms: C_1  and  C_2
REMARK    2  A    between atoms: C_2  and  N_3
REMARK    3  A    between atoms: C_7  and  C_9
REMARK    4  A    between atoms: C_9  and  C_11
REMARK    5  A    between atoms: C_9  and  O_12
REMARK    6  A    between atoms: O_12  and  C_13
REMARK    7  A    between atoms: C_13  and  C_15
REMARK    8  A    between atoms: C_19  and  S_21
REMARK    9  A    between atoms: S_21  and  N_24
REMARK   10  A    between atoms: C_32  and  C_34
REMARK                            x       y       z     vdW  Elec       q    Type
REMARK                         _______ _______ _______ _____ _____    ______ ____
ROOT
ATOM      1  C   UNL     1      -5.872   2.202   0.937  0.00  0.00    +0.061 A 
ATOM      2  C   UNL     1      -5.838   3.512   0.454  0.00  0.00    +0.015 A 
ATOM      3  C   UNL     1      -6.936   4.332   0.614  0.00  0.00    +0.003 A 
ATOM      4  C   UNL     1      -8.069   3.858   1.251  0.00  0.00    +0.029 A 
ATOM      5  C   UNL     1      -8.110   2.562   1.732  0.00  0.00    +0.110 A 
ATOM      6  C   UNL     1      -7.020   1.730   1.575  0.00  0.00    +0.043 A 
ENDROOT
BRANCH   5   7
ATOM      7  S   UNL     1      -9.558   1.970   2.542  0.00  0.00    +0.075 S 
ATOM      8  O   UNL     1      -9.145   0.900   3.382  0.00  0.00    -0.150 OA
ATOM      9  O   UNL     1     -10.239   3.112   3.042  0.00  0.00    -0.150 OA
BRANCH   7  10
ATOM     10  N   UNL     1     -10.534   1.308   1.379  0.00  0.00    -0.200 N 
ATOM     11  C   UNL     1     -10.503  -0.027   0.973  0.00  0.00    +0.055 A 
ATOM     12  C   UNL     1      -9.690  -1.070   1.423  0.00  0.00    +0.025 A 
ATOM     13  C   UNL     1      -9.818  -2.333   0.886  0.00  0.00    +0.002 A 
ATOM     14  C   UNL     1     -10.754  -2.577  -0.103  0.00  0.00    +0.000 A 
ATOM     15  C   UNL     1     -11.563  -1.550  -0.553  0.00  0.00    +0.005 A 
ATOM     16  C   UNL     1     -11.437  -0.282  -0.018  0.00  0.00    -0.023 A 
ATOM     17  C   UNL     1     -12.180   1.000  -0.321  0.00  0.00    +0.061 C 
ATOM     18  C   UNL     1     -11.560   2.038   0.629  0.00  0.00    +0.099 C 
ATOM     19  C   UNL     1     -10.923   3.175  -0.174  0.00  0.00    +0.030 C 
ENDBRANCH   7  10
ENDBRANCH   5   7
BRANCH   1  20
ATOM     20  C   UNL     1      -4.700   1.319   0.769  0.00  0.00    +0.340 C 
ATOM     21  O   UNL     1      -4.732   0.180   1.190  0.00  0.00    -0.245 OA
BRANCH  20  22
ATOM     22  O   UNL     1      -3.595   1.776   0.148  0.00  0.00    -0.449 OA
BRANCH  22  23
ATOM     23  C   UNL     1      -2.482   0.853   0.018  0.00  0.00    +0.259 C 
ATOM     24  C   UNL     1      -2.615   0.075  -1.292  0.00  0.00    +0.062 C 
BRANCH  23  29
ATOM     25  N   UNL     1       2.323   0.998  -0.015  0.00  0.00    -0.299 N 
ATOM     26  C   UNL     1       1.147   1.655   0.000  0.00  0.00    +0.306 C 
ATOM     27  O   UNL     1       1.130   2.871   0.007  0.00  0.00    -0.252 OA
ATOM     28  N   UNL     1      -0.011   0.966   0.007  0.00  0.00    -0.237 N 
ATOM     29  C   UNL     1      -1.187   1.624   0.017  0.00  0.00    +0.261 C 
ATOM     30  O   UNL     1      -1.204   2.836   0.023  0.00  0.00    -0.271 OA
ATOM     31  H   UNL     1       2.338  -0.102  -0.021  0.00  0.00    +0.150 HD
ATOM     32  H   UNL     1       0.004  -0.134   0.006  0.00  0.00    +0.159 HD
BRANCH  25  34
ATOM     33  C   UNL     1       4.758   0.769  -0.039  0.00  0.00    +0.024 C 
ATOM     34  C   UNL     1       3.582   1.747  -0.023  0.00  0.00    +0.102 C 
ENDBRANCH  25  34
ENDBRANCH  23  29
ENDBRANCH  22  23
ENDBRANCH  20  22
ENDBRANCH   1  20
TORSDOF 7
