REMARK  Name = ZINC08430334
REMARK  10 active torsions:
REMARK  status: ('A' for Active; 'I' for Inactive)
REMARK    1  A    between atoms: C_1  and  C_2
REMARK    2  A    between atoms: C_2  and  C_3
REMARK    3  A    between atoms: C_2  and  C_4
REMARK    4  A    between atoms: C_4  and  N_5
REMARK    5  A    between atoms: N_5  and  S_6
REMARK    6  A    between atoms: S_6  and  C_9
REMARK    7  A    between atoms: C_12  and  C_15
REMARK    8  A    between atoms: C_15  and  C_16
REMARK    9  A    between atoms: C_16  and  C_17
REMARK   10  A    between atoms: N_22  and  C_25
REMARK                            x       y       z     vdW  Elec       q    Type
REMARK                         _______ _______ _______ _____ _____    ______ ____
ROOT
ATOM      1  C   UNL     1       5.928   0.800   5.396  0.00  0.00    +0.044 C 
ENDROOT
BRANCH   1   5
ATOM      2  C   UNL     1       1.941  -0.325   4.355  0.00  0.00    +0.105 A 
ATOM      3  C   UNL     1       3.009  -1.092   3.929  0.00  0.00    +0.029 A 
ATOM      4  C   UNL     1       4.299  -0.728   4.266  0.00  0.00    +0.005 A 
ATOM      5  C   UNL     1       4.522   0.403   5.028  0.00  0.00    -0.047 A 
ATOM      6  C   UNL     1       3.453   1.171   5.454  0.00  0.00    +0.005 A 
ATOM      7  C   UNL     1       2.163   0.809   5.114  0.00  0.00    +0.029 A 
BRANCH   2   8
ATOM      8  S   UNL     1       0.296  -0.790   3.926  0.00  0.00    +0.058 S 
ATOM      9  O   UNL     1      -0.558  -0.207   4.901  0.00  0.00    -0.153 OA
ATOM     10  O   UNL     1       0.322  -2.188   3.674  0.00  0.00    -0.153 OA
BRANCH   8  11
ATOM     11  N   UNL     1      -0.060  -0.055   2.485  0.00  0.00    -0.190 NA
ATOM     12  H   UNL     1      -0.756   0.619   2.443  0.00  0.00    +0.148 HD
BRANCH  11  13
ATOM     13  C   UNL     1       0.677  -0.423   1.274  0.00  0.00    +0.109 C 
BRANCH  13  15
ATOM     14  C   UNL     1      -0.077   1.629   0.064  0.00  0.00    +0.008 C 
ATOM     15  C   UNL     1      -0.069   0.099   0.044  0.00  0.00    -0.002 C 
ATOM     16  C   UNL     1       0.632  -0.391  -1.224  0.00  0.00    +0.008 C 
ENDBRANCH  13  15
ENDBRANCH  11  13
ENDBRANCH   8  11
ENDBRANCH   2   8
ENDBRANCH   1   5
BRANCH   1  17
ATOM     17  C   UNL     1       6.495   1.726   4.319  0.00  0.00    +0.100 C 
BRANCH  17  18
ATOM     18  C   UNL     1       7.902   2.123   4.687  0.00  0.00    +0.216 C 
ATOM     19  O   UNL     1       8.402   1.706   5.710  0.00  0.00    -0.276 OA
ATOM     20  N   UNL     1       8.604   2.941   3.878  0.00  0.00    -0.298 N 
ATOM     21  C   UNL     1       8.010   3.459   2.639  0.00  0.00    +0.126 C 
ATOM     22  C   UNL     1       8.094   4.990   2.657  0.00  0.00    +0.124 C 
ATOM     23  N   UNL     1       9.469   5.381   3.000  0.00  0.00    -0.327 N 
ATOM     24  C   UNL     1      10.063   4.863   4.240  0.00  0.00    +0.124 C 
ATOM     25  C   UNL     1       9.977   3.336   4.224  0.00  0.00    +0.126 C 
BRANCH  23  26
ATOM     26  C   UNL     1      10.197   6.230   2.162  0.00  0.00    +0.030 A 
ATOM     27  C   UNL     1      11.451   6.684   2.552  0.00  0.00    +0.026 A 
ATOM     28  C   UNL     1      12.169   7.522   1.722  0.00  0.00    +0.040 A 
ATOM     29  C   UNL     1      11.641   7.910   0.502  0.00  0.00    +0.124 A 
ATOM     30  C   UNL     1      10.392   7.458   0.111  0.00  0.00    +0.040 A 
ATOM     31  C   UNL     1       9.672   6.616   0.936  0.00  0.00    +0.026 A 
ATOM     32  F   UNL     1      12.345   8.730  -0.308  0.00  0.00    -0.205 F 
ENDBRANCH  23  26
ENDBRANCH  17  18
ENDBRANCH   1  17
TORSDOF 8
