REMARK  Name = ZINC55190107
REMARK  6 active torsions:
REMARK  status: ('A' for Active; 'I' for Inactive)
REMARK    1  A    between atoms: C_1  and  C_2
REMARK    2  A    between atoms: C_2  and  C_3
REMARK    3  A    between atoms: C_2  and  C_4
REMARK    4  A    between atoms: C_2  and  C_5
REMARK    5  A    between atoms: C_11  and  C_12
REMARK    6  A    between atoms: C_11  and  O_22
REMARK                            x       y       z     vdW  Elec       q    Type
REMARK                         _______ _______ _______ _____ _____    ______ ____
ROOT
ATOM      1  C   UNL     1       0.561  -0.692  -1.337  0.00  0.00    +0.031 C 
ATOM      2  C   UNL     1      -0.073  -0.161  -2.624  0.00  0.00    +0.007 C 
ATOM      3  C   UNL     1       0.564  -0.855  -3.830  0.00  0.00    +0.000 C 
ATOM      4  C   UNL     1       2.067  -0.572  -3.846  0.00  0.00    +0.003 C 
ATOM      5  C   UNL     1       2.700  -1.103  -2.559  0.00  0.00    +0.040 C 
ATOM      6  C   UNL     1       2.064  -0.408  -1.353  0.00  0.00    +0.094 C 
ENDROOT
BRANCH   6   7
ATOM      7  C   UNL     1       2.294   1.078  -1.450  0.00  0.00    -0.012 A 
ATOM      8  C   UNL     1       1.830   1.778  -2.549  0.00  0.00    +0.010 A 
ATOM      9  C   UNL     1       2.040   3.140  -2.642  0.00  0.00    +0.050 A 
ATOM     10  C   UNL     1       2.717   3.809  -1.633  0.00  0.00    +0.162 A 
ATOM     11  C   UNL     1       3.182   3.107  -0.528  0.00  0.00    +0.162 A 
ATOM     12  C   UNL     1       2.964   1.740  -0.439  0.00  0.00    +0.056 A 
ATOM     13  O   UNL     1       3.841   3.745   0.477  0.00  0.00    -0.485 OA
ATOM     14  C   UNL     1       4.362   5.046   0.180  0.00  0.00    +0.270 C 
ATOM     15  C   UNL     1       3.269   5.848  -0.540  0.00  0.00    +0.270 C 
ATOM     16  O   UNL     1       2.920   5.151  -1.741  0.00  0.00    -0.485 OA
ENDBRANCH   6   7
BRANCH   1  18
ATOM     17  C   UNL     1      -0.139   1.510  -0.385  0.00  0.00    +0.011 C 
ATOM     18  C   UNL     1      -0.076   0.003  -0.131  0.00  0.00    -0.032 C 
ATOM     19  C   UNL     1       0.767  -0.269   1.117  0.00  0.00    +0.011 C 
ATOM     20  C   UNL     1      -1.491  -0.539   0.081  0.00  0.00    +0.011 C 
ENDBRANCH   1  18
BRANCH   6  21
ATOM     21  O   UNL     1       2.656  -0.905  -0.151  0.00  0.00    -0.384 OA
ATOM     22  H   UNL     1       3.610  -0.759  -0.093  0.00  0.00    +0.211 HD
ENDBRANCH   6  21
TORSDOF 3
