REMARK  Name = ZINC03464571
REMARK  5 active torsions:
REMARK  status: ('A' for Active; 'I' for Inactive)
REMARK    1  A    between atoms: N_9  and  C_23
REMARK    2  A    between atoms: C_10  and  S_12
REMARK    3  A    between atoms: S_12  and  C_13
REMARK    4  A    between atoms: C_13  and  C_14
REMARK    5  A    between atoms: N_16  and  C_17
REMARK                            x       y       z     vdW  Elec       q    Type
REMARK                         _______ _______ _______ _____ _____    ______ ____
ROOT
ATOM      1  C   UNL     1       9.941   4.305   0.223  0.00  0.00    +0.001 A 
ATOM      2  C   UNL     1       8.774   4.787  -0.359  0.00  0.00    +0.002 A 
ATOM      3  C   UNL     1       7.588   4.127  -0.205  0.00  0.00    +0.028 A 
ATOM      4  C   UNL     1       7.543   2.950   0.548  0.00  0.00    +0.079 A 
ATOM      5  C   UNL     1       8.732   2.463   1.138  0.00  0.00    +0.065 A 
ATOM      6  C   UNL     1       9.929   3.157   0.965  0.00  0.00    +0.015 A 
ATOM      7  C   UNL     1       8.659   1.224   1.925  0.00  0.00    +0.267 A 
ATOM      8  O   UNL     1       9.649   0.756   2.457  0.00  0.00    -0.267 OA
ATOM      9  N   UNL     1       7.452   0.624   2.035  0.00  0.00    -0.253 N 
ATOM     10  C   UNL     1       6.351   1.165   1.430  0.00  0.00    +0.177 A 
ATOM     11  N   UNL     1       6.394   2.265   0.720  0.00  0.00    -0.223 NA
ENDROOT
BRANCH   9  12
ATOM     12  C   UNL     1       7.328  -0.561   2.774  0.00  0.00    +0.087 A 
ATOM     13  C   UNL     1       7.490  -1.790   2.150  0.00  0.00    +0.029 A 
ATOM     14  C   UNL     1       7.372  -2.956   2.881  0.00  0.00    +0.002 A 
ATOM     15  C   UNL     1       7.083  -2.901   4.232  0.00  0.00    +0.003 A 
ATOM     16  C   UNL     1       6.916  -1.679   4.858  0.00  0.00    +0.040 A 
ATOM     17  C   UNL     1       7.037  -0.508   4.132  0.00  0.00    +0.147 A 
ATOM     18  F   UNL     1       6.873   0.686   4.743  0.00  0.00    -0.203 F 
ENDBRANCH   9  12
BRANCH  10  19
ATOM     19  S   UNL     1       4.804   0.339   1.606  0.00  0.00    -0.078 S 
BRANCH  19  20
ATOM     20  C   UNL     1       3.745   1.447   0.644  0.00  0.00    +0.173 C 
BRANCH  20  21
ATOM     21  C   UNL     1       2.331   0.926   0.654  0.00  0.00    +0.224 C 
ATOM     22  O   UNL     1       2.066  -0.095   1.254  0.00  0.00    -0.275 OA
ATOM     23  N   UNL     1       1.362   1.593  -0.002  0.00  0.00    -0.312 N 
ATOM     24  H   UNL     1       1.574   2.409  -0.482  0.00  0.00    +0.149 HD
BRANCH  23  25
ATOM     25  C   UNL     1      -0.013   1.086   0.008  0.00  0.00    +0.073 C 
ATOM     26  C   UNL     1      -0.729   1.579   1.267  0.00  0.00    +0.022 C 
ATOM     27  C   UNL     1      -2.164   1.050   1.278  0.00  0.00    +0.002 C 
ATOM     28  C   UNL     1      -2.904   1.556   0.038  0.00  0.00    +0.000 C 
ATOM     29  C   UNL     1      -2.188   1.063  -1.221  0.00  0.00    +0.002 C 
ATOM     30  C   UNL     1      -0.753   1.593  -1.232  0.00  0.00    +0.022 C 
ENDBRANCH  23  25
ENDBRANCH  20  21
ENDBRANCH  19  20
ENDBRANCH  10  19
TORSDOF 5
