REMARK  Name = ZINC38672582
REMARK  9 active torsions:
REMARK  status: ('A' for Active; 'I' for Inactive)
REMARK    1  A    between atoms: C_1  and  N_2
REMARK    2  A    between atoms: N_5  and  C_8
REMARK    3  A    between atoms: C_8  and  C_10
REMARK    4  A    between atoms: C_8  and  C_29
REMARK    5  A    between atoms: C_10  and  N_11
REMARK    6  A    between atoms: C_12  and  C_14
REMARK    7  A    between atoms: C_17  and  S_20
REMARK    8  A    between atoms: S_20  and  N_23
REMARK    9  A    between atoms: N_37  and  C_38
REMARK                            x       y       z     vdW  Elec       q    Type
REMARK                         _______ _______ _______ _____ _____    ______ ____
ROOT
ATOM      1  C   UNL     1      -0.026  -3.839   0.302  0.00  0.00    +0.128 C 
ENDROOT
BRANCH   1   2
ATOM      2  N   UNL     1      -0.754  -3.356  -0.874  0.00  0.00    -0.310 N 
ATOM      3  C   UNL     1      -2.098  -3.257  -0.840  0.00  0.00    +0.244 C 
ATOM      4  O   UNL     1      -2.705  -3.568   0.166  0.00  0.00    -0.270 OA
ATOM      5  H   UNL     1      -0.270  -3.108  -1.677  0.00  0.00    +0.149 HD
BRANCH   3   6
ATOM      6  C   UNL     1      -2.833  -2.771  -2.027  0.00  0.00    +0.037 A 
ATOM      7  C   UNL     1      -2.139  -2.418  -3.186  0.00  0.00    +0.015 A 
ATOM      8  C   UNL     1      -2.831  -1.966  -4.290  0.00  0.00    +0.029 A 
ATOM      9  C   UNL     1      -4.210  -1.860  -4.250  0.00  0.00    +0.106 A 
ATOM     10  C   UNL     1      -4.904  -2.207  -3.105  0.00  0.00    +0.029 A 
ATOM     11  C   UNL     1      -4.225  -2.667  -1.996  0.00  0.00    +0.015 A 
BRANCH   9  12
ATOM     12  S   UNL     1      -5.086  -1.280  -5.665  0.00  0.00    +0.061 S 
ATOM     13  O   UNL     1      -6.319  -0.754  -5.192  0.00  0.00    -0.153 OA
ATOM     14  O   UNL     1      -4.168  -0.503  -6.421  0.00  0.00    -0.153 OA
BRANCH  12  15
ATOM     15  N   UNL     1      -5.459  -2.604  -6.587  0.00  0.00    -0.177 NA
ATOM     16  C   UNL     1      -4.533  -3.079  -7.624  0.00  0.00    +0.109 C 
ATOM     17  C   UNL     1      -4.247  -4.565  -7.386  0.00  0.00    +0.017 C 
ATOM     18  C   UNL     1      -5.570  -5.332  -7.326  0.00  0.00    +0.003 C 
ATOM     19  C   UNL     1      -6.412  -4.809  -6.160  0.00  0.00    +0.017 C 
ATOM     20  C   UNL     1      -6.720  -3.330  -6.379  0.00  0.00    +0.109 C 
ENDBRANCH  12  15
ENDBRANCH   9  12
ENDBRANCH   3   6
ENDBRANCH   1   2
BRANCH   1  21
ATOM     21  C   UNL     1       1.461  -3.964  -0.035  0.00  0.00    +0.104 C 
BRANCH  21  22
ATOM     22  C   UNL     1       2.223  -4.375   1.198  0.00  0.00    -0.028 A 
ATOM     23  C   UNL     1       1.986  -3.740   2.404  0.00  0.00    +0.007 A 
ATOM     24  C   UNL     1       2.682  -4.113   3.534  0.00  0.00    +0.024 A 
ATOM     25  C   UNL     1       3.630  -5.137   3.471  0.00  0.00    +0.033 A 
ATOM     26  C   UNL     1       3.860  -5.767   2.258  0.00  0.00    -0.025 A 
ATOM     27  C   UNL     1       3.156  -5.393   1.129  0.00  0.00    +0.010 A 
ATOM     28  C   UNL     1       4.921  -6.826   2.460  0.00  0.00    +0.056 C 
ATOM     29  C   UNL     1       5.282  -6.731   3.951  0.00  0.00    +0.109 C 
ATOM     30  N   UNL     1       4.433  -5.662   4.484  0.00  0.00    -0.332 N 
ATOM     31  C   UNL     1       4.429  -5.210   5.878  0.00  0.00    +0.129 C 
ENDBRANCH  21  22
BRANCH  21  36
ATOM     32  C   UNL     1       4.256   0.822  -1.054  0.00  0.00    -0.096 C 
ATOM     33  N   UNL     1       3.794  -0.475  -0.540  0.00  0.00    +0.379 N 
ATOM     34  C   UNL     1       2.442  -0.327   0.016  0.00  0.00    -0.064 C 
ATOM     35  C   UNL     1       1.968  -1.673   0.568  0.00  0.00    +0.066 C 
ATOM     36  N   UNL     1       1.966  -2.670  -0.513  0.00  0.00    -0.297 NA
ATOM     37  C   UNL     1       3.308  -2.810  -1.096  0.00  0.00    +0.066 C 
ATOM     38  C   UNL     1       3.771  -1.454  -1.634  0.00  0.00    -0.064 C 
ATOM     39  H   UNL     1       4.421  -0.793   0.183  0.00  0.00    -0.082 HD
ENDBRANCH  21  36
ENDBRANCH   1  21
TORSDOF 7
