REMARK  Name = ZINC64742171
REMARK  9 active torsions:
REMARK  status: ('A' for Active; 'I' for Inactive)
REMARK    1  A    between atoms: C_1  and  C_2
REMARK    2  A    between atoms: C_2  and  C_25
REMARK    3  A    between atoms: C_4  and  N_10
REMARK    4  A    between atoms: C_6  and  C_8
REMARK    5  A    between atoms: C_6  and  C_9
REMARK    6  A    between atoms: C_11  and  C_13
REMARK    7  A    between atoms: C_13  and  C_14
REMARK    8  A    between atoms: C_14  and  C_15
REMARK    9  A    between atoms: C_15  and  C_16
REMARK                            x       y       z     vdW  Elec       q    Type
REMARK                         _______ _______ _______ _____ _____    ______ ____
ROOT
ATOM      1  N   UNL     1       2.615  -0.819  -2.626  0.00  0.00    -0.313 N 
ATOM      2  C   UNL     1       3.770  -0.334  -3.123  0.00  0.00    +0.213 C 
ATOM      3  O   UNL     1       4.374   0.530  -2.523  0.00  0.00    -0.276 OA
ATOM      4  H   UNL     1       2.133  -1.510  -3.106  0.00  0.00    +0.149 HD
ENDROOT
BRANCH   1   8
ATOM      5  C   UNL     1      -0.019   1.528   0.010  0.00  0.00    -0.010 C 
ATOM      6  C   UNL     1       0.002  -0.004   0.002  0.00  0.00    -0.072 C 
ATOM      7  C   UNL     1       0.573  -0.505  -1.321  0.00  0.00    +0.009 C 
ATOM      8  C   UNL     1       2.088  -0.301  -1.357  0.00  0.00    +0.070 C 
ATOM      9  C   UNL     1       2.703  -1.086  -0.198  0.00  0.00    +0.009 C 
ATOM     10  C   UNL     1       2.147  -0.590   1.133  0.00  0.00    -0.072 C 
ATOM     11  N   UNL     1       0.697  -0.529   1.164  0.00  0.00    +0.386 N 
ATOM     12  C   UNL     1       2.769   0.766   1.481  0.00  0.00    -0.010 C 
ATOM     13  C   UNL     1       2.600  -1.589   2.223  0.00  0.00    -0.010 C 
ATOM     14  C   UNL     1      -1.468  -0.478   0.079  0.00  0.00    -0.010 C 
ATOM     15  H   UNL     1       0.416   0.021   1.982  0.00  0.00    -0.084 HD
ATOM     16  H   UNL     1       0.341  -1.472   1.351  0.00  0.00    -0.084 HD
ENDBRANCH   1   8
BRANCH   2  17
ATOM     17  C   UNL     1       4.312  -0.866  -4.426  0.00  0.00    +0.096 C 
BRANCH  17  18
ATOM     18  C   UNL     1       5.623  -0.153  -4.762  0.00  0.00    +0.014 C 
BRANCH  18  19
ATOM     19  C   UNL     1       6.173  -0.692  -6.084  0.00  0.00    +0.033 C 
BRANCH  19  20
ATOM     20  C   UNL     1       7.464   0.010  -6.415  0.00  0.00    -0.042 C 
ATOM     21  C   UNL     1       8.717  -0.420  -6.141  0.00  0.00    -0.001 A 
ATOM     22  C   UNL     1       9.232  -1.624  -5.477  0.00  0.00    +0.010 A 
ATOM     23  C   UNL     1      10.569  -1.780  -5.347  0.00  0.00    +0.001 A 
ATOM     24  C   UNL     1      11.473  -0.822  -5.828  0.00  0.00    +0.002 A 
ATOM     25  C   UNL     1      11.076   0.309  -6.449  0.00  0.00    +0.026 A 
ATOM     26  C   UNL     1       9.692   0.575  -6.641  0.00  0.00    +0.043 A 
ATOM     27  N   UNL     1       9.067   1.581  -7.202  0.00  0.00    -0.380 N 
ATOM     28  C   UNL     1       7.622   1.335  -7.126  0.00  0.00    +0.144 C 
ATOM     29  H   UNL     1       9.489   2.357  -7.603  0.00  0.00    +0.160 HD
ENDBRANCH  19  20
ENDBRANCH  18  19
ENDBRANCH  17  18
ENDBRANCH   2  17
TORSDOF 5
