REMARK  Name = ZINC32717927
REMARK  6 active torsions:
REMARK  status: ('A' for Active; 'I' for Inactive)
REMARK    1  A    between atoms: N_10  and  S_13
REMARK    2  A    between atoms: S_13  and  C_16
REMARK    3  A    between atoms: C_16  and  C_17
REMARK    4  A    between atoms: C_17  and  N_18
REMARK    5  A    between atoms: C_19  and  C_21
REMARK    6  A    between atoms: C_26  and  C_27
REMARK                            x       y       z     vdW  Elec       q    Type
REMARK                         _______ _______ _______ _____ _____    ______ ____
ROOT
ATOM      1  C   UNL     1       1.817  -8.158   2.993  0.00  0.00    +0.128 C 
ENDROOT
BRANCH   1   2
ATOM      2  N   UNL     1       1.923  -8.543   4.403  0.00  0.00    -0.310 N 
ATOM      3  C   UNL     1       1.954  -9.846   4.745  0.00  0.00    +0.248 C 
ATOM      4  O   UNL     1       1.895 -10.703   3.884  0.00  0.00    -0.270 OA
ATOM      5  H   UNL     1       1.970  -7.860   5.090  0.00  0.00    +0.149 HD
BRANCH   3   6
ATOM      6  C   UNL     1       2.061 -10.233   6.162  0.00  0.00    +0.082 A 
ATOM      7  C   UNL     1       2.027  -9.390   7.254  0.00  0.00    +0.118 A 
ATOM      8  N   UNL     1       2.156 -10.141   8.358  0.00  0.00    -0.283 N 
ATOM      9  H   UNL     1       2.164  -9.802   9.267  0.00  0.00    +0.188 HD
ATOM     10  N   UNL     1       2.276 -11.487   8.001  0.00  0.00    -0.173 NA
ATOM     11  C   UNL     1       2.219 -11.591   6.692  0.00  0.00    +0.105 A 
BRANCH  11  12
ATOM     12  C   UNL     1       2.301 -12.843   5.902  0.00  0.00    +0.003 A 
ATOM     13  C   UNL     1       3.091 -12.894   4.755  0.00  0.00    +0.013 A 
ATOM     14  C   UNL     1       3.165 -14.061   4.023  0.00  0.00    +0.039 A 
ATOM     15  C   UNL     1       2.456 -15.181   4.426  0.00  0.00    +0.123 A 
ATOM     16  C   UNL     1       1.669 -15.134   5.566  0.00  0.00    +0.039 A 
ATOM     17  C   UNL     1       1.593 -13.973   6.307  0.00  0.00    +0.013 A 
ATOM     18  F   UNL     1       2.531 -16.322   3.706  0.00  0.00    -0.205 F 
ENDBRANCH  11  12
ENDBRANCH   3   6
ENDBRANCH   1   2
BRANCH   1  19
ATOM     19  C   UNL     1       1.801  -6.632   2.881  0.00  0.00    +0.204 C 
BRANCH  19  20
ATOM     20  S   UNL     1       1.669  -6.155   1.136  0.00  0.00    +0.033 S 
ATOM     21  O   UNL     1       0.395  -6.520   0.624  0.00  0.00    -0.158 OA
ATOM     22  O   UNL     1       2.857  -6.508   0.441  0.00  0.00    -0.158 OA
BRANCH  20  32
ATOM     23  C   UNL     1       2.741   1.433   0.030  0.00  0.00    +0.005 A 
ATOM     24  C   UNL     1       1.511   2.078  -0.004  0.00  0.00    +0.018 A 
ATOM     25  C   UNL     1       0.354   1.326  -0.045  0.00  0.00    +0.084 A 
ATOM     26  N   UNL     1       0.405   0.007  -0.052  0.00  0.00    -0.350 N 
ATOM     27  C   UNL     1       1.557  -0.644  -0.021  0.00  0.00    +0.099 A 
ATOM     28  C   UNL     1       2.762   0.051   0.021  0.00  0.00    +0.042 A 
ATOM     29  N   UNL     1       1.563  -2.034  -0.029  0.00  0.00    -0.314 N 
ATOM     30  C   UNL     1       2.828  -2.776  -0.127  0.00  0.00    +0.123 C 
ATOM     31  C   UNL     1       2.920  -3.745   1.058  0.00  0.00    +0.128 C 
ATOM     32  N   UNL     1       1.662  -4.499   1.146  0.00  0.00    -0.178 NA
ATOM     33  C   UNL     1       0.397  -3.758   1.244  0.00  0.00    +0.128 C 
ATOM     34  C   UNL     1       0.305  -2.788   0.065  0.00  0.00    +0.123 C 
ATOM     35  H   UNL     1      -0.423  -0.497  -0.081  0.00  0.00    +0.166 HD
ENDBRANCH  20  32
ENDBRANCH  19  20
ENDBRANCH   1  19
TORSDOF 6
