REMARK  Name = ZINC36306379
REMARK  16 active torsions:
REMARK  status: ('A' for Active; 'I' for Inactive)
REMARK    1  A    between atoms: C_1  and  C_2
REMARK    2  A    between atoms: C_6  and  O_8
REMARK    3  A    between atoms: O_8  and  C_9
REMARK    4  A    between atoms: C_10  and  C_21
REMARK    5  A    between atoms: C_11  and  C_15
REMARK    6  A    between atoms: N_13  and  C_14
REMARK    7  A    between atoms: C_21  and  N_22
REMARK    8  A    between atoms: N_22  and  C_23
REMARK    9  A    between atoms: N_22  and  C_29
REMARK   10  A    between atoms: C_23  and  C_24
REMARK   11  A    between atoms: C_29  and  C_30
REMARK   12  A    between atoms: C_30  and  C_32
REMARK   13  A    between atoms: C_30  and  O_37
REMARK   14  A    between atoms: C_32  and  O_33
REMARK   15  A    between atoms: O_33  and  C_34
REMARK   16  A    between atoms: C_34  and  C_35
REMARK                            x       y       z     vdW  Elec       q    Type
REMARK                         _______ _______ _______ _____ _____    ______ ____
ROOT
ATOM      1  C   UNL     1      -0.161  -4.728   1.717  0.00  0.00    +0.221 A 
ATOM      2  C   UNL     1       0.105  -5.255   2.939  0.00  0.00    +0.025 A 
ATOM      3  C   UNL     1       0.717  -6.507   2.745  0.00  0.00    +0.098 A 
ATOM      4  N   UNL     1       0.812  -6.719   1.449  0.00  0.00    -0.168 NA
ATOM      5  N   UNL     1       0.262  -5.618   0.782  0.00  0.00    -0.235 N 
ATOM      6  C   UNL     1       0.162  -5.453  -0.670  0.00  0.00    +0.176 C 
ENDROOT
BRANCH   3   7
ATOM      7  C   UNL     1       1.176  -7.428   3.814  0.00  0.00    +0.002 A 
ATOM      8  C   UNL     1       1.863  -6.930   4.919  0.00  0.00    +0.010 A 
ATOM      9  C   UNL     1       2.287  -7.791   5.911  0.00  0.00    +0.001 A 
ATOM     10  C   UNL     1       2.032  -9.146   5.809  0.00  0.00    +0.000 A 
ATOM     11  C   UNL     1       1.351  -9.647   4.714  0.00  0.00    +0.001 A 
ATOM     12  C   UNL     1       0.916  -8.794   3.720  0.00  0.00    +0.010 A 
ENDBRANCH   3   7
BRANCH   1  13
ATOM     13  O   UNL     1      -0.750  -3.530   1.472  0.00  0.00    -0.438 OA
BRANCH  13  19
ATOM     14  C   UNL     1      -0.278   1.177   0.268  0.00  0.00    +0.044 C 
ATOM     15  C   UNL     1       0.322  -0.149   0.659  0.00  0.00    -0.047 A 
ATOM     16  C   UNL     1       1.693  -0.276   0.790  0.00  0.00    +0.003 A 
ATOM     17  C   UNL     1       2.246  -1.491   1.148  0.00  0.00    +0.004 A 
ATOM     18  C   UNL     1       1.430  -2.582   1.378  0.00  0.00    +0.046 A 
ATOM     19  C   UNL     1       0.055  -2.458   1.248  0.00  0.00    +0.131 A 
ATOM     20  C   UNL     1      -0.499  -1.236   0.892  0.00  0.00    +0.049 A 
ENDBRANCH  13  19
ENDBRANCH   1  13
BRANCH   2  21
ATOM     21  C   UNL     1      -0.201  -4.612   4.268  0.00  0.00    -0.035 C 
BRANCH  21  22
ATOM     22  N   UNL     1      -1.601  -4.874   4.628  0.00  0.00    +0.389 N 
ATOM     23  H   UNL     1      -2.205  -4.532   3.896  0.00  0.00    -0.081 HD
BRANCH  22  24
ATOM     24  C   UNL     1      -1.919  -4.187   5.887  0.00  0.00    -0.003 C 
BRANCH  24  25
ATOM     25  C   UNL     1      -1.712  -2.704   5.717  0.00  0.00    +0.089 A 
ATOM     26  C   UNL     1      -2.661  -1.811   5.382  0.00  0.00    +0.042 A 
ATOM     27  C   UNL     1      -2.034  -0.545   5.335  0.00  0.00    +0.041 A 
ATOM     28  C   UNL     1      -0.739  -0.740   5.643  0.00  0.00    +0.195 A 
ATOM     29  O   UNL     1      -0.551  -2.049   5.879  0.00  0.00    -0.470 OA
ENDBRANCH  24  25
ENDBRANCH  22  24
BRANCH  22  30
ATOM     30  C   UNL     1      -1.802  -6.319   4.794  0.00  0.00    -0.044 C 
BRANCH  30  31
ATOM     31  C   UNL     1      -3.295  -6.611   4.956  0.00  0.00    +0.124 C 
BRANCH  31  32
ATOM     32  O   UNL     1      -3.745  -6.107   6.215  0.00  0.00    -0.391 OA
ATOM     33  H   UNL     1      -3.294  -6.494   6.978  0.00  0.00    +0.210 HD
ENDBRANCH  31  32
BRANCH  31  34
ATOM     34  C   UNL     1      -3.529  -8.122   4.899  0.00  0.00    +0.190 C 
BRANCH  34  35
ATOM     35  O   UNL     1      -4.932  -8.389   4.933  0.00  0.00    -0.365 OA
BRANCH  35  36
ATOM     36  C   UNL     1      -5.261  -9.778   4.885  0.00  0.00    +0.248 C 
BRANCH  36  37
ATOM     37  C   UNL     1      -6.724  -9.938   4.925  0.00  0.00    -0.077 C 
ATOM     38  C   UNL     1      -7.891 -10.066   4.958  0.00  0.00    +0.006 C 
ENDBRANCH  36  37
ENDBRANCH  35  36
ENDBRANCH  34  35
ENDBRANCH  31  34
ENDBRANCH  30  31
ENDBRANCH  22  30
ENDBRANCH  21  22
ENDBRANCH   2  21
TORSDOF 14
