REMARK  Name = ZINC35246267
REMARK  15 active torsions:
REMARK  status: ('A' for Active; 'I' for Inactive)
REMARK    1  A    between atoms: C_1  and  C_2
REMARK    2  A    between atoms: C_2  and  C_3
REMARK    3  A    between atoms: C_3  and  C_4
REMARK    4  A    between atoms: C_4  and  N_5
REMARK    5  A    between atoms: C_6  and  C_38
REMARK    6  A    between atoms: C_7  and  C_31
REMARK    7  A    between atoms: C_8  and  C_13
REMARK    8  A    between atoms: C_17  and  N_19
REMARK    9  A    between atoms: C_20  and  C_22
REMARK   10  A    between atoms: C_26  and  N_28
REMARK   11  A    between atoms: C_31  and  O_33
REMARK   12  A    between atoms: O_33  and  C_34
REMARK   13  A    between atoms: C_34  and  C_35
REMARK   14  A    between atoms: C_35  and  O_36
REMARK   15  A    between atoms: O_36  and  C_37
REMARK                            x       y       z     vdW  Elec       q    Type
REMARK                         _______ _______ _______ _____ _____    ______ ____
ROOT
ATOM      1  N   UNL     1       0.951  -2.312  -3.082  0.00  0.00    -0.259 N 
ATOM      2  C   UNL     1       0.411  -2.729  -4.265  0.00  0.00    +0.024 C 
ATOM      3  C   UNL     1       1.161  -3.378  -5.182  0.00  0.00    +0.078 C 
ATOM      4  C   UNL     1       2.619  -3.627  -4.853  0.00  0.00    +0.144 C 
ATOM      5  N   UNL     1       3.102  -3.137  -3.551  0.00  0.00    -0.288 N 
ATOM      6  C   UNL     1       2.232  -2.500  -2.743  0.00  0.00    +0.307 C 
ATOM      7  O   UNL     1       2.623  -2.088  -1.667  0.00  0.00    -0.252 OA
ATOM      8  C   UNL     1      -1.043  -2.460  -4.552  0.00  0.00    +0.061 C 
ATOM      9  H   UNL     1       4.026  -3.266  -3.284  0.00  0.00    +0.151 HD
ENDROOT
BRANCH   4  10
ATOM     10  C   UNL     1       3.454  -2.984  -5.930  0.00  0.00    -0.021 A 
ATOM     11  C   UNL     1       3.700  -1.624  -5.894  0.00  0.00    +0.006 A 
ATOM     12  C   UNL     1       4.466  -1.030  -6.881  0.00  0.00    +0.002 A 
ATOM     13  C   UNL     1       4.988  -1.795  -7.905  0.00  0.00    +0.023 A 
ATOM     14  C   UNL     1       4.744  -3.161  -7.944  0.00  0.00    +0.034 A 
ATOM     15  C   UNL     1       3.978  -3.755  -6.949  0.00  0.00    +0.029 A 
BRANCH  14  16
ATOM     16  N   UNL     1       5.271  -3.938  -8.980  0.00  0.00    -0.281 N 
ATOM     17  C   UNL     1       5.412  -3.412 -10.213  0.00  0.00    +0.248 C 
ATOM     18  O   UNL     1       4.993  -2.295 -10.448  0.00  0.00    -0.270 OA
ATOM     19  H   UNL     1       5.536  -4.856  -8.812  0.00  0.00    +0.155 HD
BRANCH  17  20
ATOM     20  C   UNL     1       6.076  -4.192 -11.278  0.00  0.00    +0.039 A 
ATOM     21  C   UNL     1       6.553  -5.477 -11.013  0.00  0.00    +0.013 A 
ATOM     22  C   UNL     1       7.172  -6.199 -12.012  0.00  0.00    +0.003 A 
ATOM     23  C   UNL     1       7.320  -5.653 -13.275  0.00  0.00    +0.033 A 
ATOM     24  C   UNL     1       6.850  -4.380 -13.544  0.00  0.00    +0.127 A 
ATOM     25  C   UNL     1       6.223  -3.650 -12.556  0.00  0.00    +0.045 A 
BRANCH  24  26
ATOM     26  N   UNL     1       7.014  -3.804 -14.898  0.00  0.00    +0.056 N 
ATOM     27  O   UNL     1       7.558  -4.445 -15.766  0.00  0.00    -0.126 OA
ATOM     28  O   UNL     1       6.603  -2.692 -15.135  0.00  0.00    -0.126 OA
ENDBRANCH  24  26
ENDBRANCH  17  20
ENDBRANCH  14  16
ENDBRANCH   4  10
BRANCH   3  29
ATOM     29  C   UNL     1       0.603  -3.812  -6.408  0.00  0.00    +0.339 C 
ATOM     30  O   UNL     1      -0.571  -3.601  -6.650  0.00  0.00    -0.245 OA
BRANCH  29  31
ATOM     31  O   UNL     1       1.373  -4.458  -7.308  0.00  0.00    -0.459 OA
BRANCH  31  32
ATOM     32  C   UNL     1       0.744  -4.867  -8.524  0.00  0.00    +0.260 C 
BRANCH  32  33
ATOM     33  C   UNL     1       1.766  -5.579  -9.412  0.00  0.00    +0.200 C 
BRANCH  33  34
ATOM     34  O   UNL     1       2.187  -6.789  -8.779  0.00  0.00    -0.380 OA
ATOM     35  C   UNL     1       3.148  -7.535  -9.530  0.00  0.00    +0.194 C 
ENDBRANCH  33  34
ENDBRANCH  32  33
ENDBRANCH  31  32
ENDBRANCH  29  31
ENDBRANCH   3  29
BRANCH   1  36
ATOM     36  C   UNL     1       0.080  -1.613  -2.133  0.00  0.00    +0.115 C 
BRANCH  36  37
ATOM     37  C   UNL     1      -0.678  -2.638  -1.287  0.00  0.00    +0.019 C 
BRANCH  37  39
ATOM     38  C   UNL     1      -2.346  -2.933   0.550  0.00  0.00    +0.004 C 
ATOM     39  C   UNL     1      -1.588  -1.908  -0.296  0.00  0.00    -0.002 C 
ENDBRANCH  37  39
ENDBRANCH  36  37
ENDBRANCH   1  36
TORSDOF 12
