REMARK  Name = ZINC49523483
REMARK  11 active torsions:
REMARK  status: ('A' for Active; 'I' for Inactive)
REMARK    1  A    between atoms: C_1  and  C_2
REMARK    2  A    between atoms: C_2  and  C_3
REMARK    3  A    between atoms: C_2  and  C_4
REMARK    4  A    between atoms: C_13  and  N_16
REMARK    5  A    between atoms: C_17  and  C_19
REMARK    6  A    between atoms: N_21  and  C_22
REMARK    7  A    between atoms: C_22  and  C_23
REMARK    8  A    between atoms: N_26  and  C_29
REMARK    9  A    between atoms: C_29  and  C_30
REMARK   10  A    between atoms: C_35  and  S_36
REMARK   11  A    between atoms: S_36  and  C_37
REMARK                            x       y       z     vdW  Elec       q    Type
REMARK                         _______ _______ _______ _____ _____    ______ ____
ROOT
ATOM      1  C   UNL     1       6.081  -4.080   4.349  0.00  0.00    +0.299 C 
ATOM      2  O   UNL     1       6.229  -4.457   3.206  0.00  0.00    -0.265 OA
ATOM      3  N   UNL     1       6.969  -4.439   5.298  0.00  0.00    -0.307 N 
ATOM      4  H   UNL     1       6.851  -4.137   6.212  0.00  0.00    +0.149 HD
ENDROOT
BRANCH   1   6
ATOM      5  N   UNL     1       4.028  -2.857   3.758  0.00  0.00    -0.278 N 
ATOM      6  C   UNL     1       4.916  -3.216   4.706  0.00  0.00    +0.303 C 
ATOM      7  O   UNL     1       4.768  -2.838   5.850  0.00  0.00    -0.265 OA
ATOM      8  H   UNL     1       4.109  -3.212   2.859  0.00  0.00    +0.155 HD
BRANCH   5  18
ATOM      9  C   UNL     1      -0.619  -2.131   2.011  0.00  0.00    +0.222 C 
ATOM     10  O   UNL     1       0.340  -2.754   1.606  0.00  0.00    -0.275 OA
ATOM     11  N   UNL     1      -0.502  -1.350   3.104  0.00  0.00    -0.271 N 
ATOM     12  C   UNL     1      -1.667  -0.632   3.637  0.00  0.00    +0.114 C 
ATOM     13  C   UNL     1      -1.226   0.801   3.964  0.00  0.00    +0.024 C 
ATOM     14  C   UNL     1      -0.164   0.752   5.062  0.00  0.00    +0.038 C 
ATOM     15  C   UNL     1       0.933  -0.211   4.692  0.00  0.00    -0.026 A 
ATOM     16  C   UNL     1       0.733  -1.214   3.753  0.00  0.00    +0.041 A 
ATOM     17  C   UNL     1       1.761  -2.093   3.440  0.00  0.00    +0.047 A 
ATOM     18  C   UNL     1       2.992  -1.973   4.070  0.00  0.00    +0.036 A 
ATOM     19  C   UNL     1       3.190  -0.971   5.012  0.00  0.00    +0.024 A 
ATOM     20  C   UNL     1       2.166  -0.090   5.314  0.00  0.00    +0.007 A 
BRANCH   9  22
ATOM     21  C   UNL     1      -2.148  -0.985   0.431  0.00  0.00    +0.017 C 
ATOM     22  C   UNL     1      -1.940  -2.231   1.294  0.00  0.00    +0.069 C 
ATOM     23  C   UNL     1      -1.945  -3.475   0.404  0.00  0.00    +0.017 C 
ENDBRANCH   9  22
ENDBRANCH   5  18
ENDBRANCH   1   6
BRANCH   3  24
ATOM     24  C   UNL     1       8.112  -5.286   4.948  0.00  0.00    +0.108 C 
BRANCH  24  25
ATOM     25  C   UNL     1       8.957  -5.543   6.197  0.00  0.00    +0.003 C 
ATOM     26  C   UNL     1       9.573  -4.227   6.679  0.00  0.00    -0.014 C 
ATOM     27  C   UNL     1      10.480  -4.503   7.880  0.00  0.00    -0.078 C 
ATOM     28  N   UNL     1      11.548  -5.430   7.488  0.00  0.00    +0.382 N 
ATOM     29  C   UNL     1      10.969  -6.720   7.092  0.00  0.00    -0.078 C 
ATOM     30  C   UNL     1      10.081  -6.528   5.861  0.00  0.00    -0.014 C 
ATOM     31  H   UNL     1      12.061  -5.041   6.711  0.00  0.00    -0.081 HD
BRANCH  28  32
ATOM     32  C   UNL     1      12.460  -5.632   8.622  0.00  0.00    -0.042 C 
BRANCH  32  33
ATOM     33  C   UNL     1      13.624  -6.484   8.185  0.00  0.00    -0.051 A 
ATOM     34  C   UNL     1      13.640  -7.834   8.477  0.00  0.00    +0.003 A 
ATOM     35  C   UNL     1      14.707  -8.617   8.076  0.00  0.00    +0.000 A 
ATOM     36  C   UNL     1      15.761  -8.052   7.382  0.00  0.00    +0.001 A 
ATOM     37  C   UNL     1      15.752  -6.704   7.087  0.00  0.00    +0.015 A 
ATOM     38  C   UNL     1      14.679  -5.915   7.483  0.00  0.00    +0.009 A 
BRANCH  38  39
ATOM     39  S   UNL     1      14.659  -4.194   7.102  0.00  0.00    -0.128 S 
ATOM     40  C   UNL     1      16.210  -3.927   6.200  0.00  0.00    +0.090 C 
ENDBRANCH  38  39
ENDBRANCH  32  33
ENDBRANCH  28  32
ENDBRANCH  24  25
ENDBRANCH   3  24
TORSDOF 8
