REMARK  Name = ZINC60330407
REMARK  10 active torsions:
REMARK  status: ('A' for Active; 'I' for Inactive)
REMARK    1  A    between atoms: C_1  and  C_2
REMARK    2  A    between atoms: C_2  and  C_4
REMARK    3  A    between atoms: C_2  and  S_16
REMARK    4  A    between atoms: N_6  and  C_7
REMARK    5  A    between atoms: C_7  and  C_8
REMARK    6  A    between atoms: C_8  and  C_9
REMARK    7  A    between atoms: C_13  and  O_15
REMARK    8  A    between atoms: S_16  and  C_17
REMARK    9  A    between atoms: C_17  and  C_18
REMARK   10  A    between atoms: C_24  and  C_29
REMARK                            x       y       z     vdW  Elec       q    Type
REMARK                         _______ _______ _______ _____ _____    ______ ____
ROOT
ATOM      1  C   UNL     1      -2.384  -0.077  -1.571  0.00  0.00    +0.144 C 
ENDROOT
BRANCH   1   2
ATOM      2  C   UNL     1      -3.814  -0.539  -1.690  0.00  0.00    +0.121 A 
ATOM      3  N   UNL     1      -4.521  -0.237  -2.808  0.00  0.00    -0.310 N 
ATOM      4  H   UNL     1      -4.097   0.273  -3.516  0.00  0.00    +0.170 HD
ATOM      5  C   UNL     1      -5.800  -0.630  -2.954  0.00  0.00    +0.260 A 
ATOM      6  O   UNL     1      -6.422  -0.351  -3.965  0.00  0.00    -0.267 OA
ATOM      7  C   UNL     1      -6.419  -1.382  -1.905  0.00  0.00    +0.080 A 
ATOM      8  C   UNL     1      -7.774  -1.916  -1.827  0.00  0.00    +0.004 A 
ATOM      9  C   UNL     1      -8.140  -2.604  -0.719  0.00  0.00    +0.056 A 
ATOM     10  S   UNL     1      -6.671  -2.574   0.290  0.00  0.00    -0.076 S 
ATOM     11  C   UNL     1      -5.610  -1.646  -0.788  0.00  0.00    +0.116 A 
ATOM     12  N   UNL     1      -4.349  -1.228  -0.718  0.00  0.00    -0.226 NA
BRANCH   8  13
ATOM     13  C   UNL     1      -8.732  -1.708  -2.939  0.00  0.00    -0.017 A 
ATOM     14  C   UNL     1      -8.927  -0.432  -3.466  0.00  0.00    +0.008 A 
ATOM     15  C   UNL     1      -9.820  -0.245  -4.501  0.00  0.00    +0.001 A 
ATOM     16  C   UNL     1     -10.521  -1.321  -5.016  0.00  0.00    +0.000 A 
ATOM     17  C   UNL     1     -10.332  -2.589  -4.497  0.00  0.00    +0.001 A 
ATOM     18  C   UNL     1      -9.438  -2.789  -3.465  0.00  0.00    +0.008 A 
ENDBRANCH   8  13
ENDBRANCH   1   2
BRANCH   1  19
ATOM     19  S   UNL     1      -1.700  -0.632   0.015  0.00  0.00    -0.141 S 
BRANCH  19  21
ATOM     20  C   UNL     1      -0.019   1.526   0.010  0.00  0.00    +0.029 C 
ATOM     21  C   UNL     1       0.002  -0.004   0.002  0.00  0.00    +0.129 C 
BRANCH  21  22
ATOM     22  C   UNL     1       0.731  -0.503   1.223  0.00  0.00    +0.226 C 
ATOM     23  O   UNL     1       0.105  -0.891   2.187  0.00  0.00    -0.275 OA
ATOM     24  N   UNL     1       2.079  -0.519   1.244  0.00  0.00    -0.314 N 
ATOM     25  H   UNL     1       2.579  -0.208   0.473  0.00  0.00    +0.149 HD
BRANCH  24  26
ATOM     26  C   UNL     1       2.787  -1.004   2.431  0.00  0.00    +0.109 C 
BRANCH  26  27
ATOM     27  C   UNL     1       4.296  -0.916   2.195  0.00  0.00    +0.054 C 
BRANCH  27  28
ATOM     28  C   UNL     1       5.025  -1.415   3.416  0.00  0.00    -0.042 A 
ATOM     29  C   UNL     1       5.360  -0.535   4.429  0.00  0.00    +0.004 A 
ATOM     30  C   UNL     1       6.029  -0.990   5.550  0.00  0.00    +0.004 A 
ATOM     31  C   UNL     1       6.364  -2.326   5.661  0.00  0.00    +0.045 A 
ATOM     32  C   UNL     1       6.030  -3.210   4.647  0.00  0.00    +0.117 A 
ATOM     33  C   UNL     1       5.353  -2.752   3.525  0.00  0.00    +0.049 A 
BRANCH  32  34
ATOM     34  O   UNL     1       6.359  -4.525   4.754  0.00  0.00    -0.507 OA
ATOM     35  H   UNL     1       5.681  -5.066   5.181  0.00  0.00    +0.292 HD
ENDBRANCH  32  34
ENDBRANCH  27  28
ENDBRANCH  26  27
ENDBRANCH  24  26
ENDBRANCH  21  22
ENDBRANCH  19  21
ENDBRANCH   1  19
TORSDOF 9
