REMARK  Name = ZINC09388464
REMARK  17 active torsions:
REMARK  status: ('A' for Active; 'I' for Inactive)
REMARK    1  A    between atoms: C_1  and  C_2
REMARK    2  A    between atoms: C_4  and  C_20
REMARK    3  A    between atoms: C_5  and  C_19
REMARK    4  A    between atoms: N_6  and  C_7
REMARK    5  A    between atoms: C_7  and  C_8
REMARK    6  A    between atoms: C_8  and  C_9
REMARK    7  A    between atoms: C_12  and  O_17
REMARK    8  A    between atoms: C_13  and  O_15
REMARK    9  A    between atoms: O_15  and  C_16
REMARK   10  A    between atoms: O_17  and  C_18
REMARK   11  A    between atoms: C_20  and  C_22
REMARK   12  A    between atoms: C_22  and  O_23
REMARK   13  A    between atoms: O_23  and  C_24
REMARK   14  A    between atoms: C_24  and  C_26
REMARK   15  A    between atoms: C_26  and  N_27
REMARK   16  A    between atoms: C_30  and  C_34
REMARK   17  A    between atoms: C_30  and  C_35
REMARK                            x       y       z     vdW  Elec       q    Type
REMARK                         _______ _______ _______ _____ _____    ______ ____
ROOT
ATOM      1  C   UNL     1       2.050  -0.334  -5.019  0.00  0.00    +0.063 C 
ATOM      2  C   UNL     1       0.996   0.389  -4.220  0.00  0.00    +0.017 A 
ATOM      3  C   UNL     1       0.934   0.440  -2.879  0.00  0.00    +0.034 A 
ATOM      4  C   UNL     1      -0.249   1.245  -2.550  0.00  0.00    +0.042 A 
ATOM      5  C   UNL     1      -0.799   1.622  -3.760  0.00  0.00    +0.026 A 
ATOM      6  N   UNL     1      -0.043   1.102  -4.744  0.00  0.00    -0.347 N 
ATOM      7  C   UNL     1      -2.032   2.467  -3.947  0.00  0.00    +0.064 C 
ENDROOT
BRANCH   4   8
ATOM      8  C   UNL     1      -0.742   1.585  -1.213  0.00  0.00    +0.202 C 
ATOM      9  O   UNL     1      -1.736   2.269  -1.088  0.00  0.00    -0.288 OA
BRANCH   8  10
ATOM     10  C   UNL     1      -0.013   1.086   0.008  0.00  0.00    +0.311 C 
BRANCH  10  11
ATOM     11  O   UNL     1      -0.692   1.554   1.203  0.00  0.00    -0.455 OA
BRANCH  11  12
ATOM     12  C   UNL     1      -0.166   1.194   2.384  0.00  0.00    +0.326 C 
ATOM     13  O   UNL     1       0.829   0.510   2.418  0.00  0.00    -0.249 OA
BRANCH  12  14
ATOM     14  C   UNL     1      -0.817   1.643   3.667  0.00  0.00    +0.238 C 
BRANCH  14  15
ATOM     15  N   UNL     1      -0.058   1.123   4.807  0.00  0.00    -0.213 N 
ATOM     16  C   UNL     1      -0.301  -0.062   5.401  0.00  0.00    +0.246 C 
ATOM     17  O   UNL     1      -1.156  -0.869   5.103  0.00  0.00    -0.273 OA
ATOM     18  C   UNL     1       0.719  -0.178   6.517  0.00  0.00    +0.107 C 
ATOM     19  N   UNL     1       1.484   1.076   6.417  0.00  0.00    -0.285 N 
ATOM     20  C   UNL     1       0.957   1.769   5.391  0.00  0.00    +0.310 C 
ATOM     21  O   UNL     1       1.359   2.859   5.035  0.00  0.00    -0.252 OA
ATOM     22  C   UNL     1       1.632  -1.385   6.294  0.00  0.00    +0.041 C 
ATOM     23  C   UNL     1       0.017  -0.275   7.873  0.00  0.00    +0.041 C 
ATOM     24  H   UNL     1       2.224   1.350   6.982  0.00  0.00    +0.151 HD
ENDBRANCH  14  15
ENDBRANCH  12  14
ENDBRANCH  11  12
ENDBRANCH  10  11
ENDBRANCH   8  10
ENDBRANCH   4   8
BRANCH   6  25
ATOM     25  C   UNL     1      -0.299   1.276  -6.176  0.00  0.00    +0.126 C 
BRANCH  25  26
ATOM     26  C   UNL     1       0.428   2.527  -6.675  0.00  0.00    +0.057 C 
BRANCH  26  27
ATOM     27  C   UNL     1       0.165   2.706  -8.148  0.00  0.00    -0.042 A 
ATOM     28  C   UNL     1       1.013   2.130  -9.076  0.00  0.00    +0.007 A 
ATOM     29  C   UNL     1       0.772   2.287 -10.428  0.00  0.00    +0.049 A 
ATOM     30  C   UNL     1      -0.315   3.033 -10.856  0.00  0.00    +0.161 A 
ATOM     31  C   UNL     1      -1.165   3.617  -9.923  0.00  0.00    +0.162 A 
ATOM     32  C   UNL     1      -0.921   3.451  -8.569  0.00  0.00    +0.053 A 
BRANCH  31  33
ATOM     33  O   UNL     1      -2.233   4.349 -10.338  0.00  0.00    -0.491 OA
ATOM     34  C   UNL     1      -3.063   4.919  -9.324  0.00  0.00    +0.277 C 
ENDBRANCH  31  33
BRANCH  30  35
ATOM     35  O   UNL     1      -0.549   3.193 -12.186  0.00  0.00    -0.491 OA
ATOM     36  C   UNL     1       0.365   2.565 -13.087  0.00  0.00    +0.277 C 
ENDBRANCH  30  35
ENDBRANCH  26  27
ENDBRANCH  25  26
ENDBRANCH   6  25
TORSDOF 11
