REMARK  Name = ZINC25584014
REMARK  14 active torsions:
REMARK  status: ('A' for Active; 'I' for Inactive)
REMARK    1  A    between atoms: C_1  and  C_2
REMARK    2  A    between atoms: C_2  and  O_3
REMARK    3  A    between atoms: O_3  and  C_4
REMARK    4  A    between atoms: C_4  and  C_6
REMARK    5  A    between atoms: C_10  and  N_11
REMARK    6  A    between atoms: C_12  and  C_14
REMARK    7  A    between atoms: N_16  and  N_17
REMARK    8  A    between atoms: C_18  and  C_19
REMARK    9  A    between atoms: C_21  and  O_29
REMARK   10  A    between atoms: C_22  and  O_27
REMARK   11  A    between atoms: C_24  and  O_25
REMARK   12  A    between atoms: O_25  and  C_26
REMARK   13  A    between atoms: O_27  and  C_28
REMARK   14  A    between atoms: O_29  and  C_30
REMARK                            x       y       z     vdW  Elec       q    Type
REMARK                         _______ _______ _______ _____ _____    ______ ____
ROOT
ATOM      1  N   UNL     1       0.183  12.430  -0.534  0.00  0.00    -0.271 N 
ATOM      2  C   UNL     1      -0.331  11.596   0.391  0.00  0.00    +0.305 C 
ATOM      3  O   UNL     1      -0.889  12.047   1.371  0.00  0.00    -0.265 OA
ATOM      4  H   UNL     1       0.688  12.022  -1.422  0.00  0.00    +0.156 HD
ENDROOT
BRANCH   1   9
ATOM      5  C   UNL     1       0.543  14.809  -1.200  0.00  0.00    +0.091 A 
ATOM      6  C   UNL     1       0.295  16.182  -0.793  0.00  0.00    -0.021 A 
ATOM      7  C   UNL     1      -0.366  16.325   0.377  0.00  0.00    -0.004 A 
ATOM      8  S   UNL     1      -0.665  14.671   0.933  0.00  0.00    -0.077 S 
ATOM      9  C   UNL     1       0.076  13.799  -0.368  0.00  0.00    +0.087 A 
ATOM     10  C   UNL     1      -0.753  17.608   1.045  0.00  0.00    +0.043 C 
ATOM     11  C   UNL     1       0.040  18.750   0.393  0.00  0.00    +0.005 C 
ATOM     12  C   UNL     1      -0.061  18.615  -1.129  0.00  0.00    +0.005 C 
ATOM     13  C   UNL     1       0.738  17.398  -1.597  0.00  0.00    +0.037 C 
BRANCH   5  14
ATOM     14  C   UNL     1       1.255  14.502  -2.442  0.00  0.00    +0.342 C 
ATOM     15  O   UNL     1       0.636  14.367  -3.481  0.00  0.00    -0.245 OA
BRANCH  14  16
ATOM     16  O   UNL     1       2.597  14.369  -2.435  0.00  0.00    -0.461 OA
BRANCH  16  18
ATOM     17  C   UNL     1       4.748  13.951  -3.498  0.00  0.00    +0.048 C 
ATOM     18  C   UNL     1       3.236  14.064  -3.703  0.00  0.00    +0.229 C 
ENDBRANCH  16  18
ENDBRANCH  14  16
ENDBRANCH   5  14
ENDBRANCH   1   9
BRANCH   2  19
ATOM     19  C   UNL     1      -0.216  10.121   0.212  0.00  0.00    +0.318 C 
ATOM     20  O   UNL     1       0.341   9.671  -0.769  0.00  0.00    -0.263 OA
ATOM     21  N   UNL     1      -0.731   9.288   1.137  0.00  0.00    -0.199 N 
ATOM     22  H   UNL     1      -1.236   9.696   2.025  0.00  0.00    +0.178 HD
BRANCH  21  23
ATOM     23  N   UNL     1      -0.623   7.901   0.968  0.00  0.00    -0.187 NA
ATOM     24  C   UNL     1      -1.119   7.097   1.861  0.00  0.00    +0.142 C 
BRANCH  24  25
ATOM     25  C   UNL     1      -1.005   5.640   1.684  0.00  0.00    +0.040 A 
ATOM     26  C   UNL     1      -1.538   4.773   2.643  0.00  0.00    +0.062 A 
ATOM     27  C   UNL     1      -1.429   3.407   2.472  0.00  0.00    +0.162 A 
ATOM     28  C   UNL     1      -0.787   2.892   1.346  0.00  0.00    +0.165 A 
ATOM     29  C   UNL     1      -0.252   3.746   0.395  0.00  0.00    +0.095 A 
ATOM     30  C   UNL     1      -0.362   5.117   0.553  0.00  0.00    +0.132 A 
BRANCH  30  31
ATOM     31  O   UNL     1       0.159   5.954  -0.382  0.00  0.00    -0.494 OA
ATOM     32  C   UNL     1       0.800   5.351  -1.507  0.00  0.00    +0.277 C 
ENDBRANCH  30  31
BRANCH  28  33
ATOM     33  O   UNL     1      -0.682   1.547   1.184  0.00  0.00    -0.491 OA
ATOM     34  C   UNL     1      -0.013   1.086   0.008  0.00  0.00    +0.277 C 
ENDBRANCH  28  33
BRANCH  27  35
ATOM     35  O   UNL     1      -1.947   2.562   3.404  0.00  0.00    -0.491 OA
ATOM     36  C   UNL     1      -2.591   3.158   4.533  0.00  0.00    +0.277 C 
ENDBRANCH  27  35
ENDBRANCH  24  25
ENDBRANCH  21  23
ENDBRANCH   2  19
TORSDOF 10
