REMARK  Name = ZINC15787796
REMARK  11 active torsions:
REMARK  status: ('A' for Active; 'I' for Inactive)
REMARK    1  A    between atoms: C_1  and  N_51
REMARK    2  A    between atoms: C_2  and  N_51
REMARK    3  A    between atoms: C_3  and  C_5
REMARK    4  A    between atoms: C_3  and  C_22
REMARK    5  A    between atoms: C_3  and  N_51
REMARK    6  A    between atoms: C_5  and  N_6
REMARK    7  A    between atoms: C_7  and  C_9
REMARK    8  A    between atoms: C_9  and  C_10
REMARK    9  A    between atoms: C_10  and  N_11
REMARK   10  A    between atoms: N_11  and  S_12
REMARK   11  A    between atoms: S_12  and  C_15
REMARK                            x       y       z     vdW  Elec       q    Type
REMARK                         _______ _______ _______ _____ _____    ______ ____
ROOT
ATOM      1  N   UNL     1      -2.536   6.105  -4.340  0.00  0.00    -0.317 N 
ATOM      2  C   UNL     1      -2.199   6.023  -3.038  0.00  0.00    +0.214 C 
ATOM      3  O   UNL     1      -1.940   7.030  -2.414  0.00  0.00    -0.276 OA
ATOM      4  H   UNL     1      -2.743   5.299  -4.839  0.00  0.00    +0.149 HD
ENDROOT
BRANCH   1   5
ATOM      5  C   UNL     1      -2.590   7.411  -5.002  0.00  0.00    +0.093 C 
BRANCH   5   6
ATOM      6  C   UNL     1      -2.897   7.217  -6.489  0.00  0.00    -0.020 C 
BRANCH   6   7
ATOM      7  C   UNL     1      -4.290   6.664  -6.646  0.00  0.00    -0.041 A 
ATOM      8  C   UNL     1      -4.483   5.301  -6.773  0.00  0.00    +0.003 A 
ATOM      9  C   UNL     1      -5.761   4.794  -6.913  0.00  0.00    +0.000 A 
ATOM     10  C   UNL     1      -6.846   5.650  -6.937  0.00  0.00    +0.001 A 
ATOM     11  C   UNL     1      -6.654   7.013  -6.816  0.00  0.00    +0.020 A 
ATOM     12  C   UNL     1      -5.375   7.521  -6.671  0.00  0.00    +0.043 A 
ATOM     13 CL   UNL     1      -5.133   9.233  -6.519  0.00  0.00    -0.083 Cl
ENDBRANCH   6   7
BRANCH   6  16
ATOM     14  C   UNL     1      -2.086   6.193  -8.528  0.00  0.00    -0.096 C 
ATOM     15  C   UNL     1      -0.553   6.648  -6.709  0.00  0.00    -0.096 C 
ATOM     16  N   UNL     1      -1.934   6.251  -7.059  0.00  0.00    +0.382 N 
ATOM     17  H   UNL     1      -2.123   5.321  -6.667  0.00  0.00    -0.082 HD
ENDBRANCH   6  16
ENDBRANCH   5   6
ENDBRANCH   1   5
BRANCH   2  18
ATOM     18  C   UNL     1      -2.143   4.680  -2.357  0.00  0.00    +0.112 C 
BRANCH  18  19
ATOM     19  C   UNL     1      -1.738   4.866  -0.894  0.00  0.00    +0.115 C 
BRANCH  19  20
ATOM     20  N   UNL     1      -1.684   3.560  -0.232  0.00  0.00    -0.189 NA
ATOM     21  H   UNL     1      -2.093   2.787  -0.651  0.00  0.00    +0.148 HD
BRANCH  20  22
ATOM     22  S   UNL     1      -0.925   3.405   1.232  0.00  0.00    +0.058 S 
ATOM     23  O   UNL     1      -1.065   2.045   1.619  0.00  0.00    -0.153 OA
ATOM     24  O   UNL     1       0.342   4.034   1.101  0.00  0.00    -0.153 OA
BRANCH  22  25
ATOM     25  C   UNL     1      -1.842   4.357   2.398  0.00  0.00    +0.105 A 
ATOM     26  C   UNL     1      -1.521   5.685   2.610  0.00  0.00    +0.029 A 
ATOM     27  C   UNL     1      -2.243   6.433   3.521  0.00  0.00    +0.017 A 
ATOM     28  C   UNL     1      -3.279   5.850   4.228  0.00  0.00    +0.018 A 
ATOM     29  C   UNL     1      -3.596   4.520   4.019  0.00  0.00    +0.017 A 
ATOM     30  C   UNL     1      -2.877   3.774   3.104  0.00  0.00    +0.029 A 
ATOM     31 BR   UNL     1      -4.262   6.872   5.479  0.00  0.00    -0.050 Br
ENDBRANCH  22  25
ENDBRANCH  20  22
ENDBRANCH  19  20
ENDBRANCH  18  19
ENDBRANCH   2  18
TORSDOF 9
