REMARK  Name = ZINC39742339
REMARK  11 active torsions:
REMARK  status: ('A' for Active; 'I' for Inactive)
REMARK    1  A    between atoms: C_1  and  C_2
REMARK    2  A    between atoms: C_2  and  N_3
REMARK    3  A    between atoms: C_4  and  CA_20
REMARK    4  A    between atoms: C_7  and  S_8
REMARK    5  A    between atoms: S_8  and  C_9
REMARK    6  A    between atoms: C_9  and  C_11
REMARK    7  A    between atoms: C_9  and  C_12
REMARK    8  A    between atoms: CA_20  and  C_22
REMARK    9  A    between atoms: CA_20  and  N_24
REMARK   10  A    between atoms: C_22  and  O_23
REMARK   11  A    between atoms: C_25  and  C_27
REMARK                            x       y       z     vdW  Elec       q    Type
REMARK                         _______ _______ _______ _____ _____    ______ ____
ROOT
ATOM      1  N   UNL     1       0.711  -0.489   1.189  0.00  0.00    -0.305 N 
ATOM      2  C   UNL     1       2.050  -0.742   1.306  0.00  0.00    +0.157 A 
ATOM      3  N   UNL     1       2.262  -1.156   2.523  0.00  0.00    -0.131 NA
ATOM      4  N   UNL     1       1.157  -1.182   3.179  0.00  0.00    -0.122 NA
ATOM      5  C   UNL     1       0.172  -0.778   2.410  0.00  0.00    +0.192 A 
ENDROOT
BRANCH   1   7
ATOM      6  C   UNL     1      -0.019   1.526   0.010  0.00  0.00    +0.027 C 
ATOM      7  C   UNL     1       0.002  -0.004   0.002  0.00  0.00    +0.122 C 
ENDBRANCH   1   7
BRANCH   5   8
ATOM      8  S   UNL     1      -1.524  -0.637   2.867  0.00  0.00    -0.074 S 
BRANCH   8   9
ATOM      9  C   UNL     1      -1.557  -1.169   4.601  0.00  0.00    +0.137 C 
ATOM     10  C   UNL     1      -1.169  -2.646   4.689  0.00  0.00    +0.029 C 
BRANCH   9  11
ATOM     11  C   UNL     1      -2.944  -0.979   5.158  0.00  0.00    +0.232 C 
ATOM     12  O   UNL     1      -3.901  -0.976   4.414  0.00  0.00    -0.274 OA
ATOM     13  N   UNL     1      -3.121  -0.813   6.484  0.00  0.00    -0.264 N 
ATOM     14  C   UNL     1      -4.400  -0.638   6.998  0.00  0.00    +0.164 A 
ATOM     15  N   UNL     1      -5.545  -0.613   6.350  0.00  0.00    -0.233 NA
ATOM     16  C   UNL     1      -6.687  -0.436   6.989  0.00  0.00    +0.120 A 
ATOM     17  C   UNL     1      -6.623  -0.283   8.334  0.00  0.00    +0.068 A 
ATOM     18  S   UNL     1      -4.862  -0.415   8.601  0.00  0.00    -0.061 S 
ATOM     19  H   UNL     1      -2.355  -0.816   7.079  0.00  0.00    +0.157 HD
ENDBRANCH   9  11
ENDBRANCH   8   9
ENDBRANCH   5   8
BRANCH   2  20
ATOM     20  CA  UNL     1       3.088  -0.573   0.226  0.00  0.00    +0.167 C 
BRANCH  20  21
ATOM     21  N   UNL     1       4.265   0.099   0.781  0.00  0.00    -0.299 N 
ATOM     22  C   UNL     1       5.085   0.800  -0.027  0.00  0.00    +0.245 C 
ATOM     23  O   UNL     1       4.847   0.874  -1.217  0.00  0.00    -0.270 OA
ATOM     24  H   UNL     1       4.455   0.039   1.731  0.00  0.00    +0.150 HD
BRANCH  22  25
ATOM     25  C   UNL     1       6.272   1.478   0.533  0.00  0.00    +0.037 A 
ATOM     26  C   UNL     1       6.551   1.389   1.898  0.00  0.00    +0.014 A 
ATOM     27  C   UNL     1       7.661   2.023   2.415  0.00  0.00    +0.021 A 
ATOM     28  C   UNL     1       8.499   2.747   1.583  0.00  0.00    +0.041 A 
ATOM     29  C   UNL     1       8.227   2.839   0.228  0.00  0.00    +0.021 A 
ATOM     30  C   UNL     1       7.123   2.204  -0.302  0.00  0.00    +0.014 A 
ATOM     31 CL   UNL     1       9.893   3.544   2.241  0.00  0.00    -0.084 Cl
ENDBRANCH  22  25
ENDBRANCH  20  21
BRANCH  20  32
ATOM     32  C   UNL     1       3.491  -1.947  -0.313  0.00  0.00    +0.186 C 
BRANCH  32  33
ATOM     33  O   UNL     1       3.924  -2.775   0.769  0.00  0.00    -0.393 OA
ATOM     34  H   UNL     1       4.195  -3.663   0.501  0.00  0.00    +0.209 HD
ENDBRANCH  32  33
ENDBRANCH  20  32
ENDBRANCH   2  20
TORSDOF 9
