REMARK  Name = ZINC39691003
REMARK  6 active torsions:
REMARK  status: ('A' for Active; 'I' for Inactive)
REMARK    1  A    between atoms: C_1  and  C_2
REMARK    2  A    between atoms: C_2  and  C_4
REMARK    3  A    between atoms: C_4  and  N_5
REMARK    4  A    between atoms: C_6  and  C_8
REMARK    5  A    between atoms: C_19  and  C_21
REMARK    6  A    between atoms: C_24  and  C_26
REMARK                            x       y       z     vdW  Elec       q    Type
REMARK                         _______ _______ _______ _____ _____    ______ ____
ROOT
ATOM      1  C   UNL     1      -3.389  -1.748   3.062  0.00  0.00    +0.100 C 
ATOM      2  C   UNL     1      -3.574  -0.365   3.725  0.00  0.00    +0.121 C 
ATOM      3  N   UNL     1      -5.010  -0.049   3.537  0.00  0.00    -0.294 N 
ATOM      4  C   UNL     1      -5.703  -1.342   3.751  0.00  0.00    +0.115 C 
ATOM      5  C   UNL     1      -4.788  -2.388   3.085  0.00  0.00    -0.004 C 
ATOM      6  C   UNL     1      -4.768  -3.673   3.907  0.00  0.00    -0.010 C 
ATOM      7  C   UNL     1      -6.154  -4.321   3.866  0.00  0.00    -0.082 C 
ATOM      8  N   UNL     1      -6.520  -4.612   2.475  0.00  0.00    +0.379 N 
ATOM      9  C   UNL     1      -6.628  -3.362   1.714  0.00  0.00    -0.082 C 
ATOM     10  C   UNL     1      -5.261  -2.673   1.663  0.00  0.00    -0.010 C 
ATOM     11  C   UNL     1      -5.561   1.144   3.238  0.00  0.00    +0.282 C 
ATOM     12  O   UNL     1      -6.768   1.244   3.115  0.00  0.00    -0.267 OA
ATOM     13  H   UNL     1      -5.813  -5.198   2.058  0.00  0.00    -0.086 HD
ATOM     14  H   UNL     1      -7.407  -5.094   2.455  0.00  0.00    -0.086 HD
ENDROOT
BRANCH  11  15
ATOM     15  C   UNL     1      -4.707   2.321   3.061  0.00  0.00    +0.190 A 
ATOM     16  C   UNL     1      -5.138   3.595   2.761  0.00  0.00    +0.055 A 
ATOM     17  C   UNL     1      -3.997   4.400   2.686  0.00  0.00    +0.051 A 
ATOM     18  C   UNL     1      -2.922   3.597   2.939  0.00  0.00    +0.139 A 
ATOM     19  O   UNL     1      -3.362   2.349   3.169  0.00  0.00    -0.450 OA
BRANCH  18  20
ATOM     20  C   UNL     1      -1.511   4.030   2.962  0.00  0.00    +0.052 A 
ATOM     21  C   UNL     1      -0.989   4.778   1.905  0.00  0.00    +0.014 A 
ATOM     22  C   UNL     1       0.330   5.179   1.933  0.00  0.00    +0.001 A 
ATOM     23  C   UNL     1       1.138   4.843   3.005  0.00  0.00    +0.003 A 
ATOM     24  C   UNL     1       0.630   4.102   4.057  0.00  0.00    +0.039 A 
ATOM     25  C   UNL     1      -0.692   3.698   4.046  0.00  0.00    +0.134 A 
ATOM     26  F   UNL     1      -1.189   2.980   5.077  0.00  0.00    -0.205 F 
ENDBRANCH  18  20
ENDBRANCH  11  15
BRANCH   1  28
ATOM     27  N   UNL     1      -2.159  -2.556   1.073  0.00  0.00    -0.311 N 
ATOM     28  C   UNL     1      -2.908  -1.590   1.643  0.00  0.00    +0.218 C 
ATOM     29  O   UNL     1      -3.193  -0.594   1.013  0.00  0.00    -0.275 OA
ATOM     30  H   UNL     1      -1.931  -3.353   1.577  0.00  0.00    +0.149 HD
BRANCH  27  31
ATOM     31  C   UNL     1      -1.692  -2.402  -0.306  0.00  0.00    +0.134 C 
BRANCH  31  33
ATOM     32  C   UNL     1       0.585  -3.678  -0.363  0.00  0.00    +0.040 C 
ATOM     33  C   UNL     1      -0.882  -3.611  -0.700  0.00  0.00    -0.063 C 
ATOM     34  C   UNL     1      -1.454  -4.603  -1.336  0.00  0.00    +0.009 C 
ENDBRANCH  31  33
ENDBRANCH  27  31
ENDBRANCH   1  28
TORSDOF 5
