REMARK  Name = ZINC63907615
REMARK  8 active torsions:
REMARK  status: ('A' for Active; 'I' for Inactive)
REMARK    1  A    between atoms: C_4  and  S_7
REMARK    2  A    between atoms: S_7  and  N_10
REMARK    3  A    between atoms: N_10  and  C_11
REMARK    4  A    between atoms: C_15  and  C_17
REMARK    5  A    between atoms: C_17  and  O_19
REMARK    6  A    between atoms: O_19  and  C_20
REMARK    7  A    between atoms: C_20  and  C_21
REMARK    8  A    between atoms: C_21  and  C_23
REMARK                            x       y       z     vdW  Elec       q    Type
REMARK                         _______ _______ _______ _____ _____    ______ ____
ROOT
ATOM      1  C   UNL     1       3.438  -1.982   2.292  0.00  0.00    +0.049 A 
ATOM      2  C   UNL     1       2.063  -1.995   2.087  0.00  0.00    +0.024 A 
ATOM      3  C   UNL     1       1.261  -2.862   2.805  0.00  0.00    +0.003 A 
ATOM      4  C   UNL     1       1.819  -3.720   3.730  0.00  0.00    +0.015 A 
ATOM      5  C   UNL     1       3.199  -3.715   3.943  0.00  0.00    +0.061 A 
ATOM      6  C   UNL     1       4.010  -2.844   3.215  0.00  0.00    +0.039 A 
ENDROOT
BRANCH   1   7
ATOM      7  N   UNL     1       4.245  -1.104   1.563  0.00  0.00    -0.216 N 
ATOM      8  H   UNL     1       4.611  -0.314   1.990  0.00  0.00    +0.174 HD
BRANCH   7   9
ATOM      9  S   UNL     1       4.576  -1.413  -0.030  0.00  0.00    +0.072 S 
ATOM     10  O   UNL     1       5.456  -0.387  -0.468  0.00  0.00    -0.150 OA
ATOM     11  O   UNL     1       3.329  -1.668  -0.662  0.00  0.00    -0.150 OA
BRANCH   9  15
ATOM     12  C   UNL     1       6.920  -5.282  -0.186  0.00  0.00    +0.000 A 
ATOM     13  C   UNL     1       5.550  -5.297  -0.366  0.00  0.00    +0.002 A 
ATOM     14  C   UNL     1       4.834  -4.115  -0.318  0.00  0.00    +0.029 A 
ATOM     15  C   UNL     1       5.488  -2.919  -0.090  0.00  0.00    +0.108 A 
ATOM     16  C   UNL     1       6.859  -2.905   0.091  0.00  0.00    +0.029 A 
ATOM     17  C   UNL     1       7.575  -4.086   0.041  0.00  0.00    +0.002 A 
ENDBRANCH   9  15
ENDBRANCH   7   9
ENDBRANCH   1   7
BRANCH   5  18
ATOM     18  C   UNL     1       3.799  -4.633   4.934  0.00  0.00    +0.340 C 
ATOM     19  O   UNL     1       5.000  -4.627   5.118  0.00  0.00    -0.245 OA
BRANCH  18  20
ATOM     20  O   UNL     1       3.015  -5.476   5.633  0.00  0.00    -0.453 OA
BRANCH  20  21
ATOM     21  C   UNL     1       3.663  -6.335   6.574  0.00  0.00    +0.311 C 
BRANCH  21  22
ATOM     22  C   UNL     1       2.634  -7.200   7.255  0.00  0.00    +0.199 C 
ATOM     23  O   UNL     1       1.460  -7.091   6.964  0.00  0.00    -0.289 OA
BRANCH  22  24
ATOM     24  C   UNL     1       3.034  -8.136   8.232  0.00  0.00    +0.026 C 
ATOM     25  C   UNL     1       2.224  -9.002   8.943  0.00  0.00    +0.006 A 
ATOM     26  C   UNL     1       0.828  -9.235   8.940  0.00  0.00    +0.010 A 
ATOM     27  C   UNL     1       0.291 -10.167   9.759  0.00  0.00    +0.001 A 
ATOM     28  C   UNL     1       1.070 -10.938  10.637  0.00  0.00    +0.002 A 
ATOM     29  C   UNL     1       2.410 -10.794  10.717  0.00  0.00    +0.026 A 
ATOM     30  C   UNL     1       3.076  -9.800   9.858  0.00  0.00    +0.043 A 
ATOM     31  N   UNL     1       4.326  -9.459   9.732  0.00  0.00    -0.380 N 
ATOM     32  C   UNL     1       4.442  -8.406   8.718  0.00  0.00    +0.152 C 
ATOM     33  H   UNL     1       5.066  -9.843  10.228  0.00  0.00    +0.160 HD
ENDBRANCH  22  24
ENDBRANCH  21  22
ENDBRANCH  20  21
ENDBRANCH  18  20
ENDBRANCH   5  18
TORSDOF 8
