REMARK  Name = ZINC23608025
REMARK  6 active torsions:
REMARK  status: ('A' for Active; 'I' for Inactive)
REMARK    1  A    between atoms: C_1  and  N_2
REMARK    2  A    between atoms: C_11  and  C_13
REMARK    3  A    between atoms: C_13  and  C_15
REMARK    4  A    between atoms: C_13  and  N_22
REMARK    5  A    between atoms: C_15  and  C_16
REMARK    6  A    between atoms: C_23  and  C_25
REMARK                            x       y       z     vdW  Elec       q    Type
REMARK                         _______ _______ _______ _____ _____    ______ ____
ROOT
ATOM      1  C   UNL     1       2.061  -7.746   2.966  0.00  0.00    +0.164 C 
ENDROOT
BRANCH   1  12
ATOM      2  C   UNL     1      -0.018   1.465   0.010  0.00  0.00    +0.105 C 
ATOM      3  N   UNL     1       0.002  -0.004   0.002  0.00  0.00    -0.300 NA
ATOM      4  C   UNL     1      -1.362  -0.549   0.020  0.00  0.00    +0.090 C 
ATOM      5  C   UNL     1      -1.348  -2.033  -0.362  0.00  0.00    +0.071 C 
ATOM      6  C   UNL     1      -0.326  -2.738   0.518  0.00  0.00    +0.056 A 
ATOM      7  C   UNL     1       0.616  -2.008   1.173  0.00  0.00    +0.028 A 
ATOM      8  S   UNL     1       1.533  -3.250   2.037  0.00  0.00    -0.055 S 
ATOM      9  C   UNL     1       0.655  -4.585   1.500  0.00  0.00    +0.165 A 
ATOM     10  N   UNL     1      -0.259  -4.049   0.721  0.00  0.00    -0.229 NA
ATOM     11  N   UNL     1       0.850  -5.927   1.806  0.00  0.00    -0.263 N 
ATOM     12  C   UNL     1       1.849  -6.291   2.634  0.00  0.00    +0.239 C 
ATOM     13  O   UNL     1       2.579  -5.448   3.111  0.00  0.00    -0.273 OA
ATOM     14  C   UNL     1       0.790  -0.529   1.135  0.00  0.00    +0.128 C 
ATOM     15  H   UNL     1       0.266  -6.601   1.425  0.00  0.00    +0.157 HD
ENDBRANCH   1  12
BRANCH   1  16
ATOM     16  N   UNL     1       3.426  -7.941   3.458  0.00  0.00    -0.299 N 
ATOM     17  C   UNL     1       3.844  -7.291   4.562  0.00  0.00    +0.251 C 
ATOM     18  O   UNL     1       3.086  -6.542   5.151  0.00  0.00    -0.270 OA
ATOM     19  H   UNL     1       4.030  -8.538   2.989  0.00  0.00    +0.150 HD
BRANCH  17  20
ATOM     20  C   UNL     1       5.210  -7.487   5.055  0.00  0.00    +0.074 A 
ATOM     21  C   UNL     1       5.829  -6.925   6.162  0.00  0.00    +0.021 A 
ATOM     22  C   UNL     1       7.134  -7.303   6.372  0.00  0.00    +0.008 A 
ATOM     23  C   UNL     1       7.715  -8.174   5.510  0.00  0.00    +0.046 A 
ATOM     24  S   UNL     1       6.508  -8.514   4.392  0.00  0.00    -0.092 S 
ENDBRANCH  17  20
ENDBRANCH   1  16
BRANCH   1  25
ATOM     25  C   UNL     1       1.063  -8.172   4.045  0.00  0.00    +0.067 C 
BRANCH  25  26
ATOM     26  C   UNL     1       1.191  -9.654   4.289  0.00  0.00    -0.045 A 
ATOM     27  C   UNL     1       0.430 -10.544   3.554  0.00  0.00    +0.004 A 
ATOM     28  C   UNL     1       0.547 -11.903   3.778  0.00  0.00    +0.000 A 
ATOM     29  C   UNL     1       1.425 -12.372   4.737  0.00  0.00    +0.000 A 
ATOM     30  C   UNL     1       2.186 -11.482   5.472  0.00  0.00    +0.000 A 
ATOM     31  C   UNL     1       2.072 -10.123   5.245  0.00  0.00    +0.004 A 
ENDBRANCH  25  26
ENDBRANCH   1  25
TORSDOF 5
