REMARK  Name = ZINC06295217
REMARK  6 active torsions:
REMARK  status: ('A' for Active; 'I' for Inactive)
REMARK    1  A    between atoms: C_1  and  C_2
REMARK    2  A    between atoms: C_4  and  O_20
REMARK    3  A    between atoms: C_7  and  N_8
REMARK    4  A    between atoms: C_9  and  C_10
REMARK    5  A    between atoms: C_11  and  C_16
REMARK    6  A    between atoms: C_14  and  O_15
REMARK                            x       y       z     vdW  Elec       q    Type
REMARK                         _______ _______ _______ _____ _____    ______ ____
ROOT
ATOM      1  N   UNL     1       0.025  -0.034   2.398  0.00  0.00    -0.254 NA
ATOM      2  C   UNL     1       0.685  -0.511   3.417  0.00  0.00    +0.126 C 
ENDROOT
BRANCH   1   9
ATOM      3  C   UNL     1       0.546   1.444   0.029  0.00  0.00    +0.046 C 
ATOM      4  C   UNL     1       0.266  -0.037   0.014  0.00  0.00    -0.022 A 
ATOM      5  C   UNL     1       0.261  -0.726  -1.180  0.00  0.00    +0.050 A 
ATOM      6  C   UNL     1       0.003  -2.090  -1.196  0.00  0.00    +0.117 A 
ATOM      7  C   UNL     1      -0.251  -2.767  -0.010  0.00  0.00    +0.047 A 
ATOM      8  C   UNL     1      -0.248  -2.085   1.188  0.00  0.00    +0.031 A 
ATOM      9  C   UNL     1       0.016  -0.714   1.209  0.00  0.00    +0.067 A 
BRANCH   6  10
ATOM     10  O   UNL     1      -0.001  -2.766  -2.375  0.00  0.00    -0.507 OA
ATOM     11  H   UNL     1       0.862  -3.126  -2.625  0.00  0.00    +0.292 HD
ENDBRANCH   6  10
ENDBRANCH   1   9
BRANCH   2  12
ATOM     12  C   UNL     1       0.599   0.153   4.725  0.00  0.00    +0.088 A 
ATOM     13  C   UNL     1       1.242  -0.232   5.886  0.00  0.00    +0.180 A 
ATOM     14  N   UNL     1       0.895   0.641   6.848  0.00  0.00    -0.141 NA
ATOM     15  N   UNL     1       0.025   1.589   6.298  0.00  0.00    -0.110 NA
ATOM     16  C   UNL     1      -0.156   1.314   5.032  0.00  0.00    +0.243 A 
BRANCH  13  17
ATOM     17  C   UNL     1       2.163  -1.414   6.044  0.00  0.00    +0.437 C 
ATOM     18  F   UNL     1       3.478  -1.019   5.775  0.00  0.00    -0.164 F 
ATOM     19  F   UNL     1       2.081  -1.897   7.355  0.00  0.00    -0.164 F 
ATOM     20  F   UNL     1       1.786  -2.422   5.151  0.00  0.00    -0.164 F 
ENDBRANCH  13  17
BRANCH  16  21
ATOM     21  O   UNL     1      -0.932   2.015   4.165  0.00  0.00    -0.491 OA
ATOM     22  H   UNL     1      -1.850   1.712   4.125  0.00  0.00    +0.294 HD
ENDBRANCH  16  21
ENDBRANCH   2  12
TORSDOF 5
