REMARK  Name = ZINC38799939
REMARK  9 active torsions:
REMARK  status: ('A' for Active; 'I' for Inactive)
REMARK    1  A    between atoms: C_1  and  C_2
REMARK    2  A    between atoms: C_2  and  C_3
REMARK    3  A    between atoms: C_2  and  C_4
REMARK    4  A    between atoms: C_4  and  C_5
REMARK    5  A    between atoms: C_5  and  N_6
REMARK    6  A    between atoms: C_7  and  C_9
REMARK    7  A    between atoms: N_21  and  N_25
REMARK    8  A    between atoms: C_22  and  N_24
REMARK    9  A    between atoms: C_26  and  C_27
REMARK                            x       y       z     vdW  Elec       q    Type
REMARK                         _______ _______ _______ _____ _____    ______ ____
ROOT
ATOM      1  C   UNL     1       4.901  -0.826  -3.674  0.00  0.00    +0.131 C 
ATOM      2  C   UNL     1       5.040  -2.305  -3.961  0.00  0.00    +0.095 A 
ATOM      3  C   UNL     1       6.408  -2.608  -4.048  0.00  0.00    +0.162 A 
ATOM      4  N   UNL     1       6.789  -3.856  -4.295  0.00  0.00    -0.227 NA
ATOM      5  C   UNL     1       5.875  -4.816  -4.460  0.00  0.00    +0.091 A 
ATOM      6  C   UNL     1       6.257  -6.144  -4.722  0.00  0.00    +0.030 A 
ATOM      7  C   UNL     1       5.303  -7.101  -4.884  0.00  0.00    +0.002 A 
ATOM      8  C   UNL     1       3.949  -6.786  -4.795  0.00  0.00    +0.002 A 
ATOM      9  C   UNL     1       3.542  -5.512  -4.543  0.00  0.00    +0.030 A 
ATOM     10  C   UNL     1       4.497  -4.497  -4.370  0.00  0.00    +0.090 A 
ATOM     11  N   UNL     1       4.128  -3.235  -4.120  0.00  0.00    -0.246 NA
ATOM     12  N   UNL     1       7.192  -1.482  -3.848  0.00  0.00    -0.219 N 
ATOM     13  C   UNL     1       6.346  -0.307  -3.606  0.00  0.00    +0.058 C 
ENDROOT
BRANCH   1  15
ATOM     14  N   UNL     1       3.474   0.507  -2.155  0.00  0.00    -0.315 N 
ATOM     15  C   UNL     1       4.202  -0.609  -2.356  0.00  0.00    +0.222 C 
ATOM     16  O   UNL     1       4.295  -1.440  -1.477  0.00  0.00    -0.275 OA
ATOM     17  H   UNL     1       3.400   1.171  -2.858  0.00  0.00    +0.149 HD
BRANCH  14  18
ATOM     18  C   UNL     1       2.795   0.718  -0.874  0.00  0.00    +0.104 C 
BRANCH  18  19
ATOM     19  C   UNL     1       2.045   2.051  -0.908  0.00  0.00    +0.022 C 
BRANCH  19  21
ATOM     20  C   UNL     1       2.377   2.420   1.541  0.00  0.00    +0.007 C 
ATOM     21  C   UNL     1       1.335   2.271   0.430  0.00  0.00    -0.016 C 
ATOM     22  C   UNL     1       0.485   3.541   0.353  0.00  0.00    +0.007 C 
ENDBRANCH  19  21
ENDBRANCH  18  19
ENDBRANCH  14  18
ENDBRANCH   1  15
BRANCH  13  23
ATOM     23  N   UNL     1       6.623   0.255  -2.277  0.00  0.00    +0.392 N 
ATOM     24  H   UNL     1       6.548  -0.473  -1.582  0.00  0.00    -0.087 HD
ATOM     25  H   UNL     1       7.556   0.639  -2.262  0.00  0.00    -0.087 HD
ATOM     26  H   UNL     1       5.956   0.984  -2.075  0.00  0.00    -0.087 HD
ENDBRANCH  13  23
BRANCH  12  27
ATOM     27  N   UNL     1       8.482  -1.468  -3.873  0.00  0.00    -0.188 NA
ATOM     28  C   UNL     1       9.127  -0.329  -3.782  0.00  0.00    +0.136 C 
BRANCH  28  29
ATOM     29  C   UNL     1      10.523  -0.321  -3.699  0.00  0.00    +0.000 C 
ATOM     30  C   UNL     1      11.356   0.794  -3.593  0.00  0.00    +0.004 A 
ATOM     31  C   UNL     1      11.092   2.179  -3.538  0.00  0.00    +0.010 A 
ATOM     32  C   UNL     1      12.123   3.057  -3.432  0.00  0.00    +0.001 A 
ATOM     33  C   UNL     1      13.450   2.624  -3.375  0.00  0.00    +0.002 A 
ATOM     34  C   UNL     1      13.776   1.310  -3.423  0.00  0.00    +0.026 A 
ATOM     35  C   UNL     1      12.752   0.332  -3.533  0.00  0.00    +0.043 A 
ATOM     36  N   UNL     1      12.806  -0.983  -3.596  0.00  0.00    -0.380 N 
ATOM     37  C   UNL     1      11.446  -1.520  -3.698  0.00  0.00    +0.150 C 
ATOM     38  H   UNL     1      13.618  -1.513  -3.575  0.00  0.00    +0.160 HD
ENDBRANCH  28  29
ENDBRANCH  12  27
TORSDOF 7
