REMARK  Name = ZINC41884672
REMARK  8 active torsions:
REMARK  status: ('A' for Active; 'I' for Inactive)
REMARK    1  A    between atoms: C_1  and  C_2
REMARK    2  A    between atoms: C_4  and  C_21
REMARK    3  A    between atoms: C_5  and  C_9
REMARK    4  A    between atoms: C_6  and  C_8
REMARK    5  A    between atoms: C_9  and  C_10
REMARK    6  A    between atoms: C_9  and  C_11
REMARK    7  A    between atoms: C_9  and  N_14
REMARK    8  A    between atoms: C_17  and  C_20
REMARK                            x       y       z     vdW  Elec       q    Type
REMARK                         _______ _______ _______ _____ _____    ______ ____
ROOT
ATOM      1  C   UNL     1       1.378  -3.833  -0.082  0.00  0.00    +0.061 C 
ATOM      2  C   UNL     1       2.358  -3.978  -1.248  0.00  0.00    +0.007 C 
ENDROOT
BRANCH   1   7
ATOM      3  C   UNL     1      -0.024   1.735   0.577  0.00  0.00    +0.044 C 
ATOM      4  C   UNL     1       0.342   0.283   0.405  0.00  0.00    -0.050 A 
ATOM      5  C   UNL     1       0.698  -0.198  -0.841  0.00  0.00    +0.007 A 
ATOM      6  C   UNL     1       1.034  -1.529  -0.999  0.00  0.00    -0.048 A 
ATOM      7  C   UNL     1       1.013  -2.381   0.090  0.00  0.00    -0.042 A 
ATOM      8  C   UNL     1       0.657  -1.900   1.337  0.00  0.00    -0.048 A 
ATOM      9  C   UNL     1       0.326  -0.568   1.495  0.00  0.00    +0.007 A 
ATOM     10  C   UNL     1       0.635  -2.828   2.524  0.00  0.00    +0.044 C 
ATOM     11  C   UNL     1       1.421  -2.053  -2.357  0.00  0.00    +0.044 C 
ENDBRANCH   1   7
BRANCH   1  12
ATOM     12  N   UNL     1       0.165  -4.612  -0.362  0.00  0.00    +0.393 N 
ATOM     13  C   UNL     1      -0.574  -4.029  -1.511  0.00  0.00    -0.077 C 
ATOM     14  C   UNL     1      -2.020  -4.543  -1.345  0.00  0.00    -0.017 C 
ATOM     15  C   UNL     1      -2.162  -4.862   0.158  0.00  0.00    -0.032 C 
ATOM     16  C   UNL     1      -0.789  -4.514   0.773  0.00  0.00    -0.074 C 
ATOM     17  C   UNL     1      -3.260  -3.999   0.783  0.00  0.00    +0.005 C 
ATOM     18  H   UNL     1       0.399  -5.577  -0.543  0.00  0.00    -0.080 HD
ENDBRANCH   1  12
BRANCH   1  19
ATOM     19  C   UNL     1       2.022  -4.342   1.182  0.00  0.00    +0.350 C 
ATOM     20  O   UNL     1       1.578  -5.334   1.735  0.00  0.00    -0.248 OA
ATOM     21  O   UNL     1       2.986  -3.762   1.651  0.00  0.00    -0.248 OA
ENDBRANCH   1  19
TORSDOF 3
