REMARK  Name = ZINC14333193
REMARK  7 active torsions:
REMARK  status: ('A' for Active; 'I' for Inactive)
REMARK    1  A    between atoms: C_1  and  C_2
REMARK    2  A    between atoms: C_4  and  C_8
REMARK    3  A    between atoms: C_5  and  C_7
REMARK    4  A    between atoms: C_10  and  C_18
REMARK    5  A    between atoms: C_12  and  C_17
REMARK    6  A    between atoms: N_20  and  N_21
REMARK    7  A    between atoms: C_22  and  C_24
REMARK                            x       y       z     vdW  Elec       q    Type
REMARK                         _______ _______ _______ _____ _____    ______ ____
ROOT
ATOM      1  C   UNL     1       1.185   1.663  -0.815  0.00  0.00    +0.261 C 
ATOM      2  O   UNL     1       1.130   2.852  -0.565  0.00  0.00    -0.269 OA
ATOM      3  N   UNL     1       0.075   1.005  -1.204  0.00  0.00    -0.230 N 
ATOM      4  H   UNL     1       0.119   0.057  -1.403  0.00  0.00    +0.173 HD
ENDROOT
BRANCH   1   7
ATOM      5  C   UNL     1       3.764  -1.087  -0.693  0.00  0.00    +0.079 A 
ATOM      6  C   UNL     1       2.528  -0.444  -0.817  0.00  0.00    +0.042 A 
ATOM      7  C   UNL     1       2.470   0.939  -0.690  0.00  0.00    +0.054 A 
ATOM      8  C   UNL     1       3.674   1.632  -0.444  0.00  0.00    +0.076 A 
ATOM      9  C   UNL     1       4.013   3.042  -0.261  0.00  0.00    +0.091 A 
ATOM     10  N   UNL     1       5.295   3.110  -0.063  0.00  0.00    -0.080 NA
ATOM     11  O   UNL     1       5.851   1.811  -0.091  0.00  0.00    -0.334 OA
ATOM     12  C   UNL     1       4.875   0.910  -0.328  0.00  0.00    +0.260 A 
ATOM     13  N   UNL     1       4.875  -0.407  -0.457  0.00  0.00    -0.210 NA
ATOM     14  C   UNL     1       3.052   4.202  -0.295  0.00  0.00    +0.070 C 
BRANCH   5  18
ATOM     15  C   UNL     1       2.489  -5.988  -1.373  0.00  0.00    +0.086 C 
ATOM     16  C   UNL     1       3.251  -4.710  -1.130  0.00  0.00    +0.103 A 
ATOM     17  C   UNL     1       2.716  -3.479  -1.089  0.00  0.00    +0.054 A 
ATOM     18  C   UNL     1       3.831  -2.561  -0.828  0.00  0.00    +0.041 A 
ATOM     19  C   UNL     1       4.940  -3.344  -0.742  0.00  0.00    +0.111 A 
ATOM     20  O   UNL     1       4.573  -4.620  -0.920  0.00  0.00    -0.464 OA
ATOM     21  C   UNL     1       6.344  -2.858  -0.488  0.00  0.00    +0.087 C 
ENDBRANCH   5  18
ENDBRANCH   1   7
BRANCH   3  22
ATOM     22  N   UNL     1      -1.140   1.692  -1.328  0.00  0.00    -0.234 N 
ATOM     23  C   UNL     1      -2.248   1.034  -1.723  0.00  0.00    +0.235 C 
ATOM     24  O   UNL     1      -2.193  -0.151  -1.972  0.00  0.00    -0.274 OA
ATOM     25  H   UNL     1      -1.183   2.640  -1.129  0.00  0.00    +0.173 HD
BRANCH  23  26
ATOM     26  C   UNL     1      -3.555   1.773  -1.856  0.00  0.00    +0.049 C 
ATOM     27  C   UNL     1      -3.943   2.370  -0.502  0.00  0.00    +0.019 C 
ATOM     28  C   UNL     1      -5.270   3.120  -0.637  0.00  0.00    -0.009 C 
ATOM     29  C   UNL     1      -6.359   2.150  -1.097  0.00  0.00    +0.007 C 
ATOM     30  C   UNL     1      -5.971   1.552  -2.451  0.00  0.00    -0.009 C 
ATOM     31  C   UNL     1      -4.645   0.802  -2.316  0.00  0.00    +0.019 C 
ATOM     32  C   UNL     1      -5.821   2.675  -3.479  0.00  0.00    +0.007 C 
ATOM     33  C   UNL     1      -4.731   3.645  -3.019  0.00  0.00    -0.009 C 
ATOM     34  C   UNL     1      -5.119   4.243  -1.665  0.00  0.00    +0.007 C 
ATOM     35  C   UNL     1      -3.404   2.895  -2.885  0.00  0.00    +0.019 C 
ENDBRANCH  23  26
ENDBRANCH   3  22
TORSDOF 4
