REMARK  Name = ZINC64587880
REMARK  12 active torsions:
REMARK  status: ('A' for Active; 'I' for Inactive)
REMARK    1  A    between atoms: C_1  and  C_2
REMARK    2  A    between atoms: C_2  and  C_3
REMARK    3  A    between atoms: C_2  and  C_4
REMARK    4  A    between atoms: C_4  and  C_5
REMARK    5  A    between atoms: C_5  and  N_6
REMARK    6  A    between atoms: C_12  and  C_32
REMARK    7  A    between atoms: N_18  and  C_21
REMARK    8  A    between atoms: C_21  and  C_22
REMARK    9  A    between atoms: C_22  and  C_24
REMARK   10  A    between atoms: N_34  and  C_35
REMARK   11  A    between atoms: C_35  and  C_36
REMARK   12  A    between atoms: C_35  and  C_37
REMARK                            x       y       z     vdW  Elec       q    Type
REMARK                         _______ _______ _______ _____ _____    ______ ____
ROOT
ATOM      1  N   UNL     1       2.873  -0.545  -2.413  0.00  0.00    -0.277 N 
ATOM      2  C   UNL     1       3.450  -1.764  -2.413  0.00  0.00    +0.263 A 
ATOM      3  O   UNL     1       3.404  -2.468  -1.423  0.00  0.00    -0.267 OA
ATOM      4  C   UNL     1       4.138  -2.230  -3.634  0.00  0.00    +0.064 A 
ATOM      5  C   UNL     1       4.747  -3.483  -3.681  0.00  0.00    +0.016 A 
ATOM      6  C   UNL     1       5.381  -3.892  -4.833  0.00  0.00    +0.014 A 
ATOM      7  C   UNL     1       5.415  -3.057  -5.953  0.00  0.00    +0.039 A 
ATOM      8  C   UNL     1       4.808  -1.804  -5.912  0.00  0.00    +0.040 A 
ATOM      9  C   UNL     1       4.168  -1.388  -4.755  0.00  0.00    +0.067 A 
ATOM     10  N   UNL     1       3.552  -0.138  -4.689  0.00  0.00    -0.229 N 
ATOM     11  C   UNL     1       2.913   0.267  -3.538  0.00  0.00    +0.240 A 
ATOM     12  N   UNL     1       2.419   1.458  -3.738  0.00  0.00    -0.129 NA
ATOM     13  N   UNL     1       2.732   1.847  -5.047  0.00  0.00    -0.203 N 
ATOM     14  C   UNL     1       3.438   0.845  -5.607  0.00  0.00    +0.353 A 
ATOM     15  O   UNL     1       3.883   0.825  -6.741  0.00  0.00    -0.244 OA
ENDROOT
BRANCH   7  16
ATOM     16  C   UNL     1       6.100  -3.504  -7.187  0.00  0.00    +0.244 C 
ATOM     17  O   UNL     1       6.130  -2.780  -8.162  0.00  0.00    -0.270 OA
ATOM     18  N   UNL     1       6.689  -4.716  -7.229  0.00  0.00    -0.309 N 
ATOM     19  H   UNL     1       6.664  -5.295  -6.451  0.00  0.00    +0.149 HD
BRANCH  18  20
ATOM     20  C   UNL     1       7.366  -5.159  -8.450  0.00  0.00    +0.067 C 
ATOM     21  C   UNL     1       8.799  -4.624  -8.461  0.00  0.00    +0.027 C 
ATOM     22  C   UNL     1       7.391  -6.688  -8.493  0.00  0.00    +0.027 C 
ENDBRANCH  18  20
ENDBRANCH   7  16
BRANCH   1  23
ATOM     23  C   UNL     1       2.187  -0.073  -1.207  0.00  0.00    +0.128 C 
BRANCH  23  24
ATOM     24  C   UNL     1       0.718  -0.497  -1.257  0.00  0.00    +0.025 C 
BRANCH  24  26
ATOM     25  C   UNL     1      -0.019   1.526   0.010  0.00  0.00    +0.007 C 
ATOM     26  C   UNL     1       0.002  -0.004   0.002  0.00  0.00    -0.016 C 
ATOM     27  C   UNL     1      -1.433  -0.534   0.013  0.00  0.00    +0.007 C 
ENDBRANCH  24  26
ENDBRANCH  23  24
ENDBRANCH   1  23
BRANCH  13  28
ATOM     28  C   UNL     1       2.368   3.114  -5.685  0.00  0.00    +0.228 C 
BRANCH  28  29
ATOM     29  C   UNL     1       1.031   2.969  -6.365  0.00  0.00    +0.187 C 
ATOM     30  O   UNL     1       0.440   1.910  -6.321  0.00  0.00    -0.290 OA
BRANCH  29  31
ATOM     31  C   UNL     1       0.444   4.108  -7.081  0.00  0.00    +0.055 A 
ATOM     32  C   UNL     1       1.126   5.330  -7.140  0.00  0.00    +0.017 A 
ATOM     33  C   UNL     1       0.570   6.394  -7.813  0.00  0.00    +0.039 A 
ATOM     34  C   UNL     1      -0.664   6.260  -8.434  0.00  0.00    +0.126 A 
ATOM     35  C   UNL     1      -1.347   5.055  -8.383  0.00  0.00    +0.077 A 
ATOM     36  C   UNL     1      -0.800   3.977  -7.715  0.00  0.00    +0.137 A 
ATOM     37  F   UNL     1      -1.463   2.801  -7.669  0.00  0.00    -0.205 F 
ATOM     38  F   UNL     1      -1.202   7.309  -9.093  0.00  0.00    -0.205 F 
ENDBRANCH  29  31
ENDBRANCH  28  29
ENDBRANCH  13  28
TORSDOF 8
