REMARK  Name = ZINC39666873
REMARK  8 active torsions:
REMARK  status: ('A' for Active; 'I' for Inactive)
REMARK    1  A    between atoms: C_1  and  C_2
REMARK    2  A    between atoms: C_2  and  C_3
REMARK    3  A    between atoms: C_3  and  C_4
REMARK    4  A    between atoms: C_3  and  C_6
REMARK    5  A    between atoms: C_4  and  C_5
REMARK    6  A    between atoms: C_6  and  N_7
REMARK    7  A    between atoms: C_8  and  C_10
REMARK    8  A    between atoms: C_21  and  C_23
REMARK                            x       y       z     vdW  Elec       q    Type
REMARK                         _______ _______ _______ _____ _____    ______ ____
ROOT
ATOM      1  C   UNL     1       1.101  -4.765  -3.714  0.00  0.00    +0.100 C 
ATOM      2  C   UNL     1       0.665  -4.373  -5.144  0.00  0.00    +0.121 C 
ATOM      3  N   UNL     1       0.761  -5.630  -5.923  0.00  0.00    -0.296 N 
ATOM      4  C   UNL     1       0.265  -6.676  -4.997  0.00  0.00    +0.115 C 
ATOM      5  C   UNL     1       0.837  -6.277  -3.622  0.00  0.00    -0.004 C 
ATOM      6  C   UNL     1       2.139  -7.026  -3.354  0.00  0.00    -0.010 C 
ATOM      7  C   UNL     1       1.842  -8.521  -3.210  0.00  0.00    -0.082 C 
ATOM      8  N   UNL     1       0.898  -8.730  -2.106  0.00  0.00    +0.379 N 
ATOM      9  C   UNL     1      -0.384  -8.084  -2.413  0.00  0.00    -0.082 C 
ATOM     10  C   UNL     1      -0.181  -6.570  -2.524  0.00  0.00    -0.010 C 
ATOM     11  C   UNL     1       1.200  -5.786  -7.188  0.00  0.00    +0.248 C 
ATOM     12  O   UNL     1       1.697  -4.847  -7.779  0.00  0.00    -0.270 OA
ATOM     13  H   UNL     1       0.751  -9.720  -1.973  0.00  0.00    -0.086 HD
ATOM     14  H   UNL     1       1.278  -8.333  -1.260  0.00  0.00    -0.086 HD
ENDROOT
BRANCH  11  15
ATOM     15  C   UNL     1       1.079  -7.097  -7.854  0.00  0.00    +0.055 A 
ATOM     16  C   UNL     1       0.169  -8.055  -7.380  0.00  0.00    +0.018 A 
ATOM     17  C   UNL     1       0.089  -9.257  -8.029  0.00  0.00    +0.044 A 
ATOM     18  C   UNL     1       0.907  -9.493  -9.133  0.00  0.00    +0.121 A 
ATOM     19  N   UNL     1       1.758  -8.571  -9.560  0.00  0.00    -0.240 NA
ATOM     20  C   UNL     1       1.862  -7.399  -8.969  0.00  0.00    +0.126 A 
ATOM     21  N   UNL     1       0.829 -10.709  -9.792  0.00  0.00    -0.311 N 
ATOM     22  C   UNL     1       1.823 -11.084 -10.809  0.00  0.00    +0.134 C 
ATOM     23  C   UNL     1       2.351 -12.484 -10.477  0.00  0.00    +0.178 C 
ATOM     24  O   UNL     1       1.246 -13.376 -10.310  0.00  0.00    -0.377 OA
ATOM     25  C   UNL     1       0.379 -13.036  -9.226  0.00  0.00    +0.178 C 
ATOM     26  C   UNL     1      -0.247 -11.666  -9.491  0.00  0.00    +0.134 C 
ENDBRANCH  11  15
BRANCH   1  28
ATOM     27  N   UNL     1       0.804  -3.726  -1.490  0.00  0.00    -0.315 N 
ATOM     28  C   UNL     1       0.276  -4.025  -2.693  0.00  0.00    +0.218 C 
ATOM     29  O   UNL     1      -0.862  -3.699  -2.954  0.00  0.00    -0.275 OA
ATOM     30  H   UNL     1       1.715  -3.987  -1.281  0.00  0.00    +0.149 HD
BRANCH  27  31
ATOM     31  C   UNL     1       0.003  -3.006  -0.496  0.00  0.00    +0.107 C 
BRANCH  31  32
ATOM     32  C   UNL     1       0.784  -2.909   0.816  0.00  0.00    +0.006 C 
BRANCH  32  34
ATOM     33  C   UNL     1       0.848  -1.835   3.071  0.00  0.00    +0.004 C 
ATOM     34  C   UNL     1       0.012  -2.034   1.805  0.00  0.00    +0.002 C 
ENDBRANCH  32  34
BRANCH  32  35
ATOM     35  C   UNL     1       0.965  -4.309   1.406  0.00  0.00    +0.002 C 
ATOM     36  C   UNL     1      -0.406  -4.909   1.726  0.00  0.00    +0.004 C 
ENDBRANCH  32  35
ENDBRANCH  31  32
ENDBRANCH  27  31
ENDBRANCH   1  28
TORSDOF 6
