REMARK  Name = ZINC32830944
REMARK  9 active torsions:
REMARK  status: ('A' for Active; 'I' for Inactive)
REMARK    1  A    between atoms: C_1  and  C_2
REMARK    2  A    between atoms: C_2  and  C_3
REMARK    3  A    between atoms: C_2  and  C_4
REMARK    4  A    between atoms: C_4  and  C_5
REMARK    5  A    between atoms: C_5  and  N_6
REMARK    6  A    between atoms: N_6  and  C_7
REMARK    7  A    between atoms: N_6  and  C_21
REMARK    8  A    between atoms: C_7  and  C_8
REMARK    9  A    between atoms: C_21  and  C_22
REMARK                            x       y       z     vdW  Elec       q    Type
REMARK                         _______ _______ _______ _____ _____    ______ ____
ROOT
ATOM      1  N   UNL     1      -3.248   1.610   0.054  0.00  0.00    +0.389 N 
ATOM      2  H   UNL     1      -3.034   2.341  -0.741  0.00  0.00    -0.081 HD
ENDROOT
BRANCH   1   3
ATOM      3  C   UNL     1      -3.487   2.354   1.298  0.00  0.00    -0.077 C 
BRANCH   3   4
ATOM      4  C   UNL     1      -4.435   3.522   1.019  0.00  0.00    -0.016 C 
BRANCH   4   6
ATOM      5  C   UNL     1      -3.303   4.979   2.704  0.00  0.00    +0.007 C 
ATOM      6  C   UNL     1      -4.631   4.336   2.300  0.00  0.00    -0.019 C 
ATOM      7  C   UNL     1      -5.673   5.429   2.054  0.00  0.00    +0.007 C 
ENDBRANCH   4   6
ENDBRANCH   3   4
ENDBRANCH   1   3
BRANCH   1   8
ATOM      8  C   UNL     1      -2.079   0.730   0.183  0.00  0.00    -0.003 C 
BRANCH   8   9
ATOM      9  C   UNL     1      -0.836   1.566   0.346  0.00  0.00    +0.094 A 
ATOM     10  N   UNL     1       0.356   0.929   0.482  0.00  0.00    -0.312 N 
ATOM     11  H   UNL     1       0.396  -0.171   0.482  0.00  0.00    +0.170 HD
ATOM     12  C   UNL     1       1.504   1.634   0.619  0.00  0.00    +0.259 A 
ATOM     13  O   UNL     1       2.579   1.076   0.737  0.00  0.00    -0.267 OA
ATOM     14  C   UNL     1       1.400   3.100   0.621  0.00  0.00    +0.065 A 
ATOM     15  C   UNL     1       2.520   3.918   0.757  0.00  0.00    +0.017 A 
ATOM     16  C   UNL     1       2.369   5.277   0.754  0.00  0.00    +0.021 A 
ATOM     17  C   UNL     1       1.111   5.852   0.615  0.00  0.00    +0.043 A 
ATOM     18  C   UNL     1      -0.012   5.065   0.478  0.00  0.00    +0.048 A 
ATOM     19  C   UNL     1       0.117   3.675   0.480  0.00  0.00    +0.079 A 
ATOM     20  N   UNL     1      -0.959   2.859   0.350  0.00  0.00    -0.236 NA
ATOM     21 CL   UNL     1       0.953   7.580   0.615  0.00  0.00    -0.083 Cl
ENDBRANCH   8   9
ENDBRANCH   1   8
BRANCH   1  22
ATOM     22  C   UNL     1      -4.439   0.848  -0.342  0.00  0.00    -0.003 C 
BRANCH  22  23
ATOM     23  C   UNL     1      -4.359   0.516  -1.810  0.00  0.00    +0.095 A 
ATOM     24  N   UNL     1      -5.318  -0.284  -2.343  0.00  0.00    -0.197 NA
ATOM     25  C   UNL     1      -5.291  -0.612  -3.656  0.00  0.00    +0.281 A 
ATOM     26  O   UNL     1      -6.145  -1.328  -4.147  0.00  0.00    -0.265 OA
ATOM     27  C   UNL     1      -4.191  -0.070  -4.466  0.00  0.00    +0.065 A 
ATOM     28  C   UNL     1      -4.072  -0.347  -5.827  0.00  0.00    +0.017 A 
ATOM     29  C   UNL     1      -3.029   0.182  -6.536  0.00  0.00    +0.021 A 
ATOM     30  C   UNL     1      -2.087   0.994  -5.914  0.00  0.00    +0.043 A 
ATOM     31  C   UNL     1      -2.183   1.282  -4.569  0.00  0.00    +0.046 A 
ATOM     32  C   UNL     1      -3.239   0.753  -3.825  0.00  0.00    +0.054 A 
ATOM     33  N   UNL     1      -3.378   1.013  -2.501  0.00  0.00    -0.344 N 
ATOM     34 CL   UNL     1      -0.775   1.651  -6.841  0.00  0.00    -0.083 Cl
ATOM     35  H   UNL     1      -2.636   1.662  -2.014  0.00  0.00    +0.167 HD
ENDBRANCH  22  23
ENDBRANCH   1  22
TORSDOF 7
