REMARK  Name = ZINC66930850
REMARK  6 active torsions:
REMARK  status: ('A' for Active; 'I' for Inactive)
REMARK    1  A    between atoms: C_1  and  C_2
REMARK    2  A    between atoms: C_3  and  C_12
REMARK    3  A    between atoms: C_12  and  C_14
REMARK    4  A    between atoms: N_16  and  C_17
REMARK    5  A    between atoms: C_17  and  C_18
REMARK    6  A    between atoms: C_18  and  O_28
REMARK                            x       y       z     vdW  Elec       q    Type
REMARK                         _______ _______ _______ _____ _____    ______ ____
ROOT
ATOM      1  C   UNL     1      -0.100   0.894  -3.003  0.00  0.00    +0.285 C 
ATOM      2  O   UNL     1       0.235   1.726  -2.184  0.00  0.00    -0.267 OA
ATOM      3  N   UNL     1      -0.184   1.228  -4.306  0.00  0.00    -0.306 N 
ATOM      4  H   UNL     1      -0.452   0.565  -4.960  0.00  0.00    +0.149 HD
ENDROOT
BRANCH   1   5
ATOM      5  C   UNL     1      -0.418  -0.496  -2.567  0.00  0.00    +0.249 C 
ATOM      6  O   UNL     1      -0.662  -1.352  -3.396  0.00  0.00    -0.282 OA
BRANCH   5   9
ATOM      7  C   UNL     1      -2.949  -0.516  -0.725  0.00  0.00    +0.064 C 
ATOM      8  C   UNL     1      -1.538  -0.847  -0.309  0.00  0.00    +0.025 A 
ATOM      9  C   UNL     1      -0.437  -0.830  -1.144  0.00  0.00    +0.055 A 
ATOM     10  C   UNL     1       0.717  -1.218  -0.309  0.00  0.00    +0.011 A 
ATOM     11  C   UNL     1       2.076  -1.384  -0.556  0.00  0.00    +0.011 A 
ATOM     12  C   UNL     1       2.914  -1.765   0.470  0.00  0.00    +0.001 A 
ATOM     13  C   UNL     1       2.407  -1.984   1.742  0.00  0.00    +0.002 A 
ATOM     14  C   UNL     1       1.063  -1.824   2.000  0.00  0.00    +0.026 A 
ATOM     15  C   UNL     1       0.201  -1.438   0.978  0.00  0.00    +0.047 A 
ATOM     16  N   UNL     1      -1.158  -1.198   0.932  0.00  0.00    -0.358 N 
ATOM     17  H   UNL     1      -1.757  -1.274   1.692  0.00  0.00    +0.166 HD
ENDBRANCH   5   9
ENDBRANCH   1   5
BRANCH   3  18
ATOM     18  C   UNL     1       0.128   2.594  -4.734  0.00  0.00    +0.144 C 
BRANCH  18  19
ATOM     19  C   UNL     1       0.086   2.673  -6.261  0.00  0.00    +0.107 C 
ATOM     20  C   UNL     1       1.060   1.651  -6.845  0.00  0.00    +0.041 C 
ATOM     21  C   UNL     1       1.166   1.892  -8.355  0.00  0.00    +0.008 C 
ATOM     22  C   UNL     1       1.908   3.207  -8.582  0.00  0.00    +0.035 C 
ATOM     23  C   UNL     1       1.290   4.311  -7.766  0.00  0.00    -0.041 A 
ATOM     24  C   UNL     1       0.456   4.066  -6.697  0.00  0.00    -0.011 A 
ATOM     25  C   UNL     1      -0.076   5.130  -5.982  0.00  0.00    +0.007 A 
ATOM     26  C   UNL     1       0.221   6.431  -6.335  0.00  0.00    +0.000 A 
ATOM     27  C   UNL     1       1.054   6.677  -7.409  0.00  0.00    +0.000 A 
ATOM     28  C   UNL     1       1.586   5.621  -8.120  0.00  0.00    +0.004 A 
BRANCH  19  29
ATOM     29  O   UNL     1      -1.236   2.373  -6.712  0.00  0.00    -0.382 OA
ATOM     30  H   UNL     1      -1.913   2.976  -6.375  0.00  0.00    +0.211 HD
ENDBRANCH  19  29
ENDBRANCH  18  19
ENDBRANCH   3  18
TORSDOF 5
