REMARK  Name = ZINC57855321
REMARK  13 active torsions:
REMARK  status: ('A' for Active; 'I' for Inactive)
REMARK    1  A    between atoms: C_1  and  C_2
REMARK    2  A    between atoms: C_2  and  N_3
REMARK    3  A    between atoms: C_4  and  C_24
REMARK    4  A    between atoms: C_7  and  S_8
REMARK    5  A    between atoms: S_8  and  C_9
REMARK    6  A    between atoms: C_9  and  C_10
REMARK    7  A    between atoms: C_10  and  C_12
REMARK    8  A    between atoms: C_15  and  C_21
REMARK    9  A    between atoms: C_17  and  C_18
REMARK   10  A    between atoms: C_18  and  C_19
REMARK   11  A    between atoms: C_18  and  C_20
REMARK   12  A    between atoms: C_21  and  C_22
REMARK   13  A    between atoms: C_21  and  C_23
REMARK                            x       y       z     vdW  Elec       q    Type
REMARK                         _______ _______ _______ _____ _____    ______ ____
ROOT
ATOM      1  C   UNL     1      -3.053  -1.374   5.045  0.00  0.00    +0.174 C 
ATOM      2  O   UNL     1      -2.393  -0.418   4.696  0.00  0.00    -0.291 OA
ENDROOT
BRANCH   1   3
ATOM      3  C   UNL     1      -3.301  -1.613   6.476  0.00  0.00    +0.022 A 
ATOM      4  C   UNL     1      -2.289  -2.136   7.287  0.00  0.00    +0.012 A 
ATOM      5  C   UNL     1      -2.530  -2.357   8.627  0.00  0.00    +0.004 A 
ATOM      6  C   UNL     1      -3.769  -2.062   9.169  0.00  0.00    -0.044 A 
ATOM      7  C   UNL     1      -4.775  -1.544   8.372  0.00  0.00    +0.008 A 
ATOM      8  C   UNL     1      -4.548  -1.312   7.032  0.00  0.00    -0.034 A 
BRANCH   8   9
ATOM      9  C   UNL     1      -5.644  -0.742   6.168  0.00  0.00    +0.014 C 
ATOM     10  C   UNL     1      -6.831  -1.707   6.147  0.00  0.00    +0.012 C 
ATOM     11  C   UNL     1      -6.092   0.606   6.736  0.00  0.00    +0.012 C 
ENDBRANCH   8   9
BRANCH   6  12
ATOM     12  C   UNL     1      -4.023  -2.306  10.634  0.00  0.00    +0.013 C 
ATOM     13  C   UNL     1      -3.825  -3.791  10.945  0.00  0.00    +0.012 C 
ATOM     14  C   UNL     1      -3.045  -1.475  11.467  0.00  0.00    +0.012 C 
ENDBRANCH   6  12
ENDBRANCH   1   3
BRANCH   1  15
ATOM     15  C   UNL     1      -3.618  -2.317   4.014  0.00  0.00    +0.157 C 
BRANCH  15  16
ATOM     16  S   UNL     1      -3.140  -1.756   2.356  0.00  0.00    -0.078 S 
BRANCH  16  21
ATOM     17  N   UNL     1      -3.792  -2.960  -0.085  0.00  0.00    -0.306 N 
ATOM     18  C   UNL     1      -4.496  -4.062  -0.483  0.00  0.00    +0.137 A 
ATOM     19  N   UNL     1      -4.951  -4.641   0.591  0.00  0.00    -0.133 NA
ATOM     20  N   UNL     1      -4.586  -3.985   1.635  0.00  0.00    -0.122 NA
ATOM     21  C   UNL     1      -3.867  -2.946   1.279  0.00  0.00    +0.192 A 
BRANCH  18  22
ATOM     22  C   UNL     1      -4.706  -4.522  -1.903  0.00  0.00    +0.057 C 
ATOM     23  C   UNL     1      -5.694  -5.667  -2.136  0.00  0.00    +0.012 C 
ATOM     24  C   UNL     1      -4.191  -5.913  -2.279  0.00  0.00    +0.012 C 
ENDBRANCH  18  22
BRANCH  17  26
ATOM     25  C   UNL     1      -1.655  -2.462  -1.165  0.00  0.00    +0.027 C 
ATOM     26  C   UNL     1      -3.095  -1.997  -0.942  0.00  0.00    +0.122 C 
ENDBRANCH  17  26
ENDBRANCH  16  21
ENDBRANCH  15  16
ENDBRANCH   1  15
TORSDOF 8
