REMARK  Name = ZINC12833730
REMARK  7 active torsions:
REMARK  status: ('A' for Active; 'I' for Inactive)
REMARK    1  A    between atoms: C_1  and  C_2
REMARK    2  A    between atoms: C_5  and  C_8
REMARK    3  A    between atoms: N_10  and  N_11
REMARK    4  A    between atoms: C_12  and  C_14
REMARK    5  A    between atoms: C_14  and  S_15
REMARK    6  A    between atoms: S_15  and  C_16
REMARK    7  A    between atoms: C_29  and  C_33
REMARK                            x       y       z     vdW  Elec       q    Type
REMARK                         _______ _______ _______ _____ _____    ______ ____
ROOT
ATOM      1  S   UNL     1       6.202   2.369  -0.044  0.00  0.00    -0.076 S 
ENDROOT
BRANCH   1   2
ATOM      2  C   UNL     1       7.650   1.366  -0.064  0.00  0.00    +0.198 A 
ATOM      3  N   UNL     1       7.689   0.053  -0.071  0.00  0.00    -0.122 NA
ATOM      4  N   UNL     1       8.910  -0.358  -0.085  0.00  0.00    -0.128 NA
ATOM      5  C   UNL     1       9.721   0.671  -0.086  0.00  0.00    +0.173 A 
ATOM      6  N   UNL     1       8.944   1.809  -0.079  0.00  0.00    -0.260 N 
ATOM      7  C   UNL     1       9.523   3.044  -0.073  0.00  0.00    +0.208 A 
ATOM      8  N   UNL     1      10.818   3.187  -0.084  0.00  0.00    -0.230 NA
ATOM      9  C   UNL     1      11.648   2.148  -0.096  0.00  0.00    +0.114 A 
ATOM     10  C   UNL     1      11.193   0.822  -0.098  0.00  0.00    +0.056 A 
ATOM     11  C   UNL     1      12.183  -0.193  -0.110  0.00  0.00    -0.024 A 
ATOM     12  C   UNL     1      13.479   0.194  -0.120  0.00  0.00    -0.004 A 
ATOM     13  S   UNL     1      13.415   1.966  -0.112  0.00  0.00    -0.073 S 
ATOM     14  C   UNL     1      14.692  -0.682  -0.135  0.00  0.00    +0.046 C 
ATOM     15  C   UNL     1      14.255  -2.107  -0.508  0.00  0.00    -0.009 C 
ATOM     16  C   UNL     1      13.036  -2.484   0.339  0.00  0.00    +0.008 C 
ATOM     17  C   UNL     1      11.819  -1.676  -0.113  0.00  0.00    +0.037 C 
ATOM     18  C   UNL     1      15.398  -3.084  -0.226  0.00  0.00    +0.008 C 
ENDBRANCH   1   2
BRANCH   1  19
ATOM     19  C   UNL     1       4.839   1.171  -0.038  0.00  0.00    +0.174 C 
BRANCH  19  21
ATOM     20  N   UNL     1       2.366   1.217  -0.014  0.00  0.00    -0.233 N 
ATOM     21  C   UNL     1       3.524   1.907  -0.021  0.00  0.00    +0.239 C 
ATOM     22  O   UNL     1       3.508   3.119  -0.015  0.00  0.00    -0.273 OA
ATOM     23  H   UNL     1       2.379   0.247  -0.019  0.00  0.00    +0.173 HD
BRANCH  20  26
ATOM     24  C   UNL     1      -0.014   1.211   0.009  0.00  0.00    +0.260 C 
ATOM     25  O   UNL     1       0.002  -0.004   0.002  0.00  0.00    -0.269 OA
ATOM     26  N   UNL     1       1.143   1.901   0.001  0.00  0.00    -0.230 N 
ATOM     27  H   UNL     1       1.130   2.871   0.007  0.00  0.00    +0.173 HD
BRANCH  24  32
ATOM     28  C   UNL     1      -5.037   4.021   0.049  0.00  0.00    +0.044 C 
ATOM     29  C   UNL     1      -3.721   3.285   0.038  0.00  0.00    -0.050 A 
ATOM     30  C   UNL     1      -3.706   1.901   0.030  0.00  0.00    +0.004 A 
ATOM     31  C   UNL     1      -2.506   1.222   0.021  0.00  0.00    +0.013 A 
ATOM     32  C   UNL     1      -1.305   1.933   0.019  0.00  0.00    +0.038 A 
ATOM     33  C   UNL     1      -1.327   3.329   0.032  0.00  0.00    +0.013 A 
ATOM     34  C   UNL     1      -2.534   3.996   0.037  0.00  0.00    +0.004 A 
ENDBRANCH  24  32
ENDBRANCH  20  26
ENDBRANCH  19  21
ENDBRANCH   1  19
TORSDOF 5
