REMARK  Name = ZINC59297186
REMARK  12 active torsions:
REMARK  status: ('A' for Active; 'I' for Inactive)
REMARK    1  A    between atoms: C_1  and  C_2
REMARK    2  A    between atoms: C_2  and  N_3
REMARK    3  A    between atoms: N_3  and  C_4
REMARK    4  A    between atoms: N_3  and  C_6
REMARK    5  A    between atoms: C_4  and  C_5
REMARK    6  A    between atoms: C_6  and  C_8
REMARK    7  A    between atoms: C_6  and  C_12
REMARK    8  A    between atoms: C_8  and  C_9
REMARK    9  A    between atoms: C_9  and  C_10
REMARK   10  A    between atoms: C_9  and  C_11
REMARK   11  A    between atoms: C_12  and  N_13
REMARK   12  A    between atoms: C_20  and  C_22
REMARK                            x       y       z     vdW  Elec       q    Type
REMARK                         _______ _______ _______ _____ _____    ______ ____
ROOT
ATOM      1  N   UNL     1      -1.659   1.859   1.393  0.00  0.00    -0.301 N 
ATOM      2  C   UNL     1      -2.147   3.104   1.566  0.00  0.00    +0.303 C 
ATOM      3  O   UNL     1      -3.334   3.268   1.773  0.00  0.00    -0.253 OA
ATOM      4  N   UNL     1      -1.319   4.166   1.509  0.00  0.00    -0.279 N 
ATOM      5  C   UNL     1       0.112   4.122   1.161  0.00  0.00    +0.110 C 
ATOM      6  C   UNL     1       0.719   5.388   1.817  0.00  0.00    +0.021 C 
ATOM      7  C   UNL     1      -0.423   6.419   1.621  0.00  0.00    +0.029 C 
ATOM      8  C   UNL     1      -1.697   5.561   1.778  0.00  0.00    +0.108 C 
ATOM      9  H   UNL     1      -0.703   1.722   1.301  0.00  0.00    +0.150 HD
ENDROOT
BRANCH   8  10
ATOM     10  C   UNL     1      -2.744   6.008   0.792  0.00  0.00    -0.023 A 
ATOM     11  C   UNL     1      -2.671   5.598  -0.527  0.00  0.00    +0.009 A 
ATOM     12  C   UNL     1      -3.628   6.007  -1.435  0.00  0.00    +0.050 A 
ATOM     13  C   UNL     1      -4.667   6.831  -1.026  0.00  0.00    +0.162 A 
ATOM     14  C   UNL     1      -4.743   7.241   0.300  0.00  0.00    +0.162 A 
ATOM     15  C   UNL     1      -3.780   6.823   1.207  0.00  0.00    +0.055 A 
ATOM     16  O   UNL     1      -5.758   8.042   0.724  0.00  0.00    -0.485 OA
ATOM     17  C   UNL     1      -6.495   8.737  -0.288  0.00  0.00    +0.270 C 
ATOM     18  C   UNL     1      -6.830   7.742  -1.407  0.00  0.00    +0.270 C 
ATOM     19  O   UNL     1      -5.601   7.229  -1.933  0.00  0.00    -0.485 OA
ENDBRANCH   8  10
BRANCH   1  20
ATOM     20  C   UNL     1      -2.571   0.714   1.345  0.00  0.00    +0.090 C 
BRANCH  20  21
ATOM     21  C   UNL     1      -1.777  -0.559   1.045  0.00  0.00    -0.051 C 
BRANCH  21  22
ATOM     22  N   UNL     1      -1.268  -0.506  -0.332  0.00  0.00    +0.382 N 
ATOM     23  H   UNL     1      -1.228  -1.440  -0.712  0.00  0.00    -0.081 HD
BRANCH  22  25
ATOM     24  C   UNL     1      -3.516  -0.386  -1.297  0.00  0.00    -0.017 C 
ATOM     25  C   UNL     1      -2.165   0.318  -1.154  0.00  0.00    -0.082 C 
ENDBRANCH  22  25
BRANCH  22  26
ATOM     26  C   UNL     1       0.077   0.083  -0.335  0.00  0.00    -0.082 C 
ATOM     27  C   UNL     1       1.025  -0.806   0.472  0.00  0.00    -0.017 C 
ENDBRANCH  22  26
ENDBRANCH  21  22
BRANCH  21  28
ATOM     28  C   UNL     1      -2.688  -1.778   1.206  0.00  0.00    -0.011 C 
BRANCH  28  29
ATOM     29  C   UNL     1      -1.874  -3.054   0.986  0.00  0.00    -0.019 C 
ATOM     30  C   UNL     1      -0.836  -3.196   2.102  0.00  0.00    +0.007 C 
ATOM     31  C   UNL     1      -2.810  -4.265   1.004  0.00  0.00    +0.007 C 
ENDBRANCH  28  29
ENDBRANCH  21  28
ENDBRANCH  20  21
ENDBRANCH   1  20
TORSDOF 8
