REMARK  Name = ZINC39965075
REMARK  13 active torsions:
REMARK  status: ('A' for Active; 'I' for Inactive)
REMARK    1  A    between atoms: C_1  and  C_2
REMARK    2  A    between atoms: C_2  and  C_3
REMARK    3  A    between atoms: C_3  and  C_5
REMARK    4  A    between atoms: C_3  and  C_6
REMARK    5  A    between atoms: C_9  and  S_12
REMARK    6  A    between atoms: S_12  and  N_15
REMARK    7  A    between atoms: N_18  and  C_21
REMARK    8  A    between atoms: C_21  and  C_22
REMARK    9  A    between atoms: N_24  and  C_25
REMARK   10  A    between atoms: C_26  and  C_33
REMARK   11  A    between atoms: C_33  and  O_35
REMARK   12  A    between atoms: O_35  and  C_36
REMARK   13  A    between atoms: C_36  and  C_37
REMARK                            x       y       z     vdW  Elec       q    Type
REMARK                         _______ _______ _______ _____ _____    ______ ____
ROOT
ATOM      1  N   UNL     1       0.001  -6.957   1.333  0.00  0.00    -0.174 NA
ATOM      2  C   UNL     1       1.279  -7.212   0.650  0.00  0.00    +0.125 C 
ATOM      3  C   UNL     1       2.367  -6.368   1.323  0.00  0.00    +0.102 C 
ATOM      4  N   UNL     1       2.370  -6.639   2.767  0.00  0.00    -0.291 NA
ATOM      5  C   UNL     1       1.100  -6.237   3.387  0.00  0.00    +0.102 C 
ATOM      6  C   UNL     1      -0.038  -7.069   2.799  0.00  0.00    +0.125 C 
ENDROOT
BRANCH   1   7
ATOM      7  S   UNL     1      -1.355  -6.549   0.475  0.00  0.00    +0.061 S 
ATOM      8  O   UNL     1      -2.469  -6.909   1.281  0.00  0.00    -0.153 OA
ATOM      9  O   UNL     1      -1.171  -7.055  -0.840  0.00  0.00    -0.153 OA
BRANCH   7  13
ATOM     10  C   UNL     1      -1.414  -2.036   0.129  0.00  0.00    -0.044 A 
ATOM     11  C   UNL     1      -0.780  -2.795  -0.837  0.00  0.00    +0.006 A 
ATOM     12  C   UNL     1      -0.762  -4.173  -0.731  0.00  0.00    +0.029 A 
ATOM     13  C   UNL     1      -1.377  -4.792   0.341  0.00  0.00    +0.105 A 
ATOM     14  C   UNL     1      -2.010  -4.033   1.307  0.00  0.00    +0.029 A 
ATOM     15  C   UNL     1      -2.024  -2.655   1.203  0.00  0.00    +0.006 A 
BRANCH  10  16
ATOM     16  C   UNL     1      -1.433  -0.534   0.013  0.00  0.00    +0.016 C 
ATOM     17  C   UNL     1      -2.135  -0.131  -1.286  0.00  0.00    +0.012 C 
BRANCH  16  19
ATOM     18  C   UNL     1      -0.019   1.526   0.010  0.00  0.00    +0.004 C 
ATOM     19  C   UNL     1       0.002  -0.004   0.002  0.00  0.00    +0.004 C 
ENDBRANCH  16  19
ENDBRANCH  10  16
ENDBRANCH   7  13
ENDBRANCH   1   7
BRANCH   4  20
ATOM     20  C   UNL     1       3.508  -5.982   3.424  0.00  0.00    +0.180 C 
BRANCH  20  21
ATOM     21  C   UNL     1       3.622  -6.475   4.843  0.00  0.00    +0.232 C 
ATOM     22  O   UNL     1       2.833  -7.293   5.266  0.00  0.00    -0.274 OA
ATOM     23  N   UNL     1       4.600  -6.007   5.643  0.00  0.00    -0.278 N 
ATOM     24  H   UNL     1       5.231  -5.353   5.304  0.00  0.00    +0.155 HD
BRANCH  23  25
ATOM     25  C   UNL     1       4.705  -6.460   6.948  0.00  0.00    +0.086 A 
ATOM     26  C   UNL     1       5.633  -6.091   7.905  0.00  0.00    +0.091 A 
ATOM     27  C   UNL     1       5.527  -6.723   9.220  0.00  0.00    -0.021 A 
ATOM     28  C   UNL     1       4.515  -7.603   9.325  0.00  0.00    -0.004 A 
ATOM     29  S   UNL     1       3.732  -7.578   7.733  0.00  0.00    -0.077 S 
ATOM     30  C   UNL     1       4.454  -8.225  10.694  0.00  0.00    +0.043 C 
ATOM     31  C   UNL     1       5.836  -7.934  11.318  0.00  0.00    +0.010 C 
ATOM     32  C   UNL     1       6.264  -6.663  10.556  0.00  0.00    +0.037 C 
BRANCH  26  33
ATOM     33  C   UNL     1       6.679  -5.109   7.614  0.00  0.00    +0.342 C 
ATOM     34  O   UNL     1       6.476  -3.926   7.814  0.00  0.00    -0.245 OA
BRANCH  33  35
ATOM     35  O   UNL     1       7.869  -5.515   7.125  0.00  0.00    -0.461 OA
BRANCH  35  36
ATOM     36  C   UNL     1       8.843  -4.503   6.863  0.00  0.00    +0.229 C 
ATOM     37  C   UNL     1      10.117  -5.149   6.317  0.00  0.00    +0.048 C 
ENDBRANCH  35  36
ENDBRANCH  33  35
ENDBRANCH  26  33
ENDBRANCH  23  25
ENDBRANCH  20  21
ENDBRANCH   4  20
TORSDOF 10
