REMARK  Name = ZINC47461218
REMARK  6 active torsions:
REMARK  status: ('A' for Active; 'I' for Inactive)
REMARK    1  A    between atoms: C_6  and  O_11
REMARK    2  A    between atoms: O_11  and  C_12
REMARK    3  A    between atoms: C_12  and  C_13
REMARK    4  A    between atoms: C_13  and  N_14
REMARK    5  A    between atoms: C_17  and  C_22
REMARK    6  A    between atoms: C_22  and  C_23
REMARK                            x       y       z     vdW  Elec       q    Type
REMARK                         _______ _______ _______ _____ _____    ______ ____
ROOT
ATOM      1  N   UNL     1       6.938  -4.255   1.165  0.00  0.00    -0.221 N 
ATOM      2  C   UNL     1       7.646  -3.122   1.342  0.00  0.00    +0.244 C 
ATOM      3  O   UNL     1       7.834  -2.242   0.529  0.00  0.00    -0.273 OA
ATOM      4  C   UNL     1       8.157  -3.176   2.768  0.00  0.00    +0.165 C 
ATOM      5  N   UNL     1       7.629  -4.453   3.277  0.00  0.00    -0.287 N 
ATOM      6  C   UNL     1       6.927  -5.007   2.272  0.00  0.00    +0.309 C 
ATOM      7  O   UNL     1       6.351  -6.074   2.358  0.00  0.00    -0.252 OA
ATOM      8  H   UNL     1       7.758  -4.821   4.165  0.00  0.00    +0.151 HD
ENDROOT
BRANCH   1   9
ATOM      9  C   UNL     1       6.260  -4.616  -0.082  0.00  0.00    +0.159 C 
BRANCH   9  10
ATOM     10  C   UNL     1       4.834  -4.062  -0.065  0.00  0.00    +0.248 C 
BRANCH  10  11
ATOM     11  O   UNL     1       4.878  -2.633  -0.059  0.00  0.00    -0.490 OA
BRANCH  11  17
ATOM     12  C   UNL     1      -0.016   1.357   0.009  0.00  0.00    +0.001 A 
ATOM     13  C   UNL     1       1.169   2.091   0.002  0.00  0.00    +0.001 A 
ATOM     14  C   UNL     1       2.378   1.468  -0.013  0.00  0.00    +0.008 A 
ATOM     15  C   UNL     1       2.437   0.063  -0.021  0.00  0.00    -0.014 A 
ATOM     16  C   UNL     1       3.668  -0.614  -0.037  0.00  0.00    +0.054 A 
ATOM     17  C   UNL     1       3.687  -1.980  -0.044  0.00  0.00    +0.121 A 
ATOM     18  C   UNL     1       2.497  -2.714  -0.036  0.00  0.00    +0.046 A 
ATOM     19  C   UNL     1       1.289  -2.088  -0.022  0.00  0.00    +0.012 A 
ATOM     20  C   UNL     1       1.232  -0.683  -0.013  0.00  0.00    -0.018 A 
ATOM     21  C   UNL     1       0.002  -0.004   0.002  0.00  0.00    +0.008 A 
ENDBRANCH  11  17
ENDBRANCH  10  11
ENDBRANCH   9  10
ENDBRANCH   1   9
BRANCH   4  22
ATOM     22  C   UNL     1       9.687  -3.175   2.791  0.00  0.00    +0.069 C 
BRANCH  22  23
ATOM     23  C   UNL     1      10.167  -3.105   4.218  0.00  0.00    -0.020 A 
ATOM     24  C   UNL     1      10.506  -1.995   4.893  0.00  0.00    +0.087 A 
ATOM     25  N   UNL     1      10.893  -2.322   6.164  0.00  0.00    -0.360 N 
ATOM     26  H   UNL     1      11.182  -1.688   6.839  0.00  0.00    +0.165 HD
ATOM     27  C   UNL     1      10.812  -3.685   6.343  0.00  0.00    +0.047 A 
ATOM     28  C   UNL     1      10.347  -4.234   5.133  0.00  0.00    +0.003 A 
ATOM     29  C   UNL     1      10.160  -5.613   5.022  0.00  0.00    +0.010 A 
ATOM     30  C   UNL     1      10.426  -6.423   6.090  0.00  0.00    +0.001 A 
ATOM     31  C   UNL     1      10.881  -5.885   7.286  0.00  0.00    +0.002 A 
ATOM     32  C   UNL     1      11.081  -4.528   7.415  0.00  0.00    +0.026 A 
ENDBRANCH  22  23
ENDBRANCH   4  22
TORSDOF 6
