REMARK  Name = ZINC34830085
REMARK  7 active torsions:
REMARK  status: ('A' for Active; 'I' for Inactive)
REMARK    1  A    between atoms: C_1  and  C_2
REMARK    2  A    between atoms: C_9  and  C_11
REMARK    3  A    between atoms: C_15  and  N_17
REMARK    4  A    between atoms: C_20  and  C_22
REMARK    5  A    between atoms: C_22  and  C_23
REMARK    6  A    between atoms: C_23  and  N_24
REMARK    7  A    between atoms: C_32  and  C_34
REMARK                            x       y       z     vdW  Elec       q    Type
REMARK                         _______ _______ _______ _____ _____    ______ ____
ROOT
ATOM      1  C   UNL     1       0.059   1.343  -0.132  0.00  0.00    +0.029 C 
ATOM      2  C   UNL     1      -0.417  -0.026   0.357  0.00  0.00    +0.091 C 
ATOM      3  C   UNL     1      -0.269  -1.055  -0.771  0.00  0.00    +0.130 C 
ATOM      4  N   UNL     1      -0.480  -2.398  -0.213  0.00  0.00    -0.298 N 
ATOM      5  C   UNL     1       0.342  -2.828   0.926  0.00  0.00    +0.127 C 
ATOM      6  C   UNL     1       0.195  -1.800   2.054  0.00  0.00    +0.127 C 
ATOM      7  N   UNL     1       0.403  -0.455   1.498  0.00  0.00    -0.292 N 
ATOM      8  C   UNL     1       1.333   0.368   2.023  0.00  0.00    +0.247 C 
ATOM      9  O   UNL     1       1.422   1.514   1.628  0.00  0.00    -0.270 OA
ATOM     10  C   UNL     1      -1.411  -3.220  -0.736  0.00  0.00    +0.214 C 
ATOM     11  O   UNL     1      -2.084  -2.853  -1.676  0.00  0.00    -0.276 OA
ENDROOT
BRANCH   8  12
ATOM     12  C   UNL     1       2.244  -0.123   3.079  0.00  0.00    +0.039 A 
ATOM     13  C   UNL     1       2.663  -1.455   3.079  0.00  0.00    +0.013 A 
ATOM     14  C   UNL     1       3.513  -1.906   4.067  0.00  0.00    +0.003 A 
ATOM     15  C   UNL     1       3.951  -1.043   5.056  0.00  0.00    +0.033 A 
ATOM     16  C   UNL     1       3.539   0.278   5.061  0.00  0.00    +0.127 A 
ATOM     17  C   UNL     1       2.693   0.744   4.075  0.00  0.00    +0.045 A 
BRANCH  16  18
ATOM     18  N   UNL     1       4.012   1.194   6.123  0.00  0.00    +0.056 N 
ATOM     19  O   UNL     1       4.756   0.789   6.984  0.00  0.00    -0.126 OA
ATOM     20  O   UNL     1       3.653   2.349   6.129  0.00  0.00    -0.126 OA
ENDBRANCH  16  18
ENDBRANCH   8  12
BRANCH  10  21
ATOM     21  C   UNL     1      -1.617  -4.594  -0.153  0.00  0.00    +0.077 C 
BRANCH  21  22
ATOM     22  C   UNL     1      -2.723  -5.315  -0.924  0.00  0.00    -0.068 C 
BRANCH  22  23
ATOM     23  N   UNL     1      -2.923  -6.655  -0.356  0.00  0.00    +0.388 N 
ATOM     24  C   UNL     1      -3.394  -6.527   1.030  0.00  0.00    -0.072 C 
ATOM     25  C   UNL     1      -3.284  -7.897   1.721  0.00  0.00    +0.024 C 
ATOM     26  C   UNL     1      -3.874  -8.914   0.800  0.00  0.00    -0.010 A 
ATOM     27  C   UNL     1      -4.176  -8.735  -0.517  0.00  0.00    -0.047 A 
ATOM     28  C   UNL     1      -4.727  -9.827  -1.183  0.00  0.00    +0.010 A 
ATOM     29  C   UNL     1      -4.932 -10.990  -0.521  0.00  0.00    +0.045 A 
ATOM     30  S   UNL     1      -4.343 -10.591   1.119  0.00  0.00    -0.101 S 
ATOM     31  C   UNL     1      -3.900  -7.386  -1.173  0.00  0.00    -0.006 C 
ATOM     32  H   UNL     1      -2.046  -7.153  -0.363  0.00  0.00    -0.080 HD
BRANCH  31  33
ATOM     33  C   UNL     1      -3.341  -7.601  -2.556  0.00  0.00    -0.057 A 
ATOM     34  C   UNL     1      -2.010  -7.935  -2.719  0.00  0.00    +0.002 A 
ATOM     35  C   UNL     1      -1.497  -8.133  -3.988  0.00  0.00    +0.000 A 
ATOM     36  C   UNL     1      -2.316  -7.997  -5.093  0.00  0.00    +0.000 A 
ATOM     37  C   UNL     1      -3.648  -7.664  -4.930  0.00  0.00    +0.000 A 
ATOM     38  C   UNL     1      -4.161  -7.470  -3.661  0.00  0.00    +0.002 A 
ENDBRANCH  31  33
ENDBRANCH  22  23
ENDBRANCH  21  22
ENDBRANCH  10  21
TORSDOF 6
