REMARK  Name = ZINC00875496
REMARK  14 active torsions:
REMARK  status: ('A' for Active; 'I' for Inactive)
REMARK    1  A    between atoms: C_1  and  C_2
REMARK    2  A    between atoms: C_4  and  C_37
REMARK    3  A    between atoms: C_9  and  C_14
REMARK    4  A    between atoms: C_14  and  N_15
REMARK    5  A    between atoms: N_15  and  C_16
REMARK    6  A    between atoms: N_15  and  C_22
REMARK    7  A    between atoms: C_22  and  N_24
REMARK    8  A    between atoms: N_24  and  C_25
REMARK    9  A    between atoms: C_25  and  C_26
REMARK   10  A    between atoms: C_26  and  C_27
REMARK   11  A    between atoms: C_30  and  O_35
REMARK   12  A    between atoms: C_31  and  O_33
REMARK   13  A    between atoms: O_33  and  C_34
REMARK   14  A    between atoms: O_35  and  C_36
REMARK                            x       y       z     vdW  Elec       q    Type
REMARK                         _______ _______ _______ _____ _____    ______ ____
ROOT
ATOM      1  N   UNL     1      -1.469   7.938  -1.353  0.00  0.00    -0.305 N 
ENDROOT
BRANCH   1   2
ATOM      2  C   UNL     1      -2.716   8.210  -2.072  0.00  0.00    +0.075 C 
ATOM      3  C   UNL     1      -2.720   7.441  -3.395  0.00  0.00    +0.022 C 
ATOM      4  C   UNL     1      -4.023   7.724  -4.146  0.00  0.00    +0.002 C 
ATOM      5  C   UNL     1      -4.134   9.224  -4.427  0.00  0.00    +0.000 C 
ATOM      6  C   UNL     1      -4.130   9.993  -3.104  0.00  0.00    +0.002 C 
ATOM      7  C   UNL     1      -2.827   9.709  -2.354  0.00  0.00    +0.022 C 
ENDBRANCH   1   2
BRANCH   1   8
ATOM      8  C   UNL     1      -0.283   8.151  -1.958  0.00  0.00    +0.133 C 
ATOM      9  S   UNL     1       1.171   7.720  -1.164  0.00  0.00    -0.019 S 
BRANCH   8  10
ATOM     10  N   UNL     1      -0.242   8.702  -3.187  0.00  0.00    -0.326 N 
ATOM     11  H   UNL     1      -1.060   9.011  -3.607  0.00  0.00    +0.148 HD
BRANCH  10  12
ATOM     12  C   UNL     1       1.037   8.834  -3.888  0.00  0.00    +0.108 C 
BRANCH  12  13
ATOM     13  C   UNL     1       0.805   9.486  -5.253  0.00  0.00    +0.054 C 
BRANCH  13  14
ATOM     14  C   UNL     1       2.121   9.622  -5.974  0.00  0.00    -0.042 A 
ATOM     15  C   UNL     1       2.878  10.768  -5.819  0.00  0.00    +0.007 A 
ATOM     16  C   UNL     1       4.089  10.895  -6.474  0.00  0.00    +0.049 A 
ATOM     17  C   UNL     1       4.541   9.877  -7.298  0.00  0.00    +0.161 A 
ATOM     18  C   UNL     1       3.776   8.726  -7.460  0.00  0.00    +0.162 A 
ATOM     19  C   UNL     1       2.566   8.602  -6.795  0.00  0.00    +0.053 A 
BRANCH  18  20
ATOM     20  O   UNL     1       4.215   7.723  -8.267  0.00  0.00    -0.491 OA
ATOM     21  C   UNL     1       3.378   6.571  -8.385  0.00  0.00    +0.277 C 
ENDBRANCH  18  20
BRANCH  17  22
ATOM     22  O   UNL     1       5.729  10.002  -7.948  0.00  0.00    -0.491 OA
ATOM     23  C   UNL     1       6.460  11.212  -7.735  0.00  0.00    +0.277 C 
ENDBRANCH  17  22
ENDBRANCH  13  14
ENDBRANCH  12  13
ENDBRANCH  10  12
ENDBRANCH   8  10
ENDBRANCH   1   8
BRANCH   1  24
ATOM     24  C   UNL     1      -1.511   7.436   0.022  0.00  0.00    +0.147 C 
BRANCH  24  33
ATOM     25  C   UNL     1       1.890   0.806   0.345  0.00  0.00    +0.044 C 
ATOM     26  C   UNL     1       0.640   1.637   0.212  0.00  0.00    -0.050 A 
ATOM     27  C   UNL     1      -0.591   1.010   0.068  0.00  0.00    +0.008 A 
ATOM     28  C   UNL     1      -1.746   1.750  -0.060  0.00  0.00    -0.026 A 
ATOM     29  C   UNL     1      -1.683   3.139  -0.035  0.00  0.00    +0.052 A 
ATOM     30  C   UNL     1      -0.434   3.771   0.112  0.00  0.00    -0.001 A 
ATOM     31  C   UNL     1       0.727   3.000   0.235  0.00  0.00    +0.013 A 
ATOM     32  C   UNL     1      -0.377   5.234   0.131  0.00  0.00    +0.020 A 
ATOM     33  C   UNL     1      -1.534   5.929   0.006  0.00  0.00    +0.035 A 
ATOM     34  C   UNL     1      -2.761   5.247  -0.138  0.00  0.00    +0.254 A 
ATOM     35  O   UNL     1      -3.790   5.891  -0.248  0.00  0.00    -0.268 OA
ATOM     36  N   UNL     1      -2.824   3.904  -0.157  0.00  0.00    -0.322 N 
ATOM     37  H   UNL     1      -3.684   3.466  -0.257  0.00  0.00    +0.169 HD
ATOM     38  C   UNL     1      -3.074   1.056  -0.222  0.00  0.00    +0.046 C 
ENDBRANCH  24  33
ENDBRANCH   1  24
TORSDOF 10
