REMARK  Name = ZINC39652788
REMARK  13 active torsions:
REMARK  status: ('A' for Active; 'I' for Inactive)
REMARK    1  A    between atoms: C_1  and  C_2
REMARK    2  A    between atoms: C_2  and  O_3
REMARK    3  A    between atoms: O_3  and  C_4
REMARK    4  A    between atoms: C_9  and  C_10
REMARK    5  A    between atoms: C_10  and  C_11
REMARK    6  A    between atoms: C_11  and  N_12
REMARK    7  A    between atoms: C_13  and  C_15
REMARK    8  A    between atoms: C_26  and  C_28
REMARK    9  A    between atoms: C_28  and  C_30
REMARK   10  A    between atoms: C_28  and  O_33
REMARK   11  A    between atoms: C_30  and  C_31
REMARK   12  A    between atoms: C_30  and  C_32
REMARK   13  A    between atoms: O_33  and  C_34
REMARK                            x       y       z     vdW  Elec       q    Type
REMARK                         _______ _______ _______ _____ _____    ______ ____
ROOT
ATOM      1  C   UNL     1       5.864   1.439  -4.924  0.00  0.00    +0.100 C 
ATOM      2  C   UNL     1       6.072   0.664  -6.244  0.00  0.00    +0.121 C 
ATOM      3  N   UNL     1       7.345   1.189  -6.791  0.00  0.00    -0.297 N 
ATOM      4  C   UNL     1       8.216   1.355  -5.603  0.00  0.00    +0.115 C 
ATOM      5  C   UNL     1       7.274   1.890  -4.505  0.00  0.00    -0.004 C 
ATOM      6  C   UNL     1       7.643   1.286  -3.154  0.00  0.00    -0.010 C 
ATOM      7  C   UNL     1       9.024   1.796  -2.732  0.00  0.00    -0.082 C 
ATOM      8  N   UNL     1       9.002   3.261  -2.646  0.00  0.00    +0.379 N 
ATOM      9  C   UNL     1       8.738   3.836  -3.970  0.00  0.00    -0.082 C 
ATOM     10  C   UNL     1       7.345   3.413  -4.445  0.00  0.00    -0.010 C 
ATOM     11  C   UNL     1       7.644   1.456  -8.078  0.00  0.00    +0.257 C 
ATOM     12  O   UNL     1       8.740   1.886  -8.369  0.00  0.00    -0.272 OA
ATOM     13  H   UNL     1       8.277   3.548  -2.006  0.00  0.00    -0.086 HD
ATOM     14  H   UNL     1       9.894   3.590  -2.309  0.00  0.00    -0.086 HD
ENDROOT
BRANCH   1  16
ATOM     15  N   UNL     1       4.613   1.067  -2.822  0.00  0.00    -0.315 N 
ATOM     16  C   UNL     1       5.269   0.536  -3.874  0.00  0.00    +0.218 C 
ATOM     17  O   UNL     1       5.380  -0.667  -3.975  0.00  0.00    -0.275 OA
ATOM     18  H   UNL     1       4.525   2.029  -2.742  0.00  0.00    +0.149 HD
BRANCH  15  19
ATOM     19  C   UNL     1       4.035   0.190  -1.802  0.00  0.00    +0.109 C 
BRANCH  19  20
ATOM     20  C   UNL     1       3.352   1.038  -0.728  0.00  0.00    +0.057 C 
BRANCH  20  26
ATOM     21  C   UNL     1       3.541  -0.321   1.371  0.00  0.00    +0.124 A 
ATOM     22  C   UNL     1       2.989  -1.147   2.339  0.00  0.00    +0.046 A 
ATOM     23  C   UNL     1       1.661  -1.517   2.254  0.00  0.00    +0.004 A 
ATOM     24  C   UNL     1       0.882  -1.065   1.204  0.00  0.00    +0.000 A 
ATOM     25  C   UNL     1       1.430  -0.242   0.238  0.00  0.00    +0.007 A 
ATOM     26  C   UNL     1       2.756   0.136   0.322  0.00  0.00    -0.004 A 
BRANCH  21  27
ATOM     27  O   UNL     1       4.847   0.045   1.453  0.00  0.00    -0.492 OA
BRANCH  27  29
ATOM     28  C   UNL     1       7.033   0.053   2.484  0.00  0.00    +0.048 C 
ATOM     29  C   UNL     1       5.595  -0.463   2.560  0.00  0.00    +0.225 C 
ENDBRANCH  27  29
ENDBRANCH  21  27
ENDBRANCH  20  26
ENDBRANCH  19  20
ENDBRANCH  15  19
ENDBRANCH   1  16
BRANCH  11  30
ATOM     30  C   UNL     1       6.616   1.221  -9.155  0.00  0.00    +0.261 C 
BRANCH  30  31
ATOM     31  C   UNL     1       6.311  -0.275  -9.250  0.00  0.00    +0.033 C 
ATOM     32  C   UNL     1       5.267  -0.514 -10.343  0.00  0.00    +0.011 C 
ATOM     33  C   UNL     1       7.593  -1.036  -9.594  0.00  0.00    +0.011 C 
ENDBRANCH  30  31
BRANCH  30  34
ATOM     34  O   UNL     1       7.124   1.685 -10.407  0.00  0.00    -0.479 OA
BRANCH  34  35
ATOM     35  C   UNL     1       6.223   2.198 -11.286  0.00  0.00    +0.122 A 
ATOM     36  C   UNL     1       4.893   2.333 -10.918  0.00  0.00    +0.045 A 
ATOM     37  C   UNL     1       3.979   2.856 -11.813  0.00  0.00    +0.004 A 
ATOM     38  C   UNL     1       4.391   3.245 -13.075  0.00  0.00    +0.000 A 
ATOM     39  C   UNL     1       5.716   3.111 -13.444  0.00  0.00    +0.004 A 
ATOM     40  C   UNL     1       6.635   2.595 -12.550  0.00  0.00    +0.045 A 
ENDBRANCH  34  35
ENDBRANCH  30  34
ENDBRANCH  11  30
TORSDOF 10
