REMARK  Name = ZINC62843895
REMARK  5 active torsions:
REMARK  status: ('A' for Active; 'I' for Inactive)
REMARK    1  A    between atoms: C_1  and  C_2
REMARK    2  A    between atoms: C_2  and  C_20
REMARK    3  A    between atoms: N_10  and  C_11
REMARK    4  A    between atoms: C_16  and  O_18
REMARK    5  A    between atoms: O_18  and  C_19
REMARK                            x       y       z     vdW  Elec       q    Type
REMARK                         _______ _______ _______ _____ _____    ______ ____
ROOT
ATOM      1  C   UNL     1      -0.268   1.062   0.010  0.00  0.00    +0.023 C 
ATOM      2  C   UNL     1       1.020   1.888   0.001  0.00  0.00    +0.072 C 
ATOM      3  C   UNL     1       1.851   1.550   1.241  0.00  0.00    +0.037 C 
ATOM      4  C   UNL     1       2.170   0.051   1.244  0.00  0.00    +0.110 C 
ATOM      5  N   UNL     1       2.816  -0.297  -0.028  0.00  0.00    -0.286 N 
ATOM      6  C   UNL     1       2.144   0.065  -1.284  0.00  0.00    +0.110 C 
ATOM      7  C   UNL     1       1.825   1.563  -1.259  0.00  0.00    +0.037 C 
ATOM      8  C   UNL     1       4.002  -0.936  -0.044  0.00  0.00    +0.302 C 
ATOM      9  O   UNL     1       4.483  -1.300  -1.099  0.00  0.00    -0.253 OA
ATOM     10  N   UNL     1       4.656  -1.171   1.111  0.00  0.00    -0.294 N 
ATOM     11  H   UNL     1       4.240  -0.947   1.958  0.00  0.00    +0.151 HD
ENDROOT
BRANCH  10  12
ATOM     12  C   UNL     1       5.995  -1.765   1.087  0.00  0.00    +0.103 C 
ATOM     13  C   UNL     1       7.061  -0.660   0.943  0.00  0.00    +0.025 C 
ATOM     14  C   UNL     1       7.509  -0.373   2.398  0.00  0.00    +0.004 C 
ATOM     15  C   UNL     1       7.508  -1.782   3.040  0.00  0.00    +0.033 C 
ATOM     16  C   UNL     1       6.279  -2.480   2.420  0.00  0.00    +0.138 C 
BRANCH  16  17
ATOM     17  O   UNL     1       6.565  -3.860   2.185  0.00  0.00    -0.378 OA
ATOM     18  C   UNL     1       6.186  -4.724   3.258  0.00  0.00    +0.194 C 
ENDBRANCH  16  17
ENDBRANCH  10  12
BRANCH   2  19
ATOM     19  C   UNL     1       0.675   3.355   0.013  0.00  0.00    +0.362 C 
ATOM     20  O   UNL     1       0.032   3.823   0.936  0.00  0.00    -0.246 OA
ATOM     21  O   UNL     1       1.041   4.074  -0.901  0.00  0.00    -0.246 OA
ENDBRANCH   2  19
TORSDOF 3
