REMARK  Name = ZINC13546864
REMARK  6 active torsions:
REMARK  status: ('A' for Active; 'I' for Inactive)
REMARK    1  A    between atoms: C_1  and  C_2
REMARK    2  A    between atoms: C_9  and  C_12
REMARK    3  A    between atoms: C_12  and  C_25
REMARK    4  A    between atoms: C_13  and  C_14
REMARK    5  A    between atoms: C_15  and  C_16
REMARK    6  A    between atoms: C_21  and  N_22
REMARK                            x       y       z     vdW  Elec       q    Type
REMARK                         _______ _______ _______ _____ _____    ______ ____
ROOT
ATOM      1  C   UNL     1       3.563   1.802  -0.214  0.00  0.00    +0.094 C 
ATOM      2  C   UNL     1       2.378   1.093  -0.154  0.00  0.00    +0.022 C 
ENDROOT
BRANCH   1  11
ATOM      3  C   UNL     1       9.104  -3.069  -0.387  0.00  0.00    +0.044 C 
ATOM      4  C   UNL     1       8.362  -1.758  -0.373  0.00  0.00    -0.048 A 
ATOM      5  C   UNL     1       9.072  -0.566  -0.420  0.00  0.00    +0.005 A 
ATOM      6  C   UNL     1       8.409   0.644  -0.408  0.00  0.00    +0.028 A 
ATOM      7  C   UNL     1       7.023   0.668  -0.349  0.00  0.00    +0.066 A 
ATOM      8  C   UNL     1       6.303  -0.539  -0.302  0.00  0.00    +0.090 A 
ATOM      9  C   UNL     1       6.997  -1.754  -0.315  0.00  0.00    +0.033 A 
ATOM     10  N   UNL     1       4.988  -0.221  -0.243  0.00  0.00    -0.227 NA
ATOM     11  C   UNL     1       4.849   1.085  -0.260  0.00  0.00    +0.150 A 
ATOM     12  N   UNL     1       6.082   1.681  -0.322  0.00  0.00    -0.337 N 
ATOM     13  H   UNL     1       6.267   2.663  -0.343  0.00  0.00    +0.167 HD
ENDBRANCH   1  11
BRANCH   2  14
ATOM     14  C   UNL     1       1.151   1.776  -0.110  0.00  0.00    +0.002 C 
ATOM     15  C   UNL     1      -0.011   1.081  -0.050  0.00  0.00    +0.010 C 
BRANCH  15  16
ATOM     16  C   UNL     1      -1.294   1.796  -0.010  0.00  0.00    +0.005 A 
ATOM     17  C   UNL     1      -1.319   3.191   0.097  0.00  0.00    +0.010 A 
ATOM     18  C   UNL     1      -2.527   3.854   0.134  0.00  0.00    +0.001 A 
ATOM     19  C   UNL     1      -3.714   3.143   0.064  0.00  0.00    +0.002 A 
ATOM     20  C   UNL     1      -3.698   1.764  -0.042  0.00  0.00    +0.033 A 
ATOM     21  C   UNL     1      -2.498   1.085  -0.086  0.00  0.00    +0.133 A 
BRANCH  21  22
ATOM     22  N   UNL     1      -2.483  -0.390  -0.206  0.00  0.00    +0.057 N 
ATOM     23  O   UNL     1      -3.524  -0.997  -0.388  0.00  0.00    -0.126 OA
ATOM     24  O   UNL     1      -1.431  -0.998  -0.124  0.00  0.00    -0.126 OA
ENDBRANCH  21  22
ENDBRANCH  15  16
ENDBRANCH   2  14
BRANCH   1  25
ATOM     25  C   UNL     1       3.540   3.234  -0.232  0.00  0.00    +0.103 C 
ATOM     26  N   UNL     1       3.522   4.369  -0.246  0.00  0.00    -0.191 NA
ENDBRANCH   1  25
TORSDOF 5
