REMARK  Name = ZINC60043503
REMARK  9 active torsions:
REMARK  status: ('A' for Active; 'I' for Inactive)
REMARK    1  A    between atoms: C_1  and  C_2
REMARK    2  A    between atoms: C_2  and  N_3
REMARK    3  A    between atoms: N_6  and  C_7
REMARK    4  A    between atoms: C_10  and  O_13
REMARK    5  A    between atoms: O_13  and  C_14
REMARK    6  A    between atoms: C_14  and  C_16
REMARK    7  A    between atoms: C_19  and  N_22
REMARK    8  A    between atoms: C_23  and  C_25
REMARK    9  A    between atoms: C_28  and  C_30
REMARK                            x       y       z     vdW  Elec       q    Type
REMARK                         _______ _______ _______ _____ _____    ______ ____
ROOT
ATOM      1  C   UNL     1       4.110  -7.760   4.952  0.00  0.00    +0.339 C 
ATOM      2  O   UNL     1       4.741  -6.922   5.566  0.00  0.00    -0.245 OA
ENDROOT
BRANCH   1   3
ATOM      3  C   UNL     1       4.317  -9.193   5.237  0.00  0.00    +0.059 A 
ATOM      4  C   UNL     1       3.596 -10.159   4.528  0.00  0.00    +0.017 A 
ATOM      5  C   UNL     1       3.792 -11.495   4.796  0.00  0.00    +0.024 A 
ATOM      6  C   UNL     1       4.705 -11.884   5.771  0.00  0.00    +0.033 A 
ATOM      7  C   UNL     1       5.424 -10.925   6.478  0.00  0.00    +0.024 A 
ATOM      8  C   UNL     1       5.238  -9.588   6.212  0.00  0.00    +0.017 A 
BRANCH   6   9
ATOM      9  N   UNL     1       4.900 -13.238   6.040  0.00  0.00    -0.285 N 
ATOM     10  C   UNL     1       4.803 -14.143   5.046  0.00  0.00    +0.221 C 
ATOM     11  O   UNL     1       4.640 -13.773   3.902  0.00  0.00    -0.275 OA
ATOM     12  H   UNL     1       5.106 -13.528   6.942  0.00  0.00    +0.155 HD
BRANCH  10  13
ATOM     13  C   UNL     1       4.895 -15.615   5.356  0.00  0.00    +0.078 C 
ATOM     14  C   UNL     1       3.627 -16.454   5.188  0.00  0.00    +0.017 C 
ATOM     15  C   UNL     1       4.775 -16.593   4.185  0.00  0.00    -0.002 C 
ATOM     16  C   UNL     1       5.613 -17.871   4.243  0.00  0.00    +0.008 C 
ENDBRANCH  10  13
ENDBRANCH   6   9
ENDBRANCH   1   3
BRANCH   1  17
ATOM     17  O   UNL     1       3.222  -7.381   4.013  0.00  0.00    -0.458 OA
BRANCH  17  21
ATOM     18  C   UNL     1       1.431  -3.679   3.013  0.00  0.00    +0.075 C 
ATOM     19  C   UNL     1       2.522  -4.229   2.092  0.00  0.00    +0.026 C 
ATOM     20  C   UNL     1       2.681  -5.732   2.331  0.00  0.00    +0.046 C 
ATOM     21  C   UNL     1       3.073  -5.978   3.789  0.00  0.00    +0.177 C 
ATOM     22  C   UNL     1       1.982  -5.428   4.710  0.00  0.00    +0.046 C 
ATOM     23  C   UNL     1       1.823  -3.925   4.471  0.00  0.00    +0.026 C 
BRANCH  18  27
ATOM     24  N   UNL     1       0.342  -0.473   1.580  0.00  0.00    -0.300 N 
ATOM     25  C   UNL     1       0.483  -1.797   1.790  0.00  0.00    +0.300 C 
ATOM     26  O   UNL     1      -0.108  -2.591   1.084  0.00  0.00    -0.253 OA
ATOM     27  N   UNL     1       1.278  -2.240   2.784  0.00  0.00    -0.297 N 
ATOM     28  H   UNL     1       0.814   0.160   2.143  0.00  0.00    +0.150 HD
ATOM     29  H   UNL     1       1.750  -1.607   3.347  0.00  0.00    +0.151 HD
BRANCH  24  31
ATOM     30  C   UNL     1      -0.505   1.539   0.478  0.00  0.00    +0.024 C 
ATOM     31  C   UNL     1      -0.522   0.009   0.500  0.00  0.00    +0.102 C 
ENDBRANCH  24  31
ENDBRANCH  18  27
ENDBRANCH  17  21
ENDBRANCH   1  17
TORSDOF 7
