REMARK  Name = ZINC01040038
REMARK  5 active torsions:
REMARK  status: ('A' for Active; 'I' for Inactive)
REMARK    1  A    between atoms: C_6  and  C_7
REMARK    2  A    between atoms: N_8  and  N_9
REMARK    3  A    between atoms: C_10  and  C_12
REMARK    4  A    between atoms: C_16  and  O_22
REMARK    5  A    between atoms: O_22  and  C_23
REMARK                            x       y       z     vdW  Elec       q    Type
REMARK                         _______ _______ _______ _____ _____    ______ ____
ROOT
ATOM      1  C   UNL     1       1.285  -0.722  -0.014  0.00  0.00    +0.104 A 
ATOM      2  C   UNL     1       1.432  -2.073  -0.017  0.00  0.00    +0.041 A 
ATOM      3  C   UNL     1       2.819  -2.356  -0.036  0.00  0.00    +0.004 A 
ATOM      4  C   UNL     1       3.556  -3.548  -0.050  0.00  0.00    +0.056 A 
ATOM      5  C   UNL     1       4.934  -3.498  -0.061  0.00  0.00    +0.131 A 
ATOM      6  C   UNL     1       5.594  -2.270  -0.061  0.00  0.00    +0.048 A 
ATOM      7  C   UNL     1       4.883  -1.092  -0.049  0.00  0.00    +0.030 A 
ATOM      8  C   UNL     1       3.491  -1.119  -0.036  0.00  0.00    +0.047 A 
ATOM      9  N   UNL     1       2.533  -0.130  -0.022  0.00  0.00    -0.351 N 
ATOM     10  H   UNL     1       2.706   0.824  -0.019  0.00  0.00    +0.166 HD
ENDROOT
BRANCH   1  12
ATOM     11  N   UNL     1      -0.016   1.344   0.009  0.00  0.00    -0.202 N 
ATOM     12  C   UNL     1       0.002  -0.004   0.002  0.00  0.00    +0.280 C 
ATOM     13  O   UNL     1      -1.043  -0.627   0.009  0.00  0.00    -0.267 OA
ATOM     14  H   UNL     1       0.817   1.840   0.004  0.00  0.00    +0.178 HD
BRANCH  11  16
ATOM     15  C   UNL     1      -1.256   3.325   0.026  0.00  0.00    +0.138 C 
ATOM     16  N   UNL     1      -1.239   2.027   0.019  0.00  0.00    -0.187 NA
BRANCH  15  22
ATOM     17  C   UNL     1      -3.745   3.333   0.032  0.00  0.00    +0.011 A 
ATOM     18  C   UNL     1      -4.946   4.013   0.045  0.00  0.00    +0.020 A 
ATOM     19  C   UNL     1      -4.961   5.397   0.053  0.00  0.00    +0.041 A 
ATOM     20  C   UNL     1      -3.773   6.109   0.053  0.00  0.00    +0.020 A 
ATOM     21  C   UNL     1      -2.566   5.442   0.044  0.00  0.00    +0.011 A 
ATOM     22  C   UNL     1      -2.543   4.045   0.036  0.00  0.00    -0.005 A 
ATOM     23 CL   UNL     1      -6.476   6.245   0.064  0.00  0.00    -0.084 Cl
ENDBRANCH  15  22
ENDBRANCH  11  16
ENDBRANCH   1  12
BRANCH   5  24
ATOM     24  O   UNL     1       5.652  -4.652  -0.074  0.00  0.00    -0.406 OA
BRANCH  24  25
ATOM     25  C   UNL     1       7.076  -4.530  -0.086  0.00  0.00    +0.575 C 
ATOM     26  F   UNL     1       7.495  -3.839   1.056  0.00  0.00    -0.133 F 
ATOM     27  F   UNL     1       7.653  -5.805  -0.098  0.00  0.00    -0.133 F 
ATOM     28  F   UNL     1       7.474  -3.828  -1.229  0.00  0.00    -0.133 F 
ENDBRANCH  24  25
ENDBRANCH   5  24
TORSDOF 5
