REMARK  Name = ZINC45107905
REMARK  4 active torsions:
REMARK  status: ('A' for Active; 'I' for Inactive)
REMARK    1  A    between atoms: C_1  and  C_2
REMARK    2  A    between atoms: C_2  and  C_3
REMARK    3  A    between atoms: C_2  and  C_4
REMARK    4  A    between atoms: C_2  and  N_7
REMARK                            x       y       z     vdW  Elec       q    Type
REMARK                         _______ _______ _______ _____ _____    ______ ____
ROOT
ATOM      1  C   UNL     1      -0.019   1.526   0.010  0.00  0.00    +0.047 C 
ATOM      2  C   UNL     1       0.002  -0.004   0.002  0.00  0.00    +0.141 C 
ATOM      3  C   UNL     1       0.742  -0.511   1.242  0.00  0.00    +0.047 C 
ENDROOT
BRANCH   2   4
ATOM      4  C   UNL     1      -1.412  -0.526   0.013  0.00  0.00    +0.238 C 
ATOM      5  O   UNL     1      -1.939  -0.827   1.062  0.00  0.00    -0.273 OA
ATOM      6  N   UNL     1      -2.090  -0.657  -1.144  0.00  0.00    -0.327 N 
ATOM      7  H   UNL     1      -1.669  -0.416  -1.984  0.00  0.00    +0.145 HD
ATOM      8  H   UNL     1      -3.000  -0.993  -1.137  0.00  0.00    +0.145 HD
ENDBRANCH   2   4
BRANCH   2   9
ATOM      9  N   UNL     1       0.688  -0.476  -1.203  0.00  0.00    -0.219 NA
ATOM     10  C   UNL     1       1.878  -0.157  -1.411  0.00  0.00    +0.037 C 
ATOM     11  S   UNL     1       3.358   0.240  -1.669  0.00  0.00    +0.020 S 
ENDBRANCH   2   9
TORSDOF 2
