REMARK  Name = ZINC09425083
REMARK  15 active torsions:
REMARK  status: ('A' for Active; 'I' for Inactive)
REMARK    1  A    between atoms: C_1  and  C_2
REMARK    2  A    between atoms: C_2  and  N_69
REMARK    3  A    between atoms: C_3  and  C_4
REMARK    4  A    between atoms: C_3  and  N_69
REMARK    5  A    between atoms: C_5  and  C_6
REMARK    6  A    between atoms: C_5  and  N_69
REMARK    7  A    between atoms: C_6  and  C_7
REMARK    8  A    between atoms: C_7  and  N_8
REMARK    9  A    between atoms: C_9  and  C_29
REMARK   10  A    between atoms: C_11  and  C_16
REMARK   11  A    between atoms: C_12  and  O_15
REMARK   12  A    between atoms: C_16  and  C_18
REMARK   13  A    between atoms: C_25  and  C_28
REMARK   14  A    between atoms: C_32  and  O_35
REMARK   15  A    between atoms: O_35  and  C_36
REMARK                            x       y       z     vdW  Elec       q    Type
REMARK                         _______ _______ _______ _____ _____    ______ ____
ROOT
ATOM      1  N   UNL     1       0.044  -0.004   0.049  0.00  0.00    -0.284 N 
ATOM      2  C   UNL     1       0.155  -0.923   1.188  0.00  0.00    +0.144 C 
ATOM      3  C   UNL     1       0.138  -2.317   0.607  0.00  0.00    +0.071 C 
ATOM      4  C   UNL     1       0.026  -2.180  -0.735  0.00  0.00    +0.188 C 
ATOM      5  C   UNL     1      -0.037  -0.743  -1.073  0.00  0.00    +0.282 C 
ATOM      6  O   UNL     1      -0.143  -0.294  -2.197  0.00  0.00    -0.267 OA
ENDROOT
BRANCH   2   7
ATOM      7  C   UNL     1       1.449  -0.683   1.923  0.00  0.00    -0.022 A 
ATOM      8  C   UNL     1       2.637  -0.598   1.220  0.00  0.00    +0.009 A 
ATOM      9  C   UNL     1       3.823  -0.373   1.890  0.00  0.00    +0.046 A 
ATOM     10  C   UNL     1       3.824  -0.242   3.272  0.00  0.00    +0.120 A 
ATOM     11  C   UNL     1       2.631  -0.333   3.975  0.00  0.00    +0.046 A 
ATOM     12  C   UNL     1       1.447  -0.553   3.299  0.00  0.00    +0.009 A 
BRANCH  10  13
ATOM     13  O   UNL     1       4.990  -0.027   3.934  0.00  0.00    -0.495 OA
ATOM     14  C   UNL     1       6.179   0.056   3.145  0.00  0.00    +0.277 C 
ENDBRANCH  10  13
ENDBRANCH   2   7
BRANCH   4  15
ATOM     15  O   UNL     1      -0.025  -3.197  -1.625  0.00  0.00    -0.502 OA
ATOM     16  H   UNL     1      -0.108  -2.827  -2.551  0.00  0.00    +0.292 HD
ENDBRANCH   4  15
BRANCH   3  17
ATOM     17  C   UNL     1       0.224  -3.577   1.353  0.00  0.00    +0.195 C 
ATOM     18  O   UNL     1       1.194  -4.299   1.217  0.00  0.00    -0.287 OA
BRANCH  17  19
ATOM     19  C   UNL     1      -0.865  -3.968   2.269  0.00  0.00    +0.023 A 
ATOM     20  C   UNL     1      -2.033  -3.202   2.344  0.00  0.00    +0.015 A 
ATOM     21  C   UNL     1      -3.045  -3.566   3.200  0.00  0.00    +0.046 A 
ATOM     22  C   UNL     1      -2.918  -4.702   4.002  0.00  0.00    +0.124 A 
ATOM     23  C   UNL     1      -1.756  -5.465   3.918  0.00  0.00    -0.002 A 
ATOM     24  C   UNL     1      -0.740  -5.112   3.065  0.00  0.00    +0.019 A 
ATOM     25  C   UNL     1      -1.920  -6.629   4.876  0.00  0.00    +0.083 C 
ATOM     26  C   UNL     1      -3.440  -6.595   5.163  0.00  0.00    +0.175 C 
ATOM     27  O   UNL     1      -3.780  -5.221   4.917  0.00  0.00    -0.488 OA
ATOM     28  C   UNL     1      -3.725  -6.972   6.618  0.00  0.00    +0.052 C 
ENDBRANCH  17  19
ENDBRANCH   3  17
BRANCH   1  29
ATOM     29  C   UNL     1       0.018   1.459   0.121  0.00  0.00    +0.107 C 
BRANCH  29  30
ATOM     30  C   UNL     1       1.447   2.000   0.030  0.00  0.00    +0.000 C 
BRANCH  30  31
ATOM     31  C   UNL     1       1.420   3.527   0.106  0.00  0.00    -0.077 C 
BRANCH  31  32
ATOM     32  N   UNL     1       2.811   4.023   0.161  0.00  0.00    +0.379 N 
ATOM     33  H   UNL     1       3.354   3.424   0.794  0.00  0.00    -0.082 HD
BRANCH  32  35
ATOM     34  C   UNL     1       4.914   4.276  -1.064  0.00  0.00    -0.017 C 
ATOM     35  C   UNL     1       3.419   3.973  -1.186  0.00  0.00    -0.082 C 
ENDBRANCH  32  35
BRANCH  32  36
ATOM     36  C   UNL     1       2.834   5.409   0.674  0.00  0.00    -0.082 C 
ATOM     37  C   UNL     1       2.647   5.373   2.192  0.00  0.00    -0.017 C 
ENDBRANCH  32  36
ENDBRANCH  31  32
ENDBRANCH  30  31
ENDBRANCH  29  30
ENDBRANCH   1  29
TORSDOF 11
