REMARK  Name = ZINC13063894
REMARK  14 active torsions:
REMARK  status: ('A' for Active; 'I' for Inactive)
REMARK    1  A    between atoms: C_1  and  C_2
REMARK    2  A    between atoms: C_2  and  C_3
REMARK    3  A    between atoms: C_3  and  C_5
REMARK    4  A    between atoms: C_3  and  N_65
REMARK    5  A    between atoms: N_9  and  C_10
REMARK    6  A    between atoms: C_10  and  C_11
REMARK    7  A    between atoms: C_11  and  O_13
REMARK    8  A    between atoms: O_13  and  C_14
REMARK    9  A    between atoms: C_14  and  C_15
REMARK   10  A    between atoms: C_16  and  C_17
REMARK   11  A    between atoms: C_16  and  N_65
REMARK   12  A    between atoms: C_24  and  C_25
REMARK   13  A    between atoms: C_24  and  N_65
REMARK   14  A    between atoms: C_30  and  C_37
REMARK                            x       y       z     vdW  Elec       q    Type
REMARK                         _______ _______ _______ _____ _____    ______ ____
ROOT
ATOM      1  N   UNL     1      -0.320  -0.404   0.978  0.00  0.00    +0.392 N 
ATOM      2  H   UNL     1      -1.183  -0.043   1.402  0.00  0.00    -0.080 HD
ENDROOT
BRANCH   1   3
ATOM      3  C   UNL     1      -0.344  -1.881   1.023  0.00  0.00    +0.003 C 
BRANCH   3   4
ATOM      4  C   UNL     1       0.794  -2.453   0.218  0.00  0.00    +0.139 A 
ATOM      5  N   UNL     1       1.180  -2.068  -0.974  0.00  0.00    -0.115 NA
ATOM      6  N   UNL     1       2.183  -2.798  -1.323  0.00  0.00    -0.023 NA
ATOM      7  N   UNL     1       2.446  -3.639  -0.384  0.00  0.00    -0.043 NA
ATOM      8  N   UNL     1       1.615  -3.454   0.586  0.00  0.00    -0.220 N 
BRANCH   8   9
ATOM      9  C   UNL     1       1.572  -4.196   1.848  0.00  0.00    +0.267 C 
BRANCH   9  10
ATOM     10  C   UNL     1       0.733  -5.435   1.673  0.00  0.00    +0.329 C 
ATOM     11  O   UNL     1       0.224  -5.675   0.604  0.00  0.00    -0.249 OA
BRANCH  10  12
ATOM     12  O   UNL     1       0.551  -6.274   2.706  0.00  0.00    -0.464 OA
BRANCH  12  13
ATOM     13  C   UNL     1      -0.268  -7.448   2.465  0.00  0.00    +0.229 C 
ATOM     14  C   UNL     1      -0.360  -8.278   3.747  0.00  0.00    +0.048 C 
ENDBRANCH  12  13
ENDBRANCH  10  12
ENDBRANCH   9  10
ENDBRANCH   8   9
ENDBRANCH   3   4
BRANCH   3  16
ATOM     15  C   UNL     1      -2.822  -1.909   1.346  0.00  0.00    +0.002 C 
ATOM     16  C   UNL     1      -1.674  -2.370   0.446  0.00  0.00    -0.011 C 
ENDBRANCH   3  16
ENDBRANCH   1   3
BRANCH   1  17
ATOM     17  C   UNL     1       0.839   0.106   1.741  0.00  0.00    -0.042 C 
BRANCH  17  18
ATOM     18  C   UNL     1       0.555  -0.049   3.213  0.00  0.00    -0.064 A 
ATOM     19  C   UNL     1      -0.169   0.920   3.882  0.00  0.00    +0.004 A 
ATOM     20  C   UNL     1      -0.434   0.777   5.231  0.00  0.00    +0.038 A 
ATOM     21  C   UNL     1       0.035  -0.332   5.914  0.00  0.00    +0.123 A 
ATOM     22  C   UNL     1       0.765  -1.299   5.244  0.00  0.00    +0.038 A 
ATOM     23  C   UNL     1       1.024  -1.156   3.894  0.00  0.00    +0.004 A 
ATOM     24  F   UNL     1      -0.219  -0.470   7.234  0.00  0.00    -0.205 F 
ENDBRANCH  17  18
ENDBRANCH   1  17
BRANCH   1  25
ATOM     25  C   UNL     1      -0.244   0.058  -0.424  0.00  0.00    -0.036 C 
BRANCH  25  26
ATOM     26  C   UNL     1      -0.624   1.515  -0.475  0.00  0.00    +0.001 A 
ATOM     27  C   UNL     1       0.342   2.466  -0.457  0.00  0.00    +0.017 A 
ATOM     28  C   UNL     1      -0.060   3.873  -0.507  0.00  0.00    -0.001 A 
ATOM     29  C   UNL     1       0.891   4.899  -0.492  0.00  0.00    +0.010 A 
ATOM     30  C   UNL     1       0.483   6.201  -0.540  0.00  0.00    +0.004 A 
ATOM     31  C   UNL     1      -0.868   6.517  -0.605  0.00  0.00    -0.048 A 
ATOM     32  C   UNL     1      -1.822   5.523  -0.622  0.00  0.00    +0.029 A 
ATOM     33  C   UNL     1      -1.430   4.189  -0.573  0.00  0.00    +0.049 A 
ATOM     34  N   UNL     1      -2.364   3.174  -0.589  0.00  0.00    -0.322 N 
ATOM     35  H   UNL     1      -3.308   3.394  -0.634  0.00  0.00    +0.169 HD
ATOM     36  C   UNL     1      -1.984   1.885  -0.547  0.00  0.00    +0.251 A 
ATOM     37  O   UNL     1      -2.837   1.014  -0.568  0.00  0.00    -0.268 OA
ATOM     38  C   UNL     1      -1.294   7.961  -0.658  0.00  0.00    +0.044 C 
ENDBRANCH  25  26
ENDBRANCH   1  25
TORSDOF 11
