REMARK  Name = ZINC16852565
REMARK  5 active torsions:
REMARK  status: ('A' for Active; 'I' for Inactive)
REMARK    1  A    between atoms: C_1  and  C_2
REMARK    2  A    between atoms: C_2  and  C_3
REMARK    3  A    between atoms: C_2  and  C_4
REMARK    4  A    between atoms: C_4  and  C_5
REMARK    5  A    between atoms: C_6  and  O_19
REMARK                            x       y       z     vdW  Elec       q    Type
REMARK                         _______ _______ _______ _____ _____    ______ ____
ROOT
ATOM      1  C   UNL     1      -0.017   1.382   0.010  0.00  0.00    +0.079 A 
ATOM      2  C   UNL     1       0.002  -0.004   0.002  0.00  0.00    +0.223 A 
ATOM      3  N   UNL     1       1.183  -0.630  -0.013  0.00  0.00    -0.188 NA
ATOM      4  C   UNL     1       2.305   0.046  -0.020  0.00  0.00    +0.184 A 
ATOM      5  N   UNL     1       2.372   1.409  -0.013  0.00  0.00    -0.254 N 
ATOM      6  C   UNL     1       1.184   2.086   0.002  0.00  0.00    +0.266 A 
ATOM      7  O   UNL     1       1.176   3.307   0.008  0.00  0.00    -0.267 OA
ATOM      8  C   UNL     1       3.639   2.009  -0.021  0.00  0.00    +0.066 A 
ATOM      9  C   UNL     1       3.909   3.388  -0.017  0.00  0.00    +0.027 A 
ATOM     10  C   UNL     1       5.202   3.851  -0.025  0.00  0.00    +0.002 A 
ATOM     11  C   UNL     1       6.278   2.978  -0.040  0.00  0.00    +0.001 A 
ATOM     12  C   UNL     1       6.040   1.615  -0.045  0.00  0.00    +0.017 A 
ATOM     13  C   UNL     1       4.744   1.153  -0.036  0.00  0.00    +0.040 A 
ATOM     14  S   UNL     1       4.011  -0.464  -0.038  0.00  0.00    -0.049 S 
ENDROOT
BRANCH   2  15
ATOM     15  O   UNL     1      -1.153  -0.710   0.010  0.00  0.00    -0.492 OA
ATOM     16  H   UNL     1      -1.028  -1.669   0.003  0.00  0.00    +0.294 HD
ENDBRANCH   2  15
BRANCH   1  17
ATOM     17  C   UNL     1      -1.329   2.123   0.020  0.00  0.00    +0.049 C 
BRANCH  17  19
ATOM     18  C   UNL     1      -0.680   3.459   2.029  0.00  0.00    +0.007 C 
ATOM     19  C   UNL     1      -1.705   2.475   1.461  0.00  0.00    -0.013 C 
ATOM     20  C   UNL     1      -3.094   3.115   1.484  0.00  0.00    +0.007 C 
ENDBRANCH  17  19
ENDBRANCH   1  17
TORSDOF 3
