REMARK  Name = ZINC60356386
REMARK  9 active torsions:
REMARK  status: ('A' for Active; 'I' for Inactive)
REMARK    1  A    between atoms: C_1  and  C_2
REMARK    2  A    between atoms: C_3  and  N_14
REMARK    3  A    between atoms: C_4  and  C_13
REMARK    4  A    between atoms: N_5  and  C_7
REMARK    5  A    between atoms: C_15  and  C_17
REMARK    6  A    between atoms: C_17  and  C_19
REMARK    7  A    between atoms: C_17  and  N_20
REMARK    8  A    between atoms: C_23  and  C_26
REMARK    9  A    between atoms: C_26  and  C_27
REMARK                            x       y       z     vdW  Elec       q    Type
REMARK                         _______ _______ _______ _____ _____    ______ ____
ROOT
ATOM      1  N   UNL     1      -0.407  -0.426  -2.271  0.00  0.00    -0.284 N 
ATOM      2  C   UNL     1       0.211   0.527  -2.996  0.00  0.00    +0.203 C 
ATOM      3  O   UNL     1       1.221   1.051  -2.575  0.00  0.00    -0.277 OA
ATOM      4  H   UNL     1      -1.190  -0.874  -2.627  0.00  0.00    +0.155 HD
ENDROOT
BRANCH   1   7
ATOM      5  C   UNL     1       0.928   1.576  -0.293  0.00  0.00    +0.069 C 
ATOM      6  C   UNL     1       0.690   0.103  -0.082  0.00  0.00    +0.082 A 
ATOM      7  C   UNL     1       0.084  -0.770  -0.998  0.00  0.00    +0.078 A 
ATOM      8  C   UNL     1       0.054  -2.007  -0.438  0.00  0.00    +0.063 A 
ATOM      9  N   UNL     1       0.625  -1.912   0.794  0.00  0.00    -0.235 N 
ATOM     10  N   UNL     1       1.017  -0.581   0.985  0.00  0.00    -0.170 NA
ATOM     11  C   UNL     1      -0.509  -3.256  -1.065  0.00  0.00    +0.068 C 
BRANCH   9  12
ATOM     12  C   UNL     1       0.794  -2.961   1.708  0.00  0.00    +0.066 A 
ATOM     13  C   UNL     1       1.242  -4.200   1.269  0.00  0.00    +0.028 A 
ATOM     14  C   UNL     1       1.408  -5.232   2.171  0.00  0.00    +0.002 A 
ATOM     15  C   UNL     1       1.129  -5.033   3.511  0.00  0.00    +0.000 A 
ATOM     16  C   UNL     1       0.684  -3.800   3.951  0.00  0.00    +0.002 A 
ATOM     17  C   UNL     1       0.521  -2.762   3.054  0.00  0.00    +0.028 A 
ENDBRANCH   9  12
ENDBRANCH   1   7
BRANCH   2  18
ATOM     18  C   UNL     1      -0.352   0.943  -4.331  0.00  0.00    +0.016 C 
ATOM     19  C   UNL     1      -0.015  -0.119  -5.380  0.00  0.00    -0.004 C 
BRANCH  18  20
ATOM     20  N   UNL     1       0.235   2.229  -4.731  0.00  0.00    +0.387 N 
ATOM     21  C   UNL     1      -0.247   2.589  -6.070  0.00  0.00    -0.078 C 
ATOM     22  C   UNL     1       0.424   3.887  -6.525  0.00  0.00    -0.015 C 
ATOM     23  C   UNL     1       0.079   5.007  -5.538  0.00  0.00    -0.010 C 
ATOM     24  C   UNL     1       0.519   4.588  -4.133  0.00  0.00    -0.015 C 
ATOM     25  C   UNL     1      -0.155   3.264  -3.766  0.00  0.00    -0.078 C 
ATOM     26  H   UNL     1       1.241   2.148  -4.748  0.00  0.00    -0.081 HD
BRANCH  23  27
ATOM     27  C   UNL     1       0.810   6.288  -5.943  0.00  0.00    +0.038 C 
BRANCH  27  28
ATOM     28  C   UNL     1       0.376   7.419  -5.046  0.00  0.00    -0.047 A 
ATOM     29  C   UNL     1      -0.712   8.198  -5.394  0.00  0.00    +0.006 A 
ATOM     30  C   UNL     1      -1.111   9.234  -4.572  0.00  0.00    +0.038 A 
ATOM     31  C   UNL     1      -0.421   9.493  -3.400  0.00  0.00    +0.123 A 
ATOM     32  C   UNL     1       0.668   8.712  -3.052  0.00  0.00    +0.038 A 
ATOM     33  C   UNL     1       1.062   7.672  -3.873  0.00  0.00    +0.006 A 
ATOM     34  F   UNL     1      -0.810  10.506  -2.595  0.00  0.00    -0.205 F 
ENDBRANCH  27  28
ENDBRANCH  23  27
ENDBRANCH  18  20
ENDBRANCH   2  18
TORSDOF 6
