REMARK  Name = ZINC59982321
REMARK  12 active torsions:
REMARK  status: ('A' for Active; 'I' for Inactive)
REMARK    1  A    between atoms: C_1  and  C_2
REMARK    2  A    between atoms: C_5  and  C_36
REMARK    3  A    between atoms: N_8  and  C_10
REMARK    4  A    between atoms: C_10  and  C_11
REMARK    5  A    between atoms: C_10  and  C_12
REMARK    6  A    between atoms: C_10  and  C_13
REMARK    7  A    between atoms: C_13  and  N_14
REMARK    8  A    between atoms: C_15  and  C_17
REMARK    9  A    between atoms: C_21  and  S_23
REMARK   10  A    between atoms: S_23  and  N_26
REMARK   11  A    between atoms: C_28  and  C_35
REMARK   12  A    between atoms: C_31  and  C_34
REMARK                            x       y       z     vdW  Elec       q    Type
REMARK                         _______ _______ _______ _____ _____    ______ ____
ROOT
ATOM      1  N   UNL     1       2.801  -0.371   2.305  0.00  0.00    -0.313 N 
ATOM      2  C   UNL     1       3.883   0.403   2.090  0.00  0.00    +0.244 C 
ATOM      3  O   UNL     1       4.956  -0.108   1.836  0.00  0.00    -0.270 OA
ATOM      4  H   UNL     1       1.945   0.037   2.508  0.00  0.00    +0.149 HD
ENDROOT
BRANCH   2   5
ATOM      5  C   UNL     1       3.764   1.875   2.163  0.00  0.00    +0.039 A 
ATOM      6  C   UNL     1       2.535   2.466   2.461  0.00  0.00    +0.013 A 
ATOM      7  C   UNL     1       2.432   3.840   2.528  0.00  0.00    +0.003 A 
ATOM      8  C   UNL     1       3.543   4.632   2.301  0.00  0.00    +0.028 A 
ATOM      9  C   UNL     1       4.764   4.053   2.006  0.00  0.00    +0.106 A 
ATOM     10  C   UNL     1       4.883   2.680   1.942  0.00  0.00    +0.041 A 
BRANCH   9  11
ATOM     11  S   UNL     1       6.173   5.072   1.719  0.00  0.00    +0.061 S 
ATOM     12  O   UNL     1       7.072   4.308   0.926  0.00  0.00    -0.153 OA
ATOM     13  O   UNL     1       5.681   6.339   1.305  0.00  0.00    -0.153 OA
BRANCH  11  14
ATOM     14  N   UNL     1       6.914   5.307   3.181  0.00  0.00    -0.172 NA
ATOM     15  C   UNL     1       6.544   6.439   4.044  0.00  0.00    +0.140 C 
ATOM     16  C   UNL     1       7.826   7.171   4.457  0.00  0.00    +0.131 C 
ATOM     17  O   UNL     1       8.750   6.229   5.007  0.00  0.00    -0.371 OA
ATOM     18  C   UNL     1       9.175   5.220   4.087  0.00  0.00    +0.131 C 
ATOM     19  C   UNL     1       7.958   4.385   3.658  0.00  0.00    +0.140 C 
ATOM     20  C   UNL     1      10.204   4.312   4.763  0.00  0.00    +0.039 C 
ATOM     21  C   UNL     1       7.493   8.234   5.506  0.00  0.00    +0.039 C 
ENDBRANCH  11  14
ENDBRANCH   9  11
ENDBRANCH   2   5
BRANCH   1  22
ATOM     22  C   UNL     1       2.918  -1.830   2.232  0.00  0.00    +0.092 C 
BRANCH  22  23
ATOM     23  C   UNL     1       1.589  -2.469   2.639  0.00  0.00    -0.055 C 
ATOM     24  C   UNL     1       1.737  -3.992   2.646  0.00  0.00    -0.008 C 
ATOM     25  C   UNL     1       0.503  -2.067   1.640  0.00  0.00    -0.008 C 
BRANCH  23  31
ATOM     26  C   UNL     1       3.028  -2.192   7.310  0.00  0.00    +0.005 C 
ATOM     27  C   UNL     1       1.925  -1.816   6.319  0.00  0.00    -0.031 C 
ATOM     28  C   UNL     1       0.595  -2.417   6.782  0.00  0.00    +0.003 C 
ATOM     29  C   UNL     1      -0.486  -2.101   5.744  0.00  0.00    -0.031 C 
ATOM     30  C   UNL     1      -0.049  -2.640   4.380  0.00  0.00    -0.075 C 
ATOM     31  N   UNL     1       1.214  -2.007   3.982  0.00  0.00    +0.384 N 
ATOM     32  C   UNL     1       2.273  -2.364   4.934  0.00  0.00    -0.075 C 
ATOM     33  C   UNL     1      -0.682  -0.586   5.657  0.00  0.00    +0.005 C 
ATOM     34  H   UNL     1       1.098  -1.005   3.971  0.00  0.00    -0.081 HD
ENDBRANCH  23  31
ENDBRANCH  22  23
ENDBRANCH   1  22
TORSDOF 6
