REMARK  Name = ZINC67585284
REMARK  8 active torsions:
REMARK  status: ('A' for Active; 'I' for Inactive)
REMARK    1  A    between atoms: C_1  and  C_2
REMARK    2  A    between atoms: C_2  and  C_3
REMARK    3  A    between atoms: C_3  and  C_4
REMARK    4  A    between atoms: N_6  and  C_7
REMARK    5  A    between atoms: C_11  and  N_14
REMARK    6  A    between atoms: C_12  and  C_13
REMARK    7  A    between atoms: N_17  and  C_18
REMARK    8  A    between atoms: C_18  and  C_22
REMARK                            x       y       z     vdW  Elec       q    Type
REMARK                         _______ _______ _______ _____ _____    ______ ____
ROOT
ATOM      1  N   UNL     1       2.892  -6.705  -4.156  0.00  0.00    -0.269 N 
ATOM      2  C   UNL     1       2.909  -8.053  -4.173  0.00  0.00    +0.305 C 
ATOM      3  O   UNL     1       2.386  -8.678  -3.271  0.00  0.00    -0.252 OA
ATOM      4  N   UNL     1       3.506  -8.707  -5.188  0.00  0.00    -0.290 N 
ATOM      5  H   UNL     1       3.369  -6.206  -4.838  0.00  0.00    +0.156 HD
ATOM      6  H   UNL     1       3.986  -8.210  -5.870  0.00  0.00    +0.151 HD
ENDROOT
BRANCH   1  11
ATOM      7  C   UNL     1       0.852  -4.159  -2.451  0.00  0.00    +0.038 A 
ATOM      8  C   UNL     1       0.796  -4.688  -1.168  0.00  0.00    +0.024 A 
ATOM      9  C   UNL     1       1.433  -5.879  -0.881  0.00  0.00    +0.004 A 
ATOM     10  C   UNL     1       2.128  -6.549  -1.870  0.00  0.00    +0.024 A 
ATOM     11  C   UNL     1       2.188  -6.026  -3.155  0.00  0.00    +0.039 A 
ATOM     12  C   UNL     1       1.544  -4.832  -3.447  0.00  0.00    -0.008 A 
ATOM     13  C   UNL     1       1.601  -4.265  -4.843  0.00  0.00    +0.047 C 
BRANCH   7  16
ATOM     14  C   UNL     1      -0.844  -2.554  -1.995  0.00  0.00    +0.217 C 
ATOM     15  O   UNL     1      -1.293  -3.287  -1.139  0.00  0.00    -0.275 OA
ATOM     16  N   UNL     1       0.206  -2.952  -2.740  0.00  0.00    -0.285 N 
ATOM     17  H   UNL     1       0.514  -2.401  -3.477  0.00  0.00    +0.155 HD
BRANCH  14  18
ATOM     18  C   UNL     1      -1.460  -1.198  -2.224  0.00  0.00    +0.096 C 
BRANCH  18  20
ATOM     19  C   UNL     1      -3.251   0.381  -1.486  0.00  0.00    +0.004 C 
ATOM     20  C   UNL     1      -2.625  -0.996  -1.254  0.00  0.00    +0.006 C 
ENDBRANCH  18  20
ENDBRANCH  14  18
ENDBRANCH   7  16
ENDBRANCH   1  11
BRANCH   4  21
ATOM     21  C   UNL     1       3.430 -10.168  -5.264  0.00  0.00    +0.061 C 
ATOM     22  C   UNL     1       3.766 -10.731  -6.655  0.00  0.00    +0.031 C 
ATOM     23  C   UNL     1       2.273 -10.583  -6.989  0.00  0.00    +0.005 C 
ATOM     24  C   UNL     1       2.004 -10.700  -5.479  0.00  0.00    +0.031 C 
BRANCH  21  25
ATOM     25  C   UNL     1       4.166 -10.851  -4.140  0.00  0.00    -0.024 A 
ATOM     26  C   UNL     1       3.942 -12.190  -3.880  0.00  0.00    +0.006 A 
ATOM     27  C   UNL     1       4.617 -12.816  -2.849  0.00  0.00    +0.000 A 
ATOM     28  C   UNL     1       5.516 -12.104  -2.079  0.00  0.00    +0.000 A 
ATOM     29  C   UNL     1       5.741 -10.765  -2.339  0.00  0.00    +0.000 A 
ATOM     30  C   UNL     1       5.069 -10.140  -3.373  0.00  0.00    +0.006 A 
ENDBRANCH  21  25
ENDBRANCH   4  21
TORSDOF 6
