REMARK  Name = ZINC36494258
REMARK  10 active torsions:
REMARK  status: ('A' for Active; 'I' for Inactive)
REMARK    1  A    between atoms: C_1  and  O_2
REMARK    2  A    between atoms: O_2  and  C_3
REMARK    3  A    between atoms: C_8  and  C_9
REMARK    4  A    between atoms: N_11  and  C_12
REMARK    5  A    between atoms: N_11  and  C_18
REMARK    6  A    between atoms: C_12  and  C_13
REMARK    7  A    between atoms: C_18  and  C_20
REMARK    8  A    between atoms: C_18  and  C_29
REMARK    9  A    between atoms: C_23  and  N_26
REMARK   10  A    between atoms: N_31  and  C_32
REMARK                            x       y       z     vdW  Elec       q    Type
REMARK                         _______ _______ _______ _____ _____    ______ ____
ROOT
ATOM      1  C   UNL     1       0.901  -5.157  -1.266  0.00  0.00    +0.193 C 
ENDROOT
BRANCH   1   2
ATOM      2  C   UNL     1      -0.236  -5.389  -2.228  0.00  0.00    -0.018 A 
ATOM      3  C   UNL     1      -1.543  -5.274  -1.793  0.00  0.00    +0.008 A 
ATOM      4  C   UNL     1      -2.586  -5.487  -2.675  0.00  0.00    +0.033 A 
ATOM      5  C   UNL     1      -2.322  -5.816  -3.991  0.00  0.00    +0.126 A 
ATOM      6  C   UNL     1      -1.015  -5.931  -4.426  0.00  0.00    +0.033 A 
ATOM      7  C   UNL     1       0.028  -5.713  -3.545  0.00  0.00    +0.008 A 
BRANCH   5   8
ATOM      8  N   UNL     1      -3.438  -6.045  -4.935  0.00  0.00    +0.056 N 
ATOM      9  O   UNL     1      -4.582  -5.945  -4.555  0.00  0.00    -0.126 OA
ATOM     10  O   UNL     1      -3.208  -6.333  -6.086  0.00  0.00    -0.126 OA
ENDBRANCH   5   8
ENDBRANCH   1   2
BRANCH   1  11
ATOM     11  C   UNL     1       1.952  -4.303  -1.928  0.00  0.00    +0.238 C 
ATOM     12  O   UNL     1       2.992  -4.802  -2.301  0.00  0.00    -0.273 OA
ATOM     13  N   UNL     1       1.735  -2.984  -2.105  0.00  0.00    -0.311 N 
ATOM     14  H   UNL     1       0.903  -2.585  -1.806  0.00  0.00    +0.149 HD
BRANCH  13  15
ATOM     15  C   UNL     1       2.756  -2.154  -2.748  0.00  0.00    +0.073 C 
ATOM     16  C   UNL     1       3.775  -1.697  -1.702  0.00  0.00    +0.022 C 
ATOM     17  C   UNL     1       4.842  -0.830  -2.374  0.00  0.00    +0.002 C 
ATOM     18  C   UNL     1       4.178   0.394  -3.009  0.00  0.00    +0.000 C 
ATOM     19  C   UNL     1       3.159  -0.063  -4.055  0.00  0.00    +0.002 C 
ATOM     20  C   UNL     1       2.093  -0.930  -3.383  0.00  0.00    +0.022 C 
ENDBRANCH  13  15
ENDBRANCH   1  11
BRANCH   1  23
ATOM     21  C   UNL     1       1.585  -6.779   0.418  0.00  0.00    +0.251 C 
ATOM     22  O   UNL     1       2.097  -7.835   0.737  0.00  0.00    -0.270 OA
ATOM     23  N   UNL     1       1.488  -6.443  -0.883  0.00  0.00    -0.275 N 
BRANCH  21  29
ATOM     24  C   UNL     1       1.909  -5.428   2.490  0.00  0.00    +0.132 A 
ATOM     25  C   UNL     1       1.415  -4.565   3.457  0.00  0.00    +0.046 A 
ATOM     26  C   UNL     1       0.101  -4.144   3.404  0.00  0.00    +0.004 A 
ATOM     27  C   UNL     1      -0.733  -4.579   2.386  0.00  0.00    +0.001 A 
ATOM     28  C   UNL     1      -0.259  -5.437   1.417  0.00  0.00    +0.017 A 
ATOM     29  C   UNL     1       1.070  -5.866   1.456  0.00  0.00    +0.078 A 
BRANCH  24  31
ATOM     30  C   UNL     1       3.994  -5.356   3.624  0.00  0.00    +0.277 C 
ATOM     31  O   UNL     1       3.199  -5.843   2.541  0.00  0.00    -0.494 OA
ENDBRANCH  24  31
ENDBRANCH  21  29
BRANCH  23  32
ATOM     32  C   UNL     1       1.970  -7.365  -1.915  0.00  0.00    +0.183 C 
BRANCH  32  33
ATOM     33  C   UNL     1       3.333  -7.881  -1.532  0.00  0.00    +0.122 A 
ATOM     34  C   UNL     1       3.593  -9.075  -0.970  0.00  0.00    +0.046 A 
ATOM     35  C   UNL     1       4.992  -9.143  -0.782  0.00  0.00    +0.041 A 
ATOM     36  C   UNL     1       5.504  -7.987  -1.240  0.00  0.00    +0.195 A 
ATOM     37  O   UNL     1       4.495  -7.228  -1.698  0.00  0.00    -0.466 OA
ENDBRANCH  32  33
ENDBRANCH  23  32
ENDBRANCH   1  23
TORSDOF 9
