REMARK  Name = ZINC39666433
REMARK  7 active torsions:
REMARK  status: ('A' for Active; 'I' for Inactive)
REMARK    1  A    between atoms: C_1  and  C_2
REMARK    2  A    between atoms: C_2  and  C_4
REMARK    3  A    between atoms: C_2  and  O_28
REMARK    4  A    between atoms: C_4  and  N_5
REMARK    5  A    between atoms: C_6  and  C_8
REMARK    6  A    between atoms: C_19  and  C_21
REMARK    7  A    between atoms: O_28  and  C_29
REMARK                            x       y       z     vdW  Elec       q    Type
REMARK                         _______ _______ _______ _____ _____    ______ ____
ROOT
ATOM      1  C   UNL     1       0.914  -3.876  -2.329  0.00  0.00    +0.100 C 
ATOM      2  C   UNL     1       1.530  -4.500  -1.056  0.00  0.00    +0.121 C 
ATOM      3  N   UNL     1       2.191  -5.739  -1.529  0.00  0.00    -0.296 N 
ATOM      4  C   UNL     1       2.796  -5.361  -2.829  0.00  0.00    +0.115 C 
ATOM      5  C   UNL     1       1.748  -4.443  -3.490  0.00  0.00    -0.004 C 
ATOM      6  C   UNL     1       2.440  -3.313  -4.245  0.00  0.00    -0.010 C 
ATOM      7  C   UNL     1       3.216  -3.896  -5.429  0.00  0.00    -0.082 C 
ATOM      8  N   UNL     1       2.292  -4.611  -6.318  0.00  0.00    +0.379 N 
ATOM      9  C   UNL     1       1.702  -5.754  -5.611  0.00  0.00    -0.082 C 
ATOM     10  C   UNL     1       0.861  -5.249  -4.434  0.00  0.00    -0.010 C 
ATOM     11  C   UNL     1       2.234  -6.938  -0.915  0.00  0.00    +0.247 C 
ATOM     12  O   UNL     1       1.594  -7.123   0.102  0.00  0.00    -0.270 OA
ATOM     13  H   UNL     1       1.559  -3.985  -6.613  0.00  0.00    -0.086 HD
ATOM     14  H   UNL     1       2.795  -4.942  -7.128  0.00  0.00    -0.086 HD
ENDROOT
BRANCH  11  15
ATOM     15  C   UNL     1       3.058  -8.027  -1.479  0.00  0.00    +0.037 A 
ATOM     16  C   UNL     1       4.157  -7.729  -2.287  0.00  0.00    +0.014 A 
ATOM     17  C   UNL     1       4.922  -8.750  -2.809  0.00  0.00    +0.021 A 
ATOM     18  C   UNL     1       4.603 -10.069  -2.534  0.00  0.00    +0.041 A 
ATOM     19  C   UNL     1       3.514 -10.372  -1.734  0.00  0.00    +0.021 A 
ATOM     20  C   UNL     1       2.744  -9.359  -1.201  0.00  0.00    +0.014 A 
ATOM     21 CL   UNL     1       5.570 -11.349  -3.197  0.00  0.00    -0.084 Cl
ENDBRANCH  11  15
BRANCH   1  23
ATOM     22  N   UNL     1       0.098  -1.610  -2.892  0.00  0.00    -0.312 N 
ATOM     23  C   UNL     1       1.028  -2.374  -2.286  0.00  0.00    +0.218 C 
ATOM     24  O   UNL     1       1.957  -1.853  -1.705  0.00  0.00    -0.275 OA
ATOM     25  H   UNL     1      -0.645  -2.027  -3.356  0.00  0.00    +0.149 HD
BRANCH  22  26
ATOM     26  C   UNL     1       0.209  -0.150  -2.850  0.00  0.00    +0.148 C 
BRANCH  26  28
ATOM     27  C   UNL     1      -0.784   1.991  -3.671  0.00  0.00    +0.053 C 
ATOM     28  C   UNL     1      -0.965   0.473  -3.608  0.00  0.00    +0.187 C 
BRANCH  28  29
ATOM     29  O   UNL     1      -2.186   0.167  -2.931  0.00  0.00    -0.486 OA
BRANCH  29  30
ATOM     30  C   UNL     1      -3.322   0.170  -3.677  0.00  0.00    +0.139 A 
ATOM     31  C   UNL     1      -3.253   0.364  -5.048  0.00  0.00    +0.047 A 
ATOM     32  C   UNL     1      -4.410   0.367  -5.804  0.00  0.00    +0.004 A 
ATOM     33  C   UNL     1      -5.636   0.178  -5.194  0.00  0.00    +0.002 A 
ATOM     34  C   UNL     1      -5.709  -0.015  -3.827  0.00  0.00    +0.023 A 
ATOM     35  C   UNL     1      -4.554  -0.025  -3.067  0.00  0.00    +0.083 A 
ATOM     36 CL   UNL     1      -4.645  -0.274  -1.352  0.00  0.00    -0.080 Cl
ENDBRANCH  29  30
ENDBRANCH  28  29
ENDBRANCH  26  28
ENDBRANCH  22  26
ENDBRANCH   1  23
TORSDOF 6
