REMARK  Name = ZINC13759919
REMARK  10 active torsions:
REMARK  status: ('A' for Active; 'I' for Inactive)
REMARK    1  A    between atoms: C_1  and  C_2
REMARK    2  A    between atoms: C_5  and  S_8
REMARK    3  A    between atoms: S_8  and  N_11
REMARK    4  A    between atoms: N_11  and  C_12
REMARK    5  A    between atoms: C_12  and  C_13
REMARK    6  A    between atoms: C_13  and  C_14
REMARK    7  A    between atoms: C_14  and  C_15
REMARK    8  A    between atoms: C_15  and  N_66
REMARK    9  A    between atoms: C_27  and  O_28
REMARK   10  A    between atoms: O_28  and  C_29
REMARK                            x       y       z     vdW  Elec       q    Type
REMARK                         _______ _______ _______ _____ _____    ______ ____
ROOT
ATOM      1  C   UNL     1      -0.648   1.632  -1.149  0.00  0.00    -0.078 C 
ATOM      2  C   UNL     1       0.015   1.013   0.084  0.00  0.00    -0.019 C 
ATOM      3  C   UNL     1      -0.735   1.463   1.341  0.00  0.00    -0.003 C 
ATOM      4  C   UNL     1      -2.205   1.049   1.223  0.00  0.00    -0.008 C 
ATOM      5  C   UNL     1      -2.803   1.661  -0.044  0.00  0.00    -0.026 C 
ATOM      6  C   UNL     1      -4.269   1.246  -0.176  0.00  0.00    +0.034 C 
ATOM      7  C   UNL     1      -4.934   2.074  -1.247  0.00  0.00    +0.035 A 
ATOM      8  C   UNL     1      -4.379   3.261  -1.688  0.00  0.00    +0.127 A 
ATOM      9  C   UNL     1      -5.026   4.000  -2.675  0.00  0.00    +0.046 A 
ATOM     10  C   UNL     1      -6.214   3.551  -3.215  0.00  0.00    +0.007 A 
ATOM     11  C   UNL     1      -6.768   2.364  -2.778  0.00  0.00    +0.046 A 
ATOM     12  C   UNL     1      -6.130   1.624  -1.794  0.00  0.00    +0.127 A 
ATOM     13  O   UNL     1      -3.207   3.733  -1.190  0.00  0.00    -0.493 OA
ATOM     14  C   UNL     1      -2.739   3.190   0.045  0.00  0.00    +0.217 C 
ATOM     15  N   UNL     1      -2.052   1.175  -1.220  0.00  0.00    +0.386 N 
ATOM     16  H   UNL     1      -2.068   0.148  -1.224  0.00  0.00    -0.081 HD
ENDROOT
BRANCH  12  17
ATOM     17  O   UNL     1      -6.675   0.456  -1.364  0.00  0.00    -0.495 OA
ATOM     18  C   UNL     1      -7.905   0.052  -1.969  0.00  0.00    +0.277 C 
ENDBRANCH  12  17
BRANCH  15  19
ATOM     19  C   UNL     1      -2.682   1.669  -2.461  0.00  0.00    -0.078 C 
BRANCH  19  20
ATOM     20  C   UNL     1      -1.973   1.038  -3.660  0.00  0.00    -0.017 C 
BRANCH  20  21
ATOM     21  C   UNL     1      -2.712   1.413  -4.946  0.00  0.00    +0.015 C 
BRANCH  21  22
ATOM     22  C   UNL     1      -1.993   0.795  -6.147  0.00  0.00    +0.106 C 
BRANCH  22  23
ATOM     23  N   UNL     1      -2.702   1.154  -7.378  0.00  0.00    -0.190 NA
ATOM     24  H   UNL     1      -3.602   1.511  -7.332  0.00  0.00    +0.148 HD
BRANCH  23  25
ATOM     25  S   UNL     1      -1.965   0.949  -8.847  0.00  0.00    +0.058 S 
ATOM     26  O   UNL     1      -2.905   1.355  -9.832  0.00  0.00    -0.153 OA
ATOM     27  O   UNL     1      -0.674   1.532  -8.739  0.00  0.00    -0.153 OA
BRANCH  25  32
ATOM     28  C   UNL     1      -1.123  -4.977  -9.608  0.00  0.00    +0.044 C 
ATOM     29  C   UNL     1      -1.333  -3.497  -9.418  0.00  0.00    -0.050 A 
ATOM     30  C   UNL     1      -2.502  -2.903  -9.857  0.00  0.00    +0.005 A 
ATOM     31  C   UNL     1      -2.695  -1.546  -9.682  0.00  0.00    +0.029 A 
ATOM     32  C   UNL     1      -1.719  -0.782  -9.069  0.00  0.00    +0.105 A 
ATOM     33  C   UNL     1      -0.548  -1.375  -8.636  0.00  0.00    +0.029 A 
ATOM     34  C   UNL     1      -0.357  -2.733  -8.807  0.00  0.00    +0.005 A 
ENDBRANCH  25  32
ENDBRANCH  23  25
ENDBRANCH  22  23
ENDBRANCH  21  22
ENDBRANCH  20  21
ENDBRANCH  19  20
ENDBRANCH  15  19
TORSDOF 8
