REMARK  Name = ZINC41105211
REMARK  9 active torsions:
REMARK  status: ('A' for Active; 'I' for Inactive)
REMARK    1  A    between atoms: C_1  and  C_2
REMARK    2  A    between atoms: C_5  and  C_16
REMARK    3  A    between atoms: N_8  and  C_10
REMARK    4  A    between atoms: N_18  and  C_19
REMARK    5  A    between atoms: C_19  and  C_20
REMARK    6  A    between atoms: C_20  and  S_21
REMARK    7  A    between atoms: S_21  and  C_22
REMARK    8  A    between atoms: C_25  and  C_28
REMARK    9  A    between atoms: N_26  and  C_27
REMARK                            x       y       z     vdW  Elec       q    Type
REMARK                         _______ _______ _______ _____ _____    ______ ____
ROOT
ATOM      1  C   UNL     1      -0.150  -1.799  -4.928  0.00  0.00    +0.251 C 
ATOM      2  O   UNL     1      -0.336  -0.807  -5.607  0.00  0.00    -0.270 OA
ATOM      3  N   UNL     1      -0.066  -3.011  -5.512  0.00  0.00    -0.310 N 
ATOM      4  H   UNL     1       0.083  -3.801  -4.971  0.00  0.00    +0.149 HD
ENDROOT
BRANCH   1   9
ATOM      5  C   UNL     1      -0.081   1.692  -0.172  0.00  0.00    +0.068 C 
ATOM      6  C   UNL     1       0.097   0.196  -0.158  0.00  0.00    +0.069 A 
ATOM      7  C   UNL     1       0.081  -0.654  -1.313  0.00  0.00    +0.031 A 
ATOM      8  C   UNL     1      -0.072  -0.552  -2.704  0.00  0.00    +0.032 A 
ATOM      9  C   UNL     1      -0.016  -1.677  -3.473  0.00  0.00    +0.076 A 
ATOM     10  S   UNL     1       0.258  -2.962  -2.266  0.00  0.00    -0.064 S 
ATOM     11  C   UNL     1       0.285  -1.948  -0.811  0.00  0.00    +0.113 A 
ATOM     12  N   UNL     1       0.412  -1.875   0.530  0.00  0.00    -0.225 N 
ATOM     13  N   UNL     1       0.296  -0.529   0.901  0.00  0.00    -0.170 NA
BRANCH  12  14
ATOM     14  C   UNL     1       0.627  -2.954   1.397  0.00  0.00    +0.067 A 
ATOM     15  C   UNL     1       0.053  -4.189   1.127  0.00  0.00    +0.028 A 
ATOM     16  C   UNL     1       0.267  -5.251   1.984  0.00  0.00    +0.002 A 
ATOM     17  C   UNL     1       1.052  -5.084   3.111  0.00  0.00    +0.000 A 
ATOM     18  C   UNL     1       1.624  -3.855   3.383  0.00  0.00    +0.002 A 
ATOM     19  C   UNL     1       1.419  -2.791   2.526  0.00  0.00    +0.028 A 
ENDBRANCH  12  14
ENDBRANCH   1   9
BRANCH   3  20
ATOM     20  C   UNL     1      -0.199  -3.133  -6.966  0.00  0.00    +0.115 C 
BRANCH  20  21
ATOM     21  C   UNL     1      -0.065  -4.603  -7.368  0.00  0.00    +0.096 C 
BRANCH  21  22
ATOM     22  S   UNL     1      -0.230  -4.755  -9.168  0.00  0.00    -0.084 S 
BRANCH  22  23
ATOM     23  C   UNL     1      -0.056  -6.483  -9.469  0.00  0.00    +0.192 A 
ATOM     24  N   UNL     1       0.141  -7.415  -8.563  0.00  0.00    -0.122 NA
ATOM     25  N   UNL     1       0.222  -8.567  -9.127  0.00  0.00    -0.128 NA
ATOM     26  C   UNL     1       0.082  -8.441 -10.426  0.00  0.00    +0.165 A 
ATOM     27  N   UNL     1      -0.106  -7.103 -10.684  0.00  0.00    -0.305 N 
ATOM     28  C   UNL     1      -0.314  -6.474 -11.991  0.00  0.00    +0.153 C 
BRANCH  26  29
ATOM     29  C   UNL     1       0.115  -9.532 -11.423  0.00  0.00    +0.019 A 
ATOM     30  C   UNL     1       0.332  -9.243 -12.771  0.00  0.00    +0.011 A 
ATOM     31  C   UNL     1       0.362 -10.266 -13.697  0.00  0.00    +0.001 A 
ATOM     32  C   UNL     1       0.176 -11.576 -13.291  0.00  0.00    +0.000 A 
ATOM     33  C   UNL     1      -0.040 -11.869 -11.956  0.00  0.00    +0.001 A 
ATOM     34  C   UNL     1      -0.067 -10.856 -11.020  0.00  0.00    +0.011 A 
ENDBRANCH  26  29
ENDBRANCH  22  23
ENDBRANCH  21  22
ENDBRANCH  20  21
ENDBRANCH   3  20
TORSDOF 7
