REMARK  Name = ZINC39634604
REMARK  9 active torsions:
REMARK  status: ('A' for Active; 'I' for Inactive)
REMARK    1  A    between atoms: C_1  and  O_2
REMARK    2  A    between atoms: O_2  and  C_3
REMARK    3  A    between atoms: C_6  and  C_11
REMARK    4  A    between atoms: C_8  and  O_9
REMARK    5  A    between atoms: O_9  and  C_10
REMARK    6  A    between atoms: C_11  and  C_12
REMARK    7  A    between atoms: C_12  and  N_13
REMARK    8  A    between atoms: C_14  and  C_16
REMARK    9  A    between atoms: C_27  and  C_29
REMARK                            x       y       z     vdW  Elec       q    Type
REMARK                         _______ _______ _______ _____ _____    ______ ____
ROOT
ATOM      1  C   UNL     1      -8.688  -4.551  -2.550  0.00  0.00    +0.100 C 
ATOM      2  C   UNL     1      -9.728  -3.714  -1.773  0.00  0.00    +0.121 C 
ATOM      3  N   UNL     1     -10.428  -2.926  -2.815  0.00  0.00    -0.297 N 
ATOM      4  C   UNL     1     -10.575  -3.866  -3.952  0.00  0.00    +0.115 C 
ATOM      5  C   UNL     1      -9.249  -4.652  -3.978  0.00  0.00    -0.004 C 
ATOM      6  C   UNL     1      -9.507  -6.111  -4.343  0.00  0.00    -0.010 C 
ATOM      7  C   UNL     1     -10.009  -6.191  -5.787  0.00  0.00    -0.082 C 
ATOM      8  N   UNL     1      -9.006  -5.610  -6.689  0.00  0.00    +0.379 N 
ATOM      9  C   UNL     1      -8.832  -4.183  -6.391  0.00  0.00    -0.082 C 
ATOM     10  C   UNL     1      -8.281  -4.019  -4.972  0.00  0.00    -0.010 C 
ATOM     11  C   UNL     1     -10.838  -1.644  -2.745  0.00  0.00    +0.260 C 
ATOM     12  O   UNL     1     -11.403  -1.136  -3.690  0.00  0.00    -0.271 OA
ATOM     13  H   UNL     1      -8.126  -6.088  -6.563  0.00  0.00    -0.086 HD
ATOM     14  H   UNL     1      -9.312  -5.718  -7.644  0.00  0.00    -0.086 HD
ENDROOT
BRANCH  11  15
ATOM     15  C   UNL     1     -10.596  -0.843  -1.492  0.00  0.00    +0.296 C 
ATOM     16  C   UNL     1     -11.406  -1.438  -0.332  0.00  0.00    +0.283 C 
ATOM     17  O   UNL     1     -11.164  -0.646   0.836  0.00  0.00    -0.484 OA
ATOM     18  C   UNL     1     -11.226   0.705   0.683  0.00  0.00    +0.162 A 
ATOM     19  C   UNL     1     -11.364   1.511   1.803  0.00  0.00    +0.049 A 
ATOM     20  C   UNL     1     -11.425   2.885   1.664  0.00  0.00    +0.004 A 
ATOM     21  C   UNL     1     -11.348   3.459   0.408  0.00  0.00    +0.004 A 
ATOM     22  C   UNL     1     -11.211   2.661  -0.712  0.00  0.00    +0.049 A 
ATOM     23  C   UNL     1     -11.151   1.282  -0.579  0.00  0.00    +0.163 A 
ATOM     24  O   UNL     1     -11.024   0.508  -1.692  0.00  0.00    -0.473 OA
ENDBRANCH  11  15
BRANCH   1  26
ATOM     25  N   UNL     1      -6.216  -4.572  -2.646  0.00  0.00    -0.315 N 
ATOM     26  C   UNL     1      -7.353  -3.853  -2.559  0.00  0.00    +0.218 C 
ATOM     27  O   UNL     1      -7.301  -2.643  -2.488  0.00  0.00    -0.275 OA
ATOM     28  H   UNL     1      -6.257  -5.539  -2.703  0.00  0.00    +0.149 HD
BRANCH  25  29
ATOM     29  C   UNL     1      -4.918  -3.892  -2.655  0.00  0.00    +0.109 C 
BRANCH  29  30
ATOM     30  C   UNL     1      -3.800  -4.931  -2.760  0.00  0.00    +0.054 C 
BRANCH  30  34
ATOM     31  C   UNL     1      -0.011  -2.948  -2.779  0.00  0.00    +0.161 A 
ATOM     32  C   UNL     1      -0.583  -3.344  -1.581  0.00  0.00    +0.049 A 
ATOM     33  C   UNL     1      -1.808  -3.984  -1.578  0.00  0.00    +0.007 A 
ATOM     34  C   UNL     1      -2.465  -4.232  -2.769  0.00  0.00    -0.042 A 
ATOM     35  C   UNL     1      -1.899  -3.840  -3.968  0.00  0.00    +0.053 A 
ATOM     36  C   UNL     1      -0.674  -3.192  -3.978  0.00  0.00    +0.162 A 
BRANCH  31  38
ATOM     37  C   UNL     1       1.818  -2.100  -1.517  0.00  0.00    +0.277 C 
ATOM     38  O   UNL     1       1.194  -2.317  -2.784  0.00  0.00    -0.491 OA
ENDBRANCH  31  38
BRANCH  36  39
ATOM     39  O   UNL     1      -0.119  -2.801  -5.156  0.00  0.00    -0.491 OA
ATOM     40  C   UNL     1      -0.857  -3.084  -6.346  0.00  0.00    +0.277 C 
ENDBRANCH  36  39
ENDBRANCH  30  34
ENDBRANCH  29  30
ENDBRANCH  25  29
ENDBRANCH   1  26
TORSDOF 7
