REMARK  Name = ZINC27574773
REMARK  10 active torsions:
REMARK  status: ('A' for Active; 'I' for Inactive)
REMARK    1  A    between atoms: C_1  and  C_2
REMARK    2  A    between atoms: C_2  and  C_29
REMARK    3  A    between atoms: N_5  and  N_9
REMARK    4  A    between atoms: C_10  and  C_12
REMARK    5  A    between atoms: C_12  and  N_13
REMARK    6  A    between atoms: N_13  and  C_14
REMARK    7  A    between atoms: N_13  and  C_24
REMARK    8  A    between atoms: C_14  and  C_15
REMARK    9  A    between atoms: C_29  and  C_30
REMARK   10  A    between atoms: C_30  and  C_31
REMARK                            x       y       z     vdW  Elec       q    Type
REMARK                         _______ _______ _______ _____ _____    ______ ____
ROOT
ATOM      1  N   UNL     1      -0.391   6.140   4.120  0.00  0.00    -0.225 N 
ATOM      2  C   UNL     1       0.773   6.162   3.441  0.00  0.00    +0.213 C 
ATOM      3  O   UNL     1       0.892   5.516   2.421  0.00  0.00    -0.276 OA
ATOM      4  H   UNL     1      -0.499   6.727   5.044  0.00  0.00    +0.173 HD
ENDROOT
BRANCH   1   9
ATOM      5  C   UNL     1      -3.638   4.580   1.200  0.00  0.00    +0.041 C 
ATOM      6  C   UNL     1      -3.432   4.691   2.712  0.00  0.00    +0.112 C 
ATOM      7  C   UNL     1      -2.553   5.881   3.044  0.00  0.00    +0.263 C 
ATOM      8  O   UNL     1      -2.783   7.048   2.813  0.00  0.00    -0.271 OA
ATOM      9  N   UNL     1      -1.462   5.370   3.649  0.00  0.00    -0.137 N 
ATOM     10  C   UNL     1      -1.529   4.037   3.745  0.00  0.00    +0.326 C 
ATOM     11  O   UNL     1      -0.663   3.352   4.252  0.00  0.00    -0.251 OA
ATOM     12  N   UNL     1      -2.662   3.541   3.216  0.00  0.00    -0.284 N 
ATOM     13  H   UNL     1      -3.062   2.522   3.110  0.00  0.00    +0.151 HD
BRANCH   6  14
ATOM     14  C   UNL     1      -4.778   4.794   3.431  0.00  0.00    +0.040 C 
BRANCH  14  15
ATOM     15  C   UNL     1      -5.568   3.501   3.222  0.00  0.00    +0.038 C 
BRANCH  15  16
ATOM     16  C   UNL     1      -6.894   3.603   3.930  0.00  0.00    -0.047 A 
ATOM     17  C   UNL     1      -7.011   3.183   5.242  0.00  0.00    +0.003 A 
ATOM     18  C   UNL     1      -8.227   3.280   5.894  0.00  0.00    +0.000 A 
ATOM     19  C   UNL     1      -9.328   3.788   5.230  0.00  0.00    +0.000 A 
ATOM     20  C   UNL     1      -9.212   4.204   3.917  0.00  0.00    +0.000 A 
ATOM     21  C   UNL     1      -7.996   4.110   3.267  0.00  0.00    +0.003 A 
ENDBRANCH  15  16
ENDBRANCH  14  15
ENDBRANCH   6  14
ENDBRANCH   1   9
BRANCH   2  22
ATOM     22  C   UNL     1       1.926   6.991   3.947  0.00  0.00    +0.021 C 
BRANCH  22  23
ATOM     23  N   UNL     1       3.091   6.794   3.074  0.00  0.00    +0.390 N 
ATOM     24  H   UNL     1       2.735   6.357   2.129  0.00  0.00    -0.080 HD
BRANCH  23  25
ATOM     25  C   UNL     1       4.046   5.854   3.675  0.00  0.00    -0.067 C 
ATOM     26  C   UNL     1       3.382   4.475   3.865  0.00  0.00    -0.015 C 
ATOM     27  C   UNL     1       3.960   3.958   5.206  0.00  0.00    -0.002 C 
ATOM     28  C   UNL     1       4.026   5.243   6.068  0.00  0.00    -0.002 C 
ATOM     29  C   UNL     1       4.456   6.343   5.075  0.00  0.00    -0.015 C 
ENDBRANCH  23  25
BRANCH  23  30
ATOM     30  C   UNL     1       3.737   8.076   2.762  0.00  0.00    -0.042 C 
BRANCH  30  31
ATOM     31  C   UNL     1       4.768   7.869   1.683  0.00  0.00    -0.060 A 
ATOM     32  C   UNL     1       6.096   7.689   2.022  0.00  0.00    +0.005 A 
ATOM     33  C   UNL     1       7.045   7.494   1.036  0.00  0.00    +0.050 A 
ATOM     34  C   UNL     1       6.668   7.490  -0.297  0.00  0.00    +0.166 A 
ATOM     35  C   UNL     1       5.330   7.676  -0.640  0.00  0.00    +0.166 A 
ATOM     36  C   UNL     1       4.385   7.865   0.355  0.00  0.00    +0.051 A 
ATOM     37  O   UNL     1       5.218   7.630  -1.999  0.00  0.00    -0.453 OA
ATOM     38  C   UNL     1       6.553   7.822  -2.502  0.00  0.00    +0.466 C 
ATOM     39  O   UNL     1       7.393   7.327  -1.443  0.00  0.00    -0.453 OA
ENDBRANCH  30  31
ENDBRANCH  23  30
ENDBRANCH  22  23
ENDBRANCH   2  22
TORSDOF 9
