REMARK  Name = ZINC14200252
REMARK  10 active torsions:
REMARK  status: ('A' for Active; 'I' for Inactive)
REMARK    1  A    between atoms: C_1  and  C_2
REMARK    2  A    between atoms: C_2  and  C_3
REMARK    3  A    between atoms: C_2  and  C_4
REMARK    4  A    between atoms: C_2  and  N_5
REMARK    5  A    between atoms: N_5  and  S_6
REMARK    6  A    between atoms: S_6  and  C_9
REMARK    7  A    between atoms: C_12  and  C_15
REMARK    8  A    between atoms: N_17  and  C_18
REMARK    9  A    between atoms: C_18  and  C_19
REMARK   10  A    between atoms: N_24  and  C_27
REMARK                            x       y       z     vdW  Elec       q    Type
REMARK                         _______ _______ _______ _____ _____    ______ ____
ROOT
ATOM      1  C   UNL     1      -2.123   4.248   4.694  0.00  0.00    +0.244 C 
ATOM      2  O   UNL     1      -3.103   3.927   5.338  0.00  0.00    -0.270 OA
ATOM      3  N   UNL     1      -1.416   5.341   5.043  0.00  0.00    -0.303 N 
ATOM      4  H   UNL     1      -0.634   5.598   4.529  0.00  0.00    +0.150 HD
ENDROOT
BRANCH   1   8
ATOM      5  C   UNL     1      -0.927   1.925   1.345  0.00  0.00    +0.105 A 
ATOM      6  C   UNL     1      -0.196   3.043   1.704  0.00  0.00    +0.029 A 
ATOM      7  C   UNL     1      -0.582   3.805   2.787  0.00  0.00    +0.015 A 
ATOM      8  C   UNL     1      -1.707   3.439   3.529  0.00  0.00    +0.037 A 
ATOM      9  C   UNL     1      -2.436   2.306   3.165  0.00  0.00    +0.015 A 
ATOM     10  C   UNL     1      -2.043   1.556   2.077  0.00  0.00    +0.029 A 
BRANCH   5  11
ATOM     11  S   UNL     1      -0.432   0.961  -0.044  0.00  0.00    +0.059 S 
ATOM     12  O   UNL     1      -0.626  -0.400   0.315  0.00  0.00    -0.153 OA
ATOM     13  O   UNL     1       0.830   1.466  -0.460  0.00  0.00    -0.153 OA
BRANCH  11  14
ATOM     14  N   UNL     1      -1.498   1.284  -1.269  0.00  0.00    -0.185 NA
ATOM     15  H   UNL     1      -2.116   0.599  -1.568  0.00  0.00    +0.149 HD
BRANCH  14  17
ATOM     16  C   UNL     1      -0.145   2.873  -2.545  0.00  0.00    +0.029 C 
ATOM     17  C   UNL     1      -1.508   2.605  -1.902  0.00  0.00    +0.032 C 
ATOM     18  C   UNL     1      -2.596   2.648  -2.977  0.00  0.00    +0.029 C 
ATOM     19  C   UNL     1      -1.793   3.675  -0.846  0.00  0.00    +0.029 C 
ENDBRANCH  14  17
ENDBRANCH  11  14
ENDBRANCH   5  11
ENDBRANCH   1   8
BRANCH   3  20
ATOM     20  C   UNL     1      -1.829   6.143   6.197  0.00  0.00    +0.200 C 
BRANCH  20  21
ATOM     21  C   UNL     1      -0.879   7.300   6.371  0.00  0.00    +0.233 C 
ATOM     22  O   UNL     1       0.051   7.441   5.606  0.00  0.00    -0.274 OA
ATOM     23  N   UNL     1      -1.063   8.178   7.377  0.00  0.00    -0.297 N 
ATOM     24  C   UNL     1      -2.188   8.029   8.313  0.00  0.00    +0.126 C 
ATOM     25  C   UNL     1      -1.634   8.087   9.745  0.00  0.00    +0.125 C 
ATOM     26  N   UNL     1      -0.848   9.317   9.911  0.00  0.00    -0.314 N 
ATOM     27  C   UNL     1       0.322   9.325   9.023  0.00  0.00    +0.125 C 
ATOM     28  C   UNL     1      -0.148   9.314   7.564  0.00  0.00    +0.126 C 
BRANCH  26  29
ATOM     29  C   UNL     1      -0.468   9.490  11.237  0.00  0.00    +0.099 A 
ATOM     30  C   UNL     1      -1.438   9.511  12.235  0.00  0.00    +0.042 A 
ATOM     31  C   UNL     1      -1.046   9.684  13.550  0.00  0.00    +0.005 A 
ATOM     32  C   UNL     1       0.308   9.832  13.824  0.00  0.00    +0.018 A 
ATOM     33  C   UNL     1       1.216   9.801  12.784  0.00  0.00    +0.084 A 
ATOM     34  N   UNL     1       0.867   9.627  11.482  0.00  0.00    -0.350 N 
ATOM     35  H   UNL     1       1.565   9.599  10.729  0.00  0.00    +0.166 HD
ENDBRANCH  26  29
ENDBRANCH  20  21
ENDBRANCH   3  20
TORSDOF 7
