REMARK  Name = ZINC50496013
REMARK  4 active torsions:
REMARK  status: ('A' for Active; 'I' for Inactive)
REMARK    1  A    between atoms: C_1  and  C_2
REMARK    2  A    between atoms: C_4  and  N_21
REMARK    3  A    between atoms: C_7  and  N_8
REMARK    4  A    between atoms: C_9  and  C_11
REMARK                            x       y       z     vdW  Elec       q    Type
REMARK                         _______ _______ _______ _____ _____    ______ ____
ROOT
ATOM      1  N   UNL     1       0.024  -0.011   2.417  0.00  0.00    -0.280 N 
ATOM      2  C   UNL     1      -0.440  -0.484   3.591  0.00  0.00    +0.265 C 
ATOM      3  O   UNL     1      -0.821  -1.637   3.674  0.00  0.00    -0.268 OA
ATOM      4  H   UNL     1       0.380   0.890   2.364  0.00  0.00    +0.155 HD
ENDROOT
BRANCH   2   5
ATOM      5  C   UNL     1      -0.486   0.392   4.770  0.00  0.00    +0.103 A 
ATOM      6  C   UNL     1      -0.925   0.030   6.004  0.00  0.00    +0.040 A 
ATOM      7  C   UNL     1      -0.806   1.157   6.852  0.00  0.00    +0.000 A 
ATOM      8  C   UNL     1      -1.099   1.380   8.204  0.00  0.00    +0.010 A 
ATOM      9  C   UNL     1      -0.871   2.607   8.755  0.00  0.00    +0.001 A 
ATOM     10  C   UNL     1      -0.350   3.641   7.987  0.00  0.00    +0.002 A 
ATOM     11  C   UNL     1      -0.054   3.448   6.657  0.00  0.00    +0.026 A 
ATOM     12  C   UNL     1      -0.278   2.204   6.072  0.00  0.00    +0.047 A 
ATOM     13  N   UNL     1      -0.084   1.713   4.802  0.00  0.00    -0.351 N 
ATOM     14  H   UNL     1       0.275   2.213   4.052  0.00  0.00    +0.166 HD
ENDBRANCH   2   5
BRANCH   1  21
ATOM     15  C   UNL     1      -0.079   1.260  -0.124  0.00  0.00    +0.046 C 
ATOM     16  C   UNL     1      -0.057  -0.240   0.014  0.00  0.00    -0.027 A 
ATOM     17  C   UNL     1      -0.081  -1.038  -1.113  0.00  0.00    +0.028 A 
ATOM     18  C   UNL     1      -0.061  -2.420  -0.985  0.00  0.00    +0.030 A 
ATOM     19  C   UNL     1      -0.016  -3.001   0.276  0.00  0.00    +0.025 A 
ATOM     20  C   UNL     1       0.008  -2.204   1.402  0.00  0.00    +0.025 A 
ATOM     21  C   UNL     1      -0.006  -0.820   1.274  0.00  0.00    +0.037 A 
BRANCH  18  22
ATOM     22  N   UNL     1      -0.086  -3.229  -2.127  0.00  0.00    -0.328 N 
ATOM     23  C   UNL     1       0.057  -4.679  -1.990  0.00  0.00    +0.116 C 
ATOM     24  C   UNL     1      -1.246  -5.363  -2.416  0.00  0.00    +0.088 C 
ATOM     25  S   UNL     1      -1.631  -4.868  -4.123  0.00  0.00    -0.158 S 
ATOM     26  C   UNL     1      -1.595  -3.052  -4.045  0.00  0.00    +0.088 C 
ATOM     27  C   UNL     1      -0.260  -2.614  -3.444  0.00  0.00    +0.116 C 
ENDBRANCH  18  22
ENDBRANCH   1  21
TORSDOF 3
