REMARK  Name = ZINC45145111
REMARK  8 active torsions:
REMARK  status: ('A' for Active; 'I' for Inactive)
REMARK    1  A    between atoms: C_1  and  C_2
REMARK    2  A    between atoms: C_4  and  C_19
REMARK    3  A    between atoms: C_6  and  C_8
REMARK    4  A    between atoms: N_10  and  C_11
REMARK    5  A    between atoms: N_10  and  C_12
REMARK    6  A    between atoms: C_12  and  C_14
REMARK    7  A    between atoms: C_12  and  C_15
REMARK    8  A    between atoms: N_16  and  O_17
REMARK                            x       y       z     vdW  Elec       q    Type
REMARK                         _______ _______ _______ _____ _____    ______ ____
ROOT
ATOM      1  C   UNL     1      -0.161  -3.084   2.608  0.00  0.00    +0.247 C 
ATOM      2  O   UNL     1      -0.139  -4.289   2.763  0.00  0.00    -0.270 OA
ATOM      3  N   UNL     1       0.061  -2.265   3.655  0.00  0.00    -0.291 N 
ATOM      4  C   UNL     1      -0.079  -0.816   3.495  0.00  0.00    +0.133 C 
ENDROOT
BRANCH   1  10
ATOM      5  C   UNL     1       0.514  -3.170  -2.336  0.00  0.00    +0.044 C 
ATOM      6  C   UNL     1      -0.108  -2.552  -1.110  0.00  0.00    -0.049 A 
ATOM      7  C   UNL     1      -0.934  -1.449  -1.236  0.00  0.00    +0.006 A 
ATOM      8  C   UNL     1      -1.509  -0.876  -0.116  0.00  0.00    -0.049 A 
ATOM      9  C   UNL     1      -1.262  -1.402   1.136  0.00  0.00    +0.016 A 
ATOM     10  C   UNL     1      -0.430  -2.515   1.270  0.00  0.00    +0.037 A 
ATOM     11  C   UNL     1       0.143  -3.091   0.135  0.00  0.00    +0.016 A 
ATOM     12  C   UNL     1      -2.407   0.325  -0.262  0.00  0.00    +0.044 C 
ENDBRANCH   1  10
BRANCH   3  13
ATOM     13  C   UNL     1       0.443  -2.825   4.954  0.00  0.00    +0.139 C 
ATOM     14  C   UNL     1       1.832  -2.314   5.342  0.00  0.00    +0.036 C 
BRANCH  13  15
ATOM     15  C   UNL     1      -0.558  -2.400   5.998  0.00  0.00    +0.152 C 
ATOM     16  N   UNL     1      -1.624  -1.760   5.648  0.00  0.00    -0.075 NA
ATOM     17  N   UNL     1      -0.336  -2.695   7.325  0.00  0.00    -0.342 N 
ATOM     18  H   UNL     1       0.496  -3.112   7.596  0.00  0.00    +0.144 HD
ATOM     19  H   UNL     1      -1.013  -2.485   7.988  0.00  0.00    +0.144 HD
BRANCH  16  20
ATOM     20  O   UNL     1      -2.564  -1.361   6.628  0.00  0.00    -0.408 OA
ATOM     21  H   UNL     1      -3.328  -0.888   6.271  0.00  0.00    +0.328 HD
ENDBRANCH  16  20
ENDBRANCH  13  15
ENDBRANCH   3  13
TORSDOF 4
