REMARK  Name = ZINC63438448
REMARK  3 active torsions:
REMARK  status: ('A' for Active; 'I' for Inactive)
REMARK    1  A    between atoms: C_4  and  C_7
REMARK    2  A    between atoms: C_10  and  C_11
REMARK    3  A    between atoms: C_14  and  C_16
REMARK                            x       y       z     vdW  Elec       q    Type
REMARK                         _______ _______ _______ _____ _____    ______ ____
ROOT
ATOM      1  C   UNL     1       3.711  -0.677   0.086  0.00  0.00    +0.232 C 
ATOM      2  N   UNL     1       3.843  -1.970   0.192  0.00  0.00    -0.205 NA
ATOM      3  C   UNL     1       5.135  -2.310  -0.083  0.00  0.00    +0.154 C 
ATOM      4  C   UNL     1       5.685  -3.579  -0.081  0.00  0.00    +0.063 C 
ATOM      5  C   UNL     1       5.820  -1.043  -0.384  0.00  0.00    +0.364 C 
ATOM      6  O   UNL     1       6.990  -0.889  -0.682  0.00  0.00    -0.243 OA
ATOM      7  O   UNL     1       4.872  -0.089  -0.262  0.00  0.00    -0.402 OA
ENDROOT
BRANCH   1  11
ATOM      8  C   UNL     1       0.074   1.416   0.736  0.00  0.00    +0.000 A 
ATOM      9  C   UNL     1       1.216   2.113   0.382  0.00  0.00    +0.001 A 
ATOM     10  C   UNL     1       2.401   1.440   0.169  0.00  0.00    +0.013 A 
ATOM     11  C   UNL     1       2.446   0.051   0.312  0.00  0.00    +0.037 A 
ATOM     12  C   UNL     1       1.290  -0.646   0.670  0.00  0.00    +0.013 A 
ATOM     13  C   UNL     1       0.112   0.041   0.880  0.00  0.00    +0.001 A 
ENDBRANCH   1  11
BRANCH   4  14
ATOM     14  C   UNL     1       7.089  -3.743  -0.201  0.00  0.00    +0.074 A 
ATOM     15  C   UNL     1       7.647  -5.007  -0.323  0.00  0.00    +0.075 A 
ATOM     16  S   UNL     1       9.292  -4.671  -0.431  0.00  0.00    -0.072 S 
ATOM     17  C   UNL     1       9.203  -2.893  -0.314  0.00  0.00    +0.144 A 
ATOM     18  N   UNL     1       7.902  -2.686  -0.205  0.00  0.00    -0.236 NA
BRANCH  17  19
ATOM     19  C   UNL     1      10.296  -1.910  -0.339  0.00  0.00    +0.160 A 
ATOM     20  C   UNL     1      11.624  -2.191  -0.466  0.00  0.00    +0.052 A 
ATOM     21  C   UNL     1      12.303  -0.959  -0.442  0.00  0.00    +0.042 A 
ATOM     22  C   UNL     1      11.370   0.005  -0.302  0.00  0.00    +0.196 A 
ATOM     23  O   UNL     1      10.160  -0.572  -0.245  0.00  0.00    -0.461 OA
ENDBRANCH  17  19
ENDBRANCH   4  14
TORSDOF 3
