REMARK  Name = ZINC03646032
REMARK  8 active torsions:
REMARK  status: ('A' for Active; 'I' for Inactive)
REMARK    1  A    between atoms: C_1  and  N_63
REMARK    2  A    between atoms: C_2  and  C_3
REMARK    3  A    between atoms: C_2  and  N_63
REMARK    4  A    between atoms: C_3  and  N_4
REMARK    5  A    between atoms: N_4  and  C_5
REMARK    6  A    between atoms: C_5  and  N_7
REMARK    7  A    between atoms: N_7  and  C_8
REMARK    8  A    between atoms: C_24  and  N_63
REMARK                            x       y       z     vdW  Elec       q    Type
REMARK                         _______ _______ _______ _____ _____    ______ ____
ROOT
ATOM      1  N   UNL     1       1.458  -2.233  -2.534  0.00  0.00    -0.297 N 
ATOM      2  H   UNL     1       1.572  -1.620  -3.276  0.00  0.00    +0.154 HD
ENDROOT
BRANCH   1   3
ATOM      3  C   UNL     1       1.695  -3.601  -2.713  0.00  0.00    +0.033 A 
ATOM      4  C   UNL     1       1.242  -4.237  -3.869  0.00  0.00    +0.025 A 
ATOM      5  C   UNL     1       1.466  -5.569  -4.070  0.00  0.00    +0.030 A 
ATOM      6  C   UNL     1       2.146  -6.315  -3.104  0.00  0.00    +0.078 A 
ATOM      7  C   UNL     1       2.602  -5.676  -1.930  0.00  0.00    +0.067 A 
ATOM      8  C   UNL     1       2.373  -4.315  -1.741  0.00  0.00    +0.038 A 
ATOM      9  C   UNL     1       3.315  -6.492  -0.935  0.00  0.00    +0.262 A 
ATOM     10  O   UNL     1       3.737  -6.004   0.098  0.00  0.00    -0.267 OA
ATOM     11  N   UNL     1       3.484  -7.801  -1.211  0.00  0.00    -0.296 N 
ATOM     12  C   UNL     1       3.014  -8.342  -2.377  0.00  0.00    +0.113 A 
ATOM     13  N   UNL     1       2.381  -7.641  -3.267  0.00  0.00    -0.234 NA
ATOM     14  C   UNL     1       3.257  -9.816  -2.616  0.00  0.00    +0.074 C 
ATOM     15  C   UNL     1       4.733 -10.032  -2.940  0.00  0.00    +0.008 C 
ATOM     16  C   UNL     1       5.549 -10.238  -1.676  0.00  0.00    +0.002 C 
ATOM     17  C   UNL     1       5.571  -8.998  -0.798  0.00  0.00    +0.022 C 
ATOM     18  C   UNL     1       4.177  -8.680  -0.262  0.00  0.00    +0.126 C 
ENDBRANCH   1   3
BRANCH   1  19
ATOM     19  C   UNL     1       1.070  -1.769  -1.329  0.00  0.00    +0.134 C 
ATOM     20  S   UNL     1       0.731  -2.865  -0.058  0.00  0.00    -0.019 S 
BRANCH  19  21
ATOM     21  N   UNL     1       0.950  -0.442  -1.125  0.00  0.00    -0.328 N 
ATOM     22  H   UNL     1       1.142   0.179  -1.846  0.00  0.00    +0.148 HD
BRANCH  21  23
ATOM     23  C   UNL     1       0.529   0.062   0.184  0.00  0.00    +0.084 C 
BRANCH  23  24
ATOM     24  C   UNL     1       0.473   1.591   0.147  0.00  0.00    -0.060 C 
BRANCH  24  26
ATOM     25  C   UNL     1      -1.333   1.704   1.756  0.00  0.00    -0.096 C 
ATOM     26  N   UNL     1       0.068   2.085   1.480  0.00  0.00    +0.381 N 
ATOM     27  H   UNL     1       0.675   1.662   2.192  0.00  0.00    -0.082 HD
BRANCH  26  28
ATOM     28  C   UNL     1       0.212   3.555   1.539  0.00  0.00    -0.069 C 
ATOM     29  C   UNL     1       1.683   3.918   1.323  0.00  0.00    -0.015 C 
ATOM     30  C   UNL     1       1.851   5.437   1.405  0.00  0.00    -0.002 C 
ATOM     31  C   UNL     1       1.402   5.926   2.784  0.00  0.00    -0.000 C 
ATOM     32  C   UNL     1      -0.068   5.563   3.000  0.00  0.00    -0.002 C 
ATOM     33  C   UNL     1      -0.236   4.044   2.918  0.00  0.00    -0.015 C 
ENDBRANCH  26  28
ENDBRANCH  24  26
ENDBRANCH  23  24
ENDBRANCH  21  23
ENDBRANCH  19  21
ENDBRANCH   1  19
TORSDOF 7
