REMARK  Name = ZINC36584343
REMARK  8 active torsions:
REMARK  status: ('A' for Active; 'I' for Inactive)
REMARK    1  A    between atoms: C_1  and  C_2
REMARK    2  A    between atoms: C_2  and  C_3
REMARK    3  A    between atoms: C_2  and  C_4
REMARK    4  A    between atoms: C_4  and  C_6
REMARK    5  A    between atoms: C_4  and  N_10
REMARK    6  A    between atoms: C_6  and  O_8
REMARK    7  A    between atoms: O_8  and  C_9
REMARK    8  A    between atoms: C_22  and  C_24
REMARK                            x       y       z     vdW  Elec       q    Type
REMARK                         _______ _______ _______ _____ _____    ______ ____
ROOT
ATOM      1  N   UNL     1       2.911  -1.957   0.328  0.00  0.00    -0.286 N 
ATOM      2  C   UNL     1       1.932  -2.480  -0.436  0.00  0.00    +0.304 C 
ATOM      3  O   UNL     1       1.087  -1.754  -0.922  0.00  0.00    -0.253 OA
ATOM      4  N   UNL     1       1.889  -3.808  -0.661  0.00  0.00    -0.273 N 
ATOM      5  C   UNL     1       0.901  -4.384  -1.584  0.00  0.00    +0.116 C 
ATOM      6  C   UNL     1      -0.049  -5.297  -0.797  0.00  0.00    +0.074 C 
ATOM      7  C   UNL     1       0.765  -6.159   0.131  0.00  0.00    +0.040 A 
ATOM      8  C   UNL     1       2.040  -5.908   0.498  0.00  0.00    +0.062 A 
ATOM      9  N   UNL     1       2.432  -6.878   1.327  0.00  0.00    -0.348 N 
ATOM     10  C   UNL     1       1.450  -7.726   1.488  0.00  0.00    +0.171 A 
ATOM     11  N   UNL     1       0.391  -7.311   0.755  0.00  0.00    -0.349 N 
ATOM     12  H   UNL     1      -0.471  -7.750   0.687  0.00  0.00    +0.166 HD
ATOM     13  C   UNL     1       2.837  -4.718   0.008  0.00  0.00    +0.159 C 
ATOM     14  H   UNL     1       3.542  -2.542   0.776  0.00  0.00    +0.151 HD
ATOM     15  H   UNL     1       3.305  -6.943   1.744  0.00  0.00    +0.167 HD
ENDROOT
BRANCH  13  16
ATOM     16  C   UNL     1       3.892  -5.169  -0.969  0.00  0.00    +0.014 A 
ATOM     17  C   UNL     1       4.304  -6.488  -0.981  0.00  0.00    +0.010 A 
ATOM     18  C   UNL     1       5.271  -6.903  -1.877  0.00  0.00    +0.016 A 
ATOM     19  C   UNL     1       5.828  -5.997  -2.763  0.00  0.00    +0.021 A 
ATOM     20  C   UNL     1       5.417  -4.677  -2.752  0.00  0.00    +0.054 A 
ATOM     21  C   UNL     1       4.444  -4.263  -1.858  0.00  0.00    +0.130 A 
ATOM     22  F   UNL     1       4.038  -2.975  -1.850  0.00  0.00    -0.205 F 
ATOM     23 BR   UNL     1       7.152  -6.566  -3.988  0.00  0.00    -0.050 Br
ENDBRANCH  13  16
BRANCH   1  24
ATOM     24  C   UNL     1       3.023  -0.504   0.483  0.00  0.00    +0.186 C 
BRANCH  24  26
ATOM     25  C   UNL     1       3.943   1.589  -0.522  0.00  0.00    +0.009 C 
ATOM     26  C   UNL     1       3.827   0.072  -0.684  0.00  0.00    +0.014 C 
ATOM     27  C   UNL     1       5.225  -0.548  -0.696  0.00  0.00    +0.009 C 
ENDBRANCH  24  26
BRANCH  24  28
ATOM     28  C   UNL     1       3.724  -0.190   1.780  0.00  0.00    +0.328 C 
ATOM     29  O   UNL     1       4.092  -1.087   2.501  0.00  0.00    -0.249 OA
BRANCH  28  30
ATOM     30  O   UNL     1       3.939   1.087   2.134  0.00  0.00    -0.467 OA
ATOM     31  C   UNL     1       4.608   1.312   3.376  0.00  0.00    +0.280 C 
ENDBRANCH  28  30
ENDBRANCH  24  28
ENDBRANCH   1  24
TORSDOF 5
