REMARK  Name = ZINC08704935
REMARK  6 active torsions:
REMARK  status: ('A' for Active; 'I' for Inactive)
REMARK    1  A    between atoms: C_1  and  C_2
REMARK    2  A    between atoms: C_8  and  S_12
REMARK    3  A    between atoms: C_9  and  C_10
REMARK    4  A    between atoms: S_12  and  C_13
REMARK    5  A    between atoms: C_13  and  C_14
REMARK    6  A    between atoms: C_16  and  C_19
REMARK                            x       y       z     vdW  Elec       q    Type
REMARK                         _______ _______ _______ _____ _____    ______ ____
ROOT
ATOM      1  S   UNL     1      -1.691  -1.278  -1.694  0.00  0.00    -0.100 S 
ENDROOT
BRANCH   1   9
ATOM      2  C   UNL     1      -5.673  -4.306  -3.356  0.00  0.00    +0.045 C 
ATOM      3  C   UNL     1      -4.883  -3.717  -2.216  0.00  0.00    -0.025 A 
ATOM      4  C   UNL     1      -5.223  -3.994  -0.925  0.00  0.00    +0.074 A 
ATOM      5  C   UNL     1      -4.481  -3.440   0.128  0.00  0.00    +0.250 A 
ATOM      6  O   UNL     1      -4.790  -3.692   1.281  0.00  0.00    -0.268 OA
ATOM      7  N   UNL     1      -3.430  -2.638  -0.119  0.00  0.00    -0.316 N 
ATOM      8  H   UNL     1      -2.926  -2.267   0.622  0.00  0.00    +0.169 HD
ATOM      9  C   UNL     1      -3.067  -2.337  -1.396  0.00  0.00    +0.094 A 
ATOM     10  C   UNL     1      -3.784  -2.871  -2.472  0.00  0.00    +0.085 A 
BRANCH  10  11
ATOM     11  C   UNL     1      -3.406  -2.563  -3.818  0.00  0.00    +0.102 C 
ATOM     12  N   UNL     1      -3.106  -2.319  -4.886  0.00  0.00    -0.191 NA
ENDBRANCH  10  11
ENDBRANCH   1   9
BRANCH   1  13
ATOM     13  C   UNL     1      -1.194  -0.920   0.009  0.00  0.00    +0.134 C 
BRANCH  13  14
ATOM     14  C   UNL     1       0.002  -0.004   0.002  0.00  0.00    +0.094 A 
ATOM     15  C   UNL     1      -0.017   1.404   0.010  0.00  0.00    +0.077 A 
ATOM     16  C   UNL     1       1.311   1.751  -0.001  0.00  0.00    +0.174 A 
ATOM     17  O   UNL     1       1.998   0.593  -0.014  0.00  0.00    -0.354 OA
ATOM     18  N   UNL     1       1.256  -0.361  -0.012  0.00  0.00    -0.082 NA
BRANCH  16  19
ATOM     19  C   UNL     1       1.869   3.111   0.001  0.00  0.00    +0.057 A 
ATOM     20  C   UNL     1       3.193   3.509  -0.004  0.00  0.00    +0.019 A 
ATOM     21  C   UNL     1       3.471   4.856  -0.005  0.00  0.00    +0.008 A 
ATOM     22  C   UNL     1       2.445   5.747   0.010  0.00  0.00    +0.046 A 
ATOM     23  S   UNL     1       1.015   4.678   0.017  0.00  0.00    -0.093 S 
ENDBRANCH  16  19
ENDBRANCH  13  14
ENDBRANCH   1  13
TORSDOF 5
