REMARK  Name = ZINC35317605
REMARK  10 active torsions:
REMARK  status: ('A' for Active; 'I' for Inactive)
REMARK    1  A    between atoms: C_1  and  C_2
REMARK    2  A    between atoms: C_2  and  C_3
REMARK    3  A    between atoms: C_2  and  C_4
REMARK    4  A    between atoms: C_4  and  N_5
REMARK    5  A    between atoms: N_5  and  C_6
REMARK    6  A    between atoms: C_6  and  C_7
REMARK    7  A    between atoms: N_11  and  C_12
REMARK    8  A    between atoms: C_12  and  C_13
REMARK    9  A    between atoms: C_19  and  C_21
REMARK   10  A    between atoms: C_24  and  C_26
REMARK                            x       y       z     vdW  Elec       q    Type
REMARK                         _______ _______ _______ _____ _____    ______ ____
ROOT
ATOM      1  N   UNL     1       2.124  -0.550  -1.459  0.00  0.00    -0.295 N 
ATOM      2  C   UNL     1       2.619   0.560  -2.041  0.00  0.00    +0.220 C 
ATOM      3  O   UNL     1       3.818   0.739  -2.087  0.00  0.00    -0.275 OA
ENDROOT
BRANCH   2   4
ATOM      4  C   UNL     1       1.682   1.580  -2.636  0.00  0.00    +0.083 C 
ATOM      5  C   UNL     1       1.666   1.721  -4.159  0.00  0.00    +0.022 C 
ATOM      6  C   UNL     1       2.305   2.812  -3.296  0.00  0.00    +0.032 C 
BRANCH   6   7
ATOM      7  C   UNL     1       1.567   4.119  -3.167  0.00  0.00    -0.044 A 
ATOM      8  C   UNL     1       0.281   4.238  -3.658  0.00  0.00    +0.004 A 
ATOM      9  C   UNL     1      -0.397   5.437  -3.540  0.00  0.00    +0.000 A 
ATOM     10  C   UNL     1       0.212   6.518  -2.929  0.00  0.00    +0.000 A 
ATOM     11  C   UNL     1       1.499   6.398  -2.437  0.00  0.00    +0.000 A 
ATOM     12  C   UNL     1       2.174   5.198  -2.551  0.00  0.00    +0.004 A 
ENDBRANCH   6   7
ENDBRANCH   2   4
BRANCH   1  13
ATOM     13  C   UNL     1       0.683  -0.811  -1.484  0.00  0.00    +0.111 C 
BRANCH  13  15
ATOM     14  C   UNL     1       0.183   1.169  -0.044  0.00  0.00    +0.009 C 
ATOM     15  C   UNL     1       0.058  -0.351  -0.166  0.00  0.00    +0.000 C 
ATOM     16  C   UNL     1      -1.420  -0.746  -0.137  0.00  0.00    +0.009 C 
ENDBRANCH  13  15
ENDBRANCH   1  13
BRANCH   1  17
ATOM     17  C   UNL     1       3.029  -1.496  -0.800  0.00  0.00    +0.161 C 
BRANCH  17  18
ATOM     18  C   UNL     1       3.589  -2.450  -1.822  0.00  0.00    +0.036 A 
ATOM     19  C   UNL     1       2.989  -2.820  -2.971  0.00  0.00    +0.024 A 
ATOM     20  C   UNL     1       3.852  -3.720  -3.628  0.00  0.00    +0.019 A 
ATOM     21  C   UNL     1       4.947  -3.865  -2.855  0.00  0.00    +0.086 A 
ATOM     22  N   UNL     1       4.794  -3.084  -1.748  0.00  0.00    -0.345 N 
BRANCH  22  23
ATOM     23  C   UNL     1       5.763  -2.950  -0.657  0.00  0.00    +0.156 C 
BRANCH  23  24
ATOM     24  C   UNL     1       5.382  -3.876   0.469  0.00  0.00    -0.028 A 
ATOM     25  C   UNL     1       4.482  -3.460   1.432  0.00  0.00    +0.005 A 
ATOM     26  C   UNL     1       4.132  -4.310   2.465  0.00  0.00    +0.000 A 
ATOM     27  C   UNL     1       4.684  -5.575   2.535  0.00  0.00    +0.000 A 
ATOM     28  C   UNL     1       5.584  -5.992   1.572  0.00  0.00    +0.000 A 
ATOM     29  C   UNL     1       5.930  -5.144   0.537  0.00  0.00    +0.005 A 
ENDBRANCH  23  24
ENDBRANCH  22  23
ENDBRANCH  17  18
ENDBRANCH   1  17
TORSDOF 8
