REMARK  Name = ZINC54641037
REMARK  12 active torsions:
REMARK  status: ('A' for Active; 'I' for Inactive)
REMARK    1  A    between atoms: C_1  and  C_2
REMARK    2  A    between atoms: C_2  and  C_3
REMARK    3  A    between atoms: C_3  and  O_4
REMARK    4  A    between atoms: O_4  and  C_5
REMARK    5  A    between atoms: C_9  and  C_11
REMARK    6  A    between atoms: C_13  and  C_30
REMARK    7  A    between atoms: C_14  and  C_29
REMARK    8  A    between atoms: C_19  and  S_21
REMARK    9  A    between atoms: S_21  and  C_22
REMARK   10  A    between atoms: C_22  and  C_23
REMARK   11  A    between atoms: C_30  and  O_32
REMARK   12  A    between atoms: O_32  and  C_33
REMARK                            x       y       z     vdW  Elec       q    Type
REMARK                         _______ _______ _______ _____ _____    ______ ____
ROOT
ATOM      1  C   UNL     1       2.197  -5.970   3.466  0.00  0.00    +0.179 C 
ATOM      2  C   UNL     1       3.660  -6.317   3.538  0.00  0.00    +0.082 C 
ATOM      3  C   UNL     1       4.221  -6.907   4.606  0.00  0.00    +0.020 C 
ATOM      4  N   UNL     1       3.493  -7.251   5.717  0.00  0.00    -0.287 N 
ATOM      5  C   UNL     1       2.109  -7.215   5.612  0.00  0.00    +0.219 A 
ATOM      6  N   UNL     1       1.487  -6.623   4.562  0.00  0.00    -0.220 N 
ATOM      7  N   UNL     1       0.117  -6.778   4.771  0.00  0.00    -0.141 NA
ATOM      8  C   UNL     1      -0.022  -7.430   5.905  0.00  0.00    +0.211 A 
ATOM      9  N   UNL     1       1.193  -7.691   6.410  0.00  0.00    -0.187 NA
ATOM     10  C   UNL     1       5.698  -7.203   4.582  0.00  0.00    +0.061 C 
ATOM     11  H   UNL     1       3.929  -7.509   6.545  0.00  0.00    +0.155 HD
ENDROOT
BRANCH   1  16
ATOM     12  C   UNL     1       1.276  -2.396   2.656  0.00  0.00    +0.121 A 
ATOM     13  C   UNL     1       1.724  -1.733   3.790  0.00  0.00    +0.045 A 
ATOM     14  C   UNL     1       2.322  -2.444   4.812  0.00  0.00    +0.004 A 
ATOM     15  C   UNL     1       2.475  -3.814   4.707  0.00  0.00    +0.006 A 
ATOM     16  C   UNL     1       2.029  -4.477   3.578  0.00  0.00    -0.015 A 
ATOM     17  C   UNL     1       1.425  -3.771   2.555  0.00  0.00    +0.051 A 
BRANCH  12  18
ATOM     18  O   UNL     1       0.686  -1.699   1.649  0.00  0.00    -0.492 OA
BRANCH  18  19
ATOM     19  C   UNL     1       0.567  -0.286   1.822  0.00  0.00    +0.229 C 
BRANCH  19  21
ATOM     20  C   UNL     1      -0.245   1.835   0.780  0.00  0.00    +0.007 C 
ATOM     21  C   UNL     1      -0.117   0.322   0.595  0.00  0.00    +0.038 C 
ENDBRANCH  19  21
ENDBRANCH  18  19
ENDBRANCH  12  18
ENDBRANCH   1  16
BRANCH   2  22
ATOM     22  C   UNL     1       4.481  -6.009   2.431  0.00  0.00    +0.339 C 
ATOM     23  O   UNL     1       4.419  -6.683   1.420  0.00  0.00    -0.245 OA
BRANCH  22  24
ATOM     24  O   UNL     1       5.335  -4.965   2.494  0.00  0.00    -0.458 OA
BRANCH  24  25
ATOM     25  C   UNL     1       6.135  -4.711   1.338  0.00  0.00    +0.177 C 
ATOM     26  C   UNL     1       7.447  -5.491   1.443  0.00  0.00    +0.044 C 
ATOM     27  C   UNL     1       8.303  -5.218   0.205  0.00  0.00    +0.004 C 
ATOM     28  C   UNL     1       8.606  -3.721   0.114  0.00  0.00    +0.000 C 
ATOM     29  C   UNL     1       7.295  -2.941   0.009  0.00  0.00    +0.004 C 
ATOM     30  C   UNL     1       6.438  -3.214   1.247  0.00  0.00    +0.044 C 
ENDBRANCH  24  25
ENDBRANCH  22  24
ENDBRANCH   2  22
BRANCH   8  31
ATOM     31  S   UNL     1      -1.556  -7.887   6.641  0.00  0.00    -0.080 S 
BRANCH  31  32
ATOM     32  C   UNL     1      -1.073  -8.747   8.163  0.00  0.00    +0.112 C 
BRANCH  32  33
ATOM     33  C   UNL     1      -2.309  -9.197   8.899  0.00  0.00    -0.037 A 
ATOM     34  C   UNL     1      -2.903  -8.363   9.827  0.00  0.00    +0.004 A 
ATOM     35  C   UNL     1      -4.037  -8.775  10.502  0.00  0.00    +0.000 A 
ATOM     36  C   UNL     1      -4.576 -10.023  10.249  0.00  0.00    +0.000 A 
ATOM     37  C   UNL     1      -3.982 -10.857   9.320  0.00  0.00    +0.000 A 
ATOM     38  C   UNL     1      -2.852 -10.443   8.642  0.00  0.00    +0.004 A 
ENDBRANCH  32  33
ENDBRANCH  31  32
ENDBRANCH   8  31
TORSDOF 10
