REMARK  Name = ZINC59038452
REMARK  8 active torsions:
REMARK  status: ('A' for Active; 'I' for Inactive)
REMARK    1  A    between atoms: C_1  and  C_2
REMARK    2  A    between atoms: C_2  and  N_3
REMARK    3  A    between atoms: C_4  and  C_6
REMARK    4  A    between atoms: C_9  and  C_28
REMARK    5  A    between atoms: C_10  and  N_12
REMARK    6  A    between atoms: N_15  and  C_16
REMARK    7  A    between atoms: C_16  and  C_18
REMARK    8  A    between atoms: C_16  and  C_19
REMARK                            x       y       z     vdW  Elec       q    Type
REMARK                         _______ _______ _______ _____ _____    ______ ____
ROOT
ATOM      1  N   UNL     1      -4.775  -5.576   0.030  0.00  0.00    -0.269 N 
ATOM      2  C   UNL     1      -3.749  -6.443  -0.080  0.00  0.00    +0.304 C 
ATOM      3  O   UNL     1      -2.604  -6.032  -0.090  0.00  0.00    -0.252 OA
ATOM      4  N   UNL     1      -3.991  -7.765  -0.181  0.00  0.00    -0.290 N 
ATOM      5  H   UNL     1      -5.682  -5.907   0.120  0.00  0.00    +0.156 HD
ATOM      6  H   UNL     1      -4.904  -8.092  -0.173  0.00  0.00    +0.151 HD
ENDROOT
BRANCH   1  11
ATOM      7  C   UNL     1      -3.153  -2.327  -0.609  0.00  0.00    +0.038 A 
ATOM      8  C   UNL     1      -4.064  -1.460  -0.002  0.00  0.00    +0.013 A 
ATOM      9  C   UNL     1      -5.196  -1.964   0.605  0.00  0.00    +0.006 A 
ATOM     10  C   UNL     1      -5.432  -3.326   0.617  0.00  0.00    -0.029 A 
ATOM     11  C   UNL     1      -4.531  -4.197   0.016  0.00  0.00    +0.038 A 
ATOM     12  C   UNL     1      -3.394  -3.701  -0.602  0.00  0.00    +0.036 A 
ATOM     13  C   UNL     1      -6.670  -3.868   1.283  0.00  0.00    +0.045 C 
BRANCH   7  15
ATOM     14  N   UNL     1      -1.708  -0.463  -1.265  0.00  0.00    -0.312 N 
ATOM     15  C   UNL     1      -1.939  -1.790  -1.260  0.00  0.00    +0.244 C 
ATOM     16  O   UNL     1      -1.149  -2.546  -1.792  0.00  0.00    -0.270 OA
ATOM     17  H   UNL     1      -2.338   0.141  -0.841  0.00  0.00    +0.149 HD
BRANCH  14  19
ATOM     18  C   UNL     1      -0.485   1.593  -1.774  0.00  0.00    +0.024 C 
ATOM     19  C   UNL     1      -0.505   0.069  -1.910  0.00  0.00    +0.101 C 
ENDBRANCH  14  19
ENDBRANCH   7  15
ENDBRANCH   1  11
BRANCH   4  20
ATOM     20  C   UNL     1      -2.876  -8.707  -0.301  0.00  0.00    +0.137 C 
ATOM     21  C   UNL     1      -2.461  -8.821  -1.769  0.00  0.00    +0.036 C 
BRANCH  20  22
ATOM     22  C   UNL     1      -3.305 -10.060   0.206  0.00  0.00    +0.126 A 
ATOM     23  C   UNL     1      -2.543 -10.879   0.944  0.00  0.00    +0.055 A 
ATOM     24  C   UNL     1      -3.359 -12.070   1.207  0.00  0.00    +0.020 A 
ATOM     25  C   UNL     1      -3.151 -13.261   1.900  0.00  0.00    +0.011 A 
ATOM     26  C   UNL     1      -4.146 -14.197   1.956  0.00  0.00    +0.001 A 
ATOM     27  C   UNL     1      -5.361 -13.968   1.326  0.00  0.00    +0.004 A 
ATOM     28  C   UNL     1      -5.586 -12.796   0.636  0.00  0.00    +0.047 A 
ATOM     29  C   UNL     1      -4.587 -11.832   0.567  0.00  0.00    +0.135 A 
ATOM     30  O   UNL     1      -4.509 -10.617  -0.011  0.00  0.00    -0.458 OA
ENDBRANCH  20  22
ENDBRANCH   4  20
TORSDOF 5
