REMARK  Name = ZINC40019215
REMARK  18 active torsions:
REMARK  status: ('A' for Active; 'I' for Inactive)
REMARK    1  A    between atoms: C_1  and  C_2
REMARK    2  A    between atoms: C_2  and  C_3
REMARK    3  A    between atoms: C_3  and  C_4
REMARK    4  A    between atoms: C_4  and  N_5
REMARK    5  A    between atoms: N_5  and  C_6
REMARK    6  A    between atoms: N_5  and  C_10
REMARK    7  A    between atoms: C_6  and  C_7
REMARK    8  A    between atoms: C_7  and  C_8
REMARK    9  A    between atoms: C_8  and  C_9
REMARK   10  A    between atoms: C_10  and  C_11
REMARK   11  A    between atoms: C_11  and  C_12
REMARK   12  A    between atoms: C_12  and  N_13
REMARK   13  A    between atoms: C_14  and  C_30
REMARK   14  A    between atoms: C_16  and  C_21
REMARK   15  A    between atoms: C_21  and  C_23
REMARK   16  A    between atoms: C_35  and  O_36
REMARK   17  A    between atoms: O_36  and  C_37
REMARK   18  A    between atoms: C_37  and  C_38
REMARK                            x       y       z     vdW  Elec       q    Type
REMARK                         _______ _______ _______ _____ _____    ______ ____
ROOT
ATOM      1  N   UNL     1      -5.816  -6.964   0.537  0.00  0.00    -0.283 N 
ATOM      2  C   UNL     1      -6.646  -7.170   1.730  0.00  0.00    +0.148 C 
ATOM      3  C   UNL     1      -7.800  -8.042   1.294  0.00  0.00    +0.076 C 
ATOM      4  C   UNL     1      -7.623  -8.296  -0.023  0.00  0.00    +0.249 C 
ATOM      5  C   UNL     1      -6.393  -7.619  -0.487  0.00  0.00    +0.288 C 
ATOM      6  O   UNL     1      -5.965  -7.652  -1.623  0.00  0.00    -0.266 OA
ATOM      7  O   UNL     1      -8.443  -9.046  -0.795  0.00  0.00    -0.282 OA
ENDROOT
BRANCH   2   8
ATOM      8  C   UNL     1      -5.848  -7.862   2.804  0.00  0.00    +0.019 A 
ATOM      9  C   UNL     1      -4.804  -8.699   2.458  0.00  0.00    +0.009 A 
ATOM     10  C   UNL     1      -4.071  -9.335   3.443  0.00  0.00    +0.001 A 
ATOM     11  C   UNL     1      -4.381  -9.136   4.776  0.00  0.00    +0.004 A 
ATOM     12  C   UNL     1      -5.423  -8.300   5.127  0.00  0.00    +0.046 A 
ATOM     13  C   UNL     1      -6.156  -7.656   4.140  0.00  0.00    +0.126 A 
BRANCH  13  14
ATOM     14  O   UNL     1      -7.178  -6.829   4.483  0.00  0.00    -0.488 OA
BRANCH  14  15
ATOM     15  C   UNL     1      -7.394  -6.607   5.878  0.00  0.00    +0.256 C 
BRANCH  15  16
ATOM     16  C   UNL     1      -8.609  -5.736   6.066  0.00  0.00    +0.006 C 
ATOM     17  C   UNL     1      -9.528  -6.073   6.937  0.00  0.00    +0.007 C 
ENDBRANCH  15  16
ENDBRANCH  14  15
ENDBRANCH  13  14
ENDBRANCH   2   8
BRANCH   3  18
ATOM     18  C   UNL     1      -8.900  -8.521   2.137  0.00  0.00    +0.195 C 
ATOM     19  O   UNL     1      -9.009  -9.709   2.377  0.00  0.00    -0.287 OA
BRANCH  18  20
ATOM     20  C   UNL     1      -9.876  -7.562   2.694  0.00  0.00    +0.022 A 
ATOM     21  C   UNL     1      -9.823  -6.215   2.328  0.00  0.00    +0.013 A 
ATOM     22  C   UNL     1     -10.737  -5.325   2.850  0.00  0.00    +0.021 A 
ATOM     23  C   UNL     1     -11.707  -5.764   3.738  0.00  0.00    +0.041 A 
ATOM     24  C   UNL     1     -11.764  -7.099   4.105  0.00  0.00    +0.021 A 
ATOM     25  C   UNL     1     -10.860  -7.999   3.584  0.00  0.00    +0.013 A 
ATOM     26 CL   UNL     1     -12.853  -4.637   4.393  0.00  0.00    -0.084 Cl
ENDBRANCH  18  20
ENDBRANCH   3  18
BRANCH   1  27
ATOM     27  C   UNL     1      -4.580  -6.179   0.471  0.00  0.00    +0.107 C 
BRANCH  27  28
ATOM     28  C   UNL     1      -4.917  -4.727   0.125  0.00  0.00    +0.000 C 
BRANCH  28  29
ATOM     29  C   UNL     1      -3.627  -3.907   0.057  0.00  0.00    -0.077 C 
BRANCH  29  30
ATOM     30  N   UNL     1      -3.936  -2.545  -0.398  0.00  0.00    +0.380 N 
ATOM     31  H   UNL     1      -4.439  -2.588  -1.272  0.00  0.00    -0.082 HD
BRANCH  30  32
ATOM     32  C   UNL     1      -2.686  -1.797  -0.588  0.00  0.00    -0.079 C 
BRANCH  32  33
ATOM     33  C   UNL     1      -1.894  -2.412  -1.743  0.00  0.00    -0.019 C 
BRANCH  33  34
ATOM     34  C   UNL     1      -0.560  -1.679  -1.895  0.00  0.00    -0.005 C 
ATOM     35  C   UNL     1       0.232  -2.295  -3.050  0.00  0.00    +0.004 C 
ENDBRANCH  33  34
ENDBRANCH  32  33
ENDBRANCH  30  32
BRANCH  30  36
ATOM     36  C   UNL     1      -4.763  -1.868   0.610  0.00  0.00    -0.079 C 
BRANCH  36  37
ATOM     37  C   UNL     1      -5.189  -0.496   0.083  0.00  0.00    -0.019 C 
BRANCH  37  39
ATOM     38  C   UNL     1      -6.476   1.580   0.606  0.00  0.00    +0.004 C 
ATOM     39  C   UNL     1      -6.050   0.208   1.133  0.00  0.00    -0.005 C 
ENDBRANCH  37  39
ENDBRANCH  36  37
ENDBRANCH  30  36
ENDBRANCH  29  30
ENDBRANCH  28  29
ENDBRANCH  27  28
ENDBRANCH   1  27
TORSDOF 16
