REMARK  Name = ZINC58020849
REMARK  4 active torsions:
REMARK  status: ('A' for Active; 'I' for Inactive)
REMARK    1  A    between atoms: C_1  and  C_2
REMARK    2  A    between atoms: C_4  and  S_14
REMARK    3  A    between atoms: C_11  and  N_13
REMARK    4  A    between atoms: S_14  and  N_17
REMARK                            x       y       z     vdW  Elec       q    Type
REMARK                         _______ _______ _______ _____ _____    ______ ____
ROOT
ATOM      1  C   UNL     1      -0.018   1.503   0.010  0.00  0.00    +0.047 C 
ATOM      2  C   UNL     1       0.002  -0.004   0.002  0.00  0.00    -0.007 A 
ATOM      3  C   UNL     1       0.006  -0.685  -1.198  0.00  0.00    +0.035 A 
ATOM      4  C   UNL     1       0.025  -2.068  -1.208  0.00  0.00    +0.106 A 
ATOM      5  C   UNL     1       0.043  -2.766  -0.016  0.00  0.00    +0.034 A 
ATOM      6  C   UNL     1       0.040  -2.088   1.192  0.00  0.00    -0.018 A 
ATOM      7  C   UNL     1       0.023  -0.704   1.204  0.00  0.00    +0.125 A 
ATOM      8  O   UNL     1       0.013   0.002   2.365  0.00  0.00    -0.492 OA
ATOM      9  C   UNL     1       0.402  -0.676   3.561  0.00  0.00    +0.228 C 
ATOM     10  C   UNL     1      -0.367  -2.001   3.639  0.00  0.00    +0.029 C 
ATOM     11  C   UNL     1       0.064  -2.885   2.471  0.00  0.00    -0.037 C 
ENDROOT
BRANCH  11  12
ATOM     12  N   UNL     1      -0.844  -4.033   2.349  0.00  0.00    +0.383 N 
ATOM     13  H   UNL     1      -0.545  -4.618   1.583  0.00  0.00    -0.089 HD
ATOM     14  H   UNL     1      -0.828  -4.567   3.206  0.00  0.00    -0.089 HD
ATOM     15  H   UNL     1      -1.781  -3.704   2.176  0.00  0.00    -0.089 HD
ENDBRANCH  11  12
BRANCH   4  16
ATOM     16  S   UNL     1       0.027  -2.939  -2.739  0.00  0.00    +0.061 S 
ATOM     17  O   UNL     1      -0.504  -4.230  -2.473  0.00  0.00    -0.153 OA
ATOM     18  O   UNL     1      -0.543  -2.065  -3.704  0.00  0.00    -0.153 OA
BRANCH  16  19
ATOM     19  N   UNL     1       1.609  -3.158  -3.176  0.00  0.00    -0.177 NA
ATOM     20  C   UNL     1       2.306  -2.156  -3.993  0.00  0.00    +0.109 C 
ATOM     21  C   UNL     1       3.598  -1.748  -3.278  0.00  0.00    +0.017 C 
ATOM     22  C   UNL     1       4.426  -2.999  -2.977  0.00  0.00    +0.003 C 
ATOM     23  C   UNL     1       3.634  -3.927  -2.052  0.00  0.00    +0.017 C 
ATOM     24  C   UNL     1       2.344  -4.356  -2.748  0.00  0.00    +0.109 C 
ENDBRANCH  16  19
ENDBRANCH   4  16
TORSDOF 3
