REMARK  Name = ZINC15324893
REMARK  9 active torsions:
REMARK  status: ('A' for Active; 'I' for Inactive)
REMARK    1  A    between atoms: C_1  and  C_2
REMARK    2  A    between atoms: C_2  and  C_3
REMARK    3  A    between atoms: C_3  and  C_4
REMARK    4  A    between atoms: C_3  and  C_6
REMARK    5  A    between atoms: C_4  and  C_5
REMARK    6  A    between atoms: C_12  and  C_14
REMARK    7  A    between atoms: N_17  and  S_20
REMARK    8  A    between atoms: S_20  and  C_23
REMARK    9  A    between atoms: C_24  and  C_25
REMARK                            x       y       z     vdW  Elec       q    Type
REMARK                         _______ _______ _______ _____ _____    ______ ____
ROOT
ATOM      1  C   UNL     1      -2.243   3.562   4.118  0.00  0.00    +0.078 C 
ATOM      2  C   UNL     1      -2.172   2.315   3.234  0.00  0.00    +0.030 C 
ATOM      3  C   UNL     1      -0.783   1.680   3.364  0.00  0.00    +0.110 C 
ATOM      4  N   UNL     1       0.232   2.697   3.057  0.00  0.00    -0.177 NA
ATOM      5  C   UNL     1       0.202   3.970   3.790  0.00  0.00    +0.110 C 
ATOM      6  C   UNL     1      -1.201   4.581   3.651  0.00  0.00    +0.030 C 
ENDROOT
BRANCH   1  13
ATOM      7  C   UNL     1      -7.466   7.158   4.685  0.00  0.00    +0.107 A 
ATOM      8  N   UNL     1      -7.328   6.075   3.947  0.00  0.00    -0.144 NA
ATOM      9  N   UNL     1      -6.230   5.452   3.917  0.00  0.00    -0.126 NA
ATOM     10  C   UNL     1      -5.185   5.844   4.625  0.00  0.00    +0.188 A 
ATOM     11  S   UNL     1      -5.831   7.259   5.404  0.00  0.00    -0.035 S 
ATOM     12  N   UNL     1      -3.915   5.284   4.717  0.00  0.00    -0.263 N 
ATOM     13  C   UNL     1      -3.619   4.169   4.019  0.00  0.00    +0.222 C 
ATOM     14  O   UNL     1      -4.459   3.656   3.311  0.00  0.00    -0.275 OA
ATOM     15  H   UNL     1      -3.244   5.694   5.283  0.00  0.00    +0.157 HD
BRANCH   7  16
ATOM     16  C   UNL     1      -8.661   8.057   4.870  0.00  0.00    +0.046 C 
BRANCH  16  18
ATOM     17  C   UNL     1      -7.947   9.557   3.004  0.00  0.00    +0.004 C 
ATOM     18  C   UNL     1      -9.067   8.650   3.520  0.00  0.00    +0.007 C 
ENDBRANCH  16  18
BRANCH  16  19
ATOM     19  C   UNL     1      -9.826   7.245   5.441  0.00  0.00    +0.007 C 
ATOM     20  C   UNL     1     -10.993   8.182   5.758  0.00  0.00    +0.004 C 
ENDBRANCH  16  19
ENDBRANCH   7  16
ENDBRANCH   1  13
BRANCH   4  21
ATOM     21  S   UNL     1       1.392   2.411   1.910  0.00  0.00    +0.054 S 
ATOM     22  O   UNL     1       1.523   1.000   1.808  0.00  0.00    -0.153 OA
ATOM     23  O   UNL     1       2.490   3.258   2.223  0.00  0.00    -0.153 OA
BRANCH  21  24
ATOM     24  C   UNL     1       0.749   2.970   0.368  0.00  0.00    +0.153 C 
ATOM     25  C   UNL     1       1.321   3.988  -0.259  0.00  0.00    +0.028 C 
BRANCH  25  26
ATOM     26  C   UNL     1       0.782   4.457  -1.553  0.00  0.00    -0.024 A 
ATOM     27  C   UNL     1      -0.326   3.827  -2.120  0.00  0.00    +0.008 A 
ATOM     28  C   UNL     1      -0.828   4.273  -3.325  0.00  0.00    +0.001 A 
ATOM     29  C   UNL     1      -0.228   5.335  -3.977  0.00  0.00    +0.000 A 
ATOM     30  C   UNL     1       0.874   5.961  -3.423  0.00  0.00    +0.001 A 
ATOM     31  C   UNL     1       1.383   5.528  -2.216  0.00  0.00    +0.008 A 
ENDBRANCH  25  26
ENDBRANCH  21  24
ENDBRANCH   4  21
TORSDOF 7
