REMARK  Name = ZINC29412709
REMARK  19 active torsions:
REMARK  status: ('A' for Active; 'I' for Inactive)
REMARK    1  A    between atoms: C_1  and  C_2
REMARK    2  A    between atoms: C_2  and  N_3
REMARK    3  A    between atoms: N_3  and  C_4
REMARK    4  A    between atoms: C_4  and  C_5
REMARK    5  A    between atoms: C_6  and  C_8
REMARK    6  A    between atoms: C_8  and  C_9
REMARK    7  A    between atoms: C_8  and  C_10
REMARK    8  A    between atoms: C_8  and  C_11
REMARK    9  A    between atoms: C_17  and  C_29
REMARK   10  A    between atoms: C_18  and  C_21
REMARK   11  A    between atoms: C_23  and  C_28
REMARK   12  A    between atoms: C_25  and  C_27
REMARK   13  A    between atoms: C_29  and  C_30
REMARK   14  A    between atoms: C_30  and  N_31
REMARK   15  A    between atoms: N_31  and  C_32
REMARK   16  A    between atoms: C_32  and  C_33
REMARK   17  A    between atoms: C_33  and  C_34
REMARK   18  A    between atoms: C_34  and  C_35
REMARK   19  A    between atoms: C_35  and  C_36
REMARK                            x       y       z     vdW  Elec       q    Type
REMARK                         _______ _______ _______ _____ _____    ______ ____
ROOT
ATOM      1  C   UNL     1       3.023   2.219  -9.703  0.00  0.00    -0.032 A 
ATOM      2  C   UNL     1       4.002   1.753 -10.570  0.00  0.00    +0.007 A 
ATOM      3  C   UNL     1       3.880   0.520 -11.172  0.00  0.00    +0.026 A 
ATOM      4  C   UNL     1       2.759  -0.265 -10.920  0.00  0.00    +0.047 A 
ATOM      5  C   UNL     1       1.767   0.213 -10.043  0.00  0.00    +0.004 A 
ATOM      6  C   UNL     1       1.916   1.464  -9.437  0.00  0.00    +0.015 A 
ATOM      7  C   UNL     1       0.738  -0.824  -9.983  0.00  0.00    -0.016 A 
ATOM      8  C   UNL     1       1.142  -1.828 -10.801  0.00  0.00    +0.051 A 
ATOM      9  N   UNL     1       2.353  -1.502 -11.367  0.00  0.00    -0.354 N 
ATOM     10  H   UNL     1       2.980  -2.065 -12.074  0.00  0.00    +0.166 HD
ENDROOT
BRANCH   8  11
ATOM     11  C   UNL     1       0.395  -3.080 -11.047  0.00  0.00    -0.001 A 
ATOM     12  C   UNL     1      -0.111  -3.817  -9.974  0.00  0.00    +0.013 A 
ATOM     13  C   UNL     1      -0.811  -4.981 -10.211  0.00  0.00    -0.050 A 
ATOM     14  C   UNL     1      -1.004  -5.426 -11.507  0.00  0.00    +0.006 A 
ATOM     15  C   UNL     1      -0.500  -4.703 -12.574  0.00  0.00    -0.050 A 
ATOM     16  C   UNL     1       0.197  -3.534 -12.351  0.00  0.00    +0.013 A 
ATOM     17  C   UNL     1      -0.715  -5.195 -13.982  0.00  0.00    +0.044 C 
ATOM     18  C   UNL     1      -1.363  -5.775  -9.054  0.00  0.00    +0.044 C 
ENDBRANCH   8  11
BRANCH   1  19
ATOM     19  C   UNL     1       3.183   3.567  -9.049  0.00  0.00    +0.066 C 
ATOM     20  C   UNL     1       1.913   4.392  -9.264  0.00  0.00    +0.025 C 
ATOM     21  C   UNL     1       3.423   3.382  -7.549  0.00  0.00    +0.025 C 
BRANCH  19  23
ATOM     22  N   UNL     1       4.361   4.573 -10.977  0.00  0.00    -0.301 N 
ATOM     23  C   UNL     1       4.358   4.286  -9.661  0.00  0.00    +0.226 C 
ATOM     24  O   UNL     1       5.301   4.605  -8.968  0.00  0.00    -0.275 OA
BRANCH  22  26
ATOM     25  C   UNL     1       6.415   4.057 -12.200  0.00  0.00    +0.024 C 
ATOM     26  C   UNL     1       5.550   5.165 -11.596  0.00  0.00    +0.104 C 
ENDBRANCH  22  26
BRANCH  22  27
ATOM     27  C   UNL     1       3.175   4.295 -11.791  0.00  0.00    +0.104 C 
ATOM     28  C   UNL     1       2.331   5.565 -11.915  0.00  0.00    +0.024 C 
ENDBRANCH  22  27
ENDBRANCH  19  23
ENDBRANCH   1  19
BRANCH   7  29
ATOM     29  C   UNL     1      -0.532  -0.783  -9.173  0.00  0.00    +0.019 C 
BRANCH  29  30
ATOM     30  C   UNL     1      -1.676  -0.263 -10.045  0.00  0.00    -0.078 C 
BRANCH  30  31
ATOM     31  N   UNL     1      -2.936  -0.333  -9.293  0.00  0.00    +0.379 N 
ATOM     32  H   UNL     1      -3.136  -1.377  -9.010  0.00  0.00    -0.086 HD
ATOM     33  H   UNL     1      -2.857   0.284  -8.386  0.00  0.00    -0.086 HD
BRANCH  31  34
ATOM     34  C   UNL     1      -4.060   0.159 -10.101  0.00  0.00    -0.083 C 
BRANCH  34  35
ATOM     35  C   UNL     1      -5.351   0.070  -9.286  0.00  0.00    -0.019 C 
BRANCH  35  36
ATOM     36  C   UNL     1      -6.522   0.583 -10.127  0.00  0.00    +0.003 C 
BRANCH  36  37
ATOM     37  C   UNL     1      -7.814   0.494  -9.312  0.00  0.00    +0.036 C 
BRANCH  37  38
ATOM     38  C   UNL     1      -8.966   1.000 -10.141  0.00  0.00    -0.029 A 
ATOM     39  C   UNL     1      -9.321   2.340 -10.107  0.00  0.00    +0.006 A 
ATOM     40  C   UNL     1     -10.385   2.761 -10.889  0.00  0.00    +0.020 A 
ATOM     41  C   UNL     1     -11.059   1.835 -11.664  0.00  0.00    +0.111 A 
ATOM     42  N   UNL     1     -10.697   0.568 -11.668  0.00  0.00    -0.263 NA
ATOM     43  C   UNL     1      -9.687   0.133 -10.940  0.00  0.00    +0.114 A 
ENDBRANCH  37  38
ENDBRANCH  36  37
ENDBRANCH  35  36
ENDBRANCH  34  35
ENDBRANCH  31  34
ENDBRANCH  30  31
ENDBRANCH  29  30
ENDBRANCH   7  29
TORSDOF 13
