REMARK  Name = ZINC39227686
REMARK  8 active torsions:
REMARK  status: ('A' for Active; 'I' for Inactive)
REMARK    1  A    between atoms: C_1  and  C_2
REMARK    2  A    between atoms: C_2  and  C_3
REMARK    3  A    between atoms: C_2  and  N_4
REMARK    4  A    between atoms: C_15  and  C_20
REMARK    5  A    between atoms: C_24  and  C_26
REMARK    6  A    between atoms: N_28  and  C_29
REMARK    7  A    between atoms: C_33  and  S_35
REMARK    8  A    between atoms: S_35  and  C_36
REMARK                            x       y       z     vdW  Elec       q    Type
REMARK                         _______ _______ _______ _____ _____    ______ ____
ROOT
ATOM      1  N   UNL     1       0.727  -0.486   1.205  0.00  0.00    +0.381 N 
ATOM      2  C   UNL     1       0.746  -1.954   1.183  0.00  0.00    -0.075 C 
ATOM      3  C   UNL     1       1.552  -2.475   2.376  0.00  0.00    +0.030 C 
ATOM      4  C   UNL     1       0.905  -1.988   3.674  0.00  0.00    +0.114 C 
ATOM      5  C   UNL     1       0.820  -0.460   3.653  0.00  0.00    +0.030 C 
ATOM      6  C   UNL     1       0.041  -0.014   2.414  0.00  0.00    -0.075 C 
ATOM      7  C   UNL     1       1.762  -2.431   4.867  0.00  0.00    +0.127 C 
ATOM      8  C   UNL     1       1.064  -1.943   6.125  0.00  0.00    +0.170 C 
ATOM      9  O   UNL     1       1.684  -1.489   7.063  0.00  0.00    -0.292 OA
ATOM     10  C   UNL     1      -0.406  -2.050   6.145  0.00  0.00    +0.060 A 
ATOM     11  C   UNL     1      -1.116  -1.859   7.330  0.00  0.00    +0.023 A 
ATOM     12  C   UNL     1      -2.502  -1.959   7.322  0.00  0.00    -0.017 A 
ATOM     13  C   UNL     1      -3.173  -2.249   6.131  0.00  0.00    +0.012 A 
ATOM     14  C   UNL     1      -2.472  -2.439   4.960  0.00  0.00    +0.047 A 
ATOM     15  C   UNL     1      -1.086  -2.344   4.950  0.00  0.00    +0.132 A 
ATOM     16  O   UNL     1      -0.404  -2.540   3.797  0.00  0.00    -0.485 OA
ATOM     17  H   UNL     1       1.675  -0.139   1.201  0.00  0.00    -0.081 HD
ENDROOT
BRANCH  12  18
ATOM     18  C   UNL     1      -3.268  -1.760   8.577  0.00  0.00    -0.017 A 
ATOM     19  C   UNL     1      -2.599  -1.466   9.764  0.00  0.00    +0.008 A 
ATOM     20  C   UNL     1      -3.310  -1.280  10.934  0.00  0.00    +0.001 A 
ATOM     21  C   UNL     1      -4.687  -1.384  10.936  0.00  0.00    +0.013 A 
ATOM     22  C   UNL     1      -5.368  -1.677   9.753  0.00  0.00    +0.038 A 
ATOM     23  C   UNL     1      -4.655  -1.860   8.569  0.00  0.00    +0.021 A 
BRANCH  22  24
ATOM     24  C   UNL     1      -6.843  -1.789   9.755  0.00  0.00    +0.248 C 
ATOM     25  O   UNL     1      -7.434  -2.044   8.724  0.00  0.00    -0.270 OA
ATOM     26  N   UNL     1      -7.530  -1.607  10.900  0.00  0.00    -0.281 N 
ATOM     27  H   UNL     1      -7.056  -1.470  11.734  0.00  0.00    +0.155 HD
BRANCH  26  28
ATOM     28  C   UNL     1      -8.929  -1.616  10.884  0.00  0.00    +0.035 A 
ATOM     29  C   UNL     1      -9.639  -0.776  11.733  0.00  0.00    +0.023 A 
ATOM     30  C   UNL     1     -11.021  -0.785  11.719  0.00  0.00    +0.003 A 
ATOM     31  C   UNL     1     -11.701  -1.628  10.861  0.00  0.00    +0.015 A 
ATOM     32  C   UNL     1     -10.996  -2.470  10.009  0.00  0.00    +0.009 A 
ATOM     33  C   UNL     1      -9.608  -2.459  10.017  0.00  0.00    +0.038 A 
BRANCH  32  34
ATOM     34  S   UNL     1     -11.864  -3.545   8.915  0.00  0.00    -0.129 S 
ATOM     35  C   UNL     1     -13.612  -3.201   9.258  0.00  0.00    +0.090 C 
ENDBRANCH  32  34
ENDBRANCH  26  28
ENDBRANCH  22  24
ENDBRANCH  12  18
BRANCH   1  37
ATOM     36  C   UNL     1       0.008   1.540   0.033  0.00  0.00    -0.014 C 
ATOM     37  C   UNL     1       0.020   0.011   0.017  0.00  0.00    -0.075 C 
ATOM     38  C   UNL     1       0.735  -0.480  -1.244  0.00  0.00    -0.014 C 
ENDBRANCH   1  37
TORSDOF 5
