REMARK  Name = ZINC15007374
REMARK  11 active torsions:
REMARK  status: ('A' for Active; 'I' for Inactive)
REMARK    1  A    between atoms: C_1  and  C_2
REMARK    2  A    between atoms: C_2  and  C_4
REMARK    3  A    between atoms: C_2  and  N_68
REMARK    4  A    between atoms: C_4  and  C_5
REMARK    5  A    between atoms: C_5  and  C_6
REMARK    6  A    between atoms: C_9  and  O_12
REMARK    7  A    between atoms: O_12  and  C_13
REMARK    8  A    between atoms: C_16  and  C_19
REMARK    9  A    between atoms: C_19  and  C_34
REMARK   10  A    between atoms: N_22  and  C_26
REMARK   11  A    between atoms: C_26  and  C_27
REMARK                            x       y       z     vdW  Elec       q    Type
REMARK                         _______ _______ _______ _____ _____    ______ ____
ROOT
ATOM      1  C   UNL     1      -1.873   0.307  -7.017  0.00  0.00    -0.078 C 
ATOM      2  C   UNL     1      -2.323  -0.593  -5.865  0.00  0.00    -0.013 C 
ATOM      3  C   UNL     1      -1.984   0.082  -4.533  0.00  0.00    +0.018 C 
ATOM      4  C   UNL     1      -2.662   1.453  -4.476  0.00  0.00    -0.013 C 
ATOM      5  C   UNL     1      -2.203   2.294  -5.670  0.00  0.00    -0.078 C 
ATOM      6  N   UNL     1      -2.581   1.601  -6.920  0.00  0.00    +0.381 N 
ATOM      7  H   UNL     1      -3.593   1.428  -6.911  0.00  0.00    -0.081 HD
ENDROOT
BRANCH   3   8
ATOM      8  C   UNL     1      -2.486  -0.786  -3.377  0.00  0.00    +0.112 C 
ATOM      9  C   UNL     1      -2.186  -0.134  -2.042  0.00  0.00    +0.247 C 
ATOM     10  O   UNL     1      -2.594   0.934  -1.641  0.00  0.00    -0.273 OA
ATOM     11  N   UNL     1      -1.370  -0.989  -1.395  0.00  0.00    -0.220 N 
ATOM     12  C   UNL     1      -1.121  -2.083  -2.125  0.00  0.00    +0.310 C 
ATOM     13  O   UNL     1      -0.415  -2.998  -1.752  0.00  0.00    -0.252 OA
ATOM     14  N   UNL     1      -1.740  -2.055  -3.319  0.00  0.00    -0.285 N 
ATOM     15  C   UNL     1      -3.987  -1.049  -3.518  0.00  0.00    +0.042 C 
ATOM     16  H   UNL     1      -1.703  -2.737  -4.008  0.00  0.00    +0.151 HD
BRANCH  11  17
ATOM     17  C   UNL     1      -0.827  -0.754  -0.055  0.00  0.00    +0.153 C 
BRANCH  17  18
ATOM     18  C   UNL     1       0.492  -0.033  -0.167  0.00  0.00    -0.029 A 
ATOM     19  C   UNL     1       0.526   1.349  -0.172  0.00  0.00    +0.008 A 
ATOM     20  C   UNL     1       1.735   2.010  -0.274  0.00  0.00    +0.038 A 
ATOM     21  C   UNL     1       2.912   1.289  -0.372  0.00  0.00    +0.123 A 
ATOM     22  C   UNL     1       2.877  -0.095  -0.367  0.00  0.00    +0.038 A 
ATOM     23  C   UNL     1       1.667  -0.755  -0.264  0.00  0.00    +0.008 A 
ATOM     24  F   UNL     1       4.095   1.935  -0.473  0.00  0.00    -0.205 F 
ENDBRANCH  17  18
ENDBRANCH  11  17
ENDBRANCH   3   8
BRANCH   6  26
ATOM     25  C   UNL     1      -2.772   1.768  -9.353  0.00  0.00    -0.013 C 
ATOM     26  C   UNL     1      -2.249   2.447  -8.085  0.00  0.00    -0.071 C 
BRANCH  26  27
ATOM     27  C   UNL     1      -2.925   3.809  -7.920  0.00  0.00    -0.011 C 
BRANCH  27  28
ATOM     28  C   UNL     1      -2.556   4.709  -9.102  0.00  0.00    +0.033 C 
BRANCH  28  29
ATOM     29  C   UNL     1      -3.130   6.085  -8.884  0.00  0.00    -0.047 A 
ATOM     30  C   UNL     1      -4.394   6.388  -9.354  0.00  0.00    +0.007 A 
ATOM     31  C   UNL     1      -4.925   7.647  -9.151  0.00  0.00    +0.046 A 
ATOM     32  C   UNL     1      -4.183   8.612  -8.484  0.00  0.00    +0.120 A 
ATOM     33  C   UNL     1      -2.912   8.307  -8.019  0.00  0.00    +0.046 A 
ATOM     34  C   UNL     1      -2.388   7.045  -8.220  0.00  0.00    +0.007 A 
BRANCH  32  35
ATOM     35  O   UNL     1      -4.700   9.853  -8.288  0.00  0.00    -0.495 OA
ATOM     36  C   UNL     1      -6.014  10.095  -8.795  0.00  0.00    +0.277 C 
ENDBRANCH  32  35
ENDBRANCH  28  29
ENDBRANCH  27  28
ENDBRANCH  26  27
ENDBRANCH   6  26
TORSDOF 8
