REMARK  Name = ZINC16607988
REMARK  7 active torsions:
REMARK  status: ('A' for Active; 'I' for Inactive)
REMARK    1  A    between atoms: C_1  and  C_2
REMARK    2  A    between atoms: C_11  and  C_14
REMARK    3  A    between atoms: C_17  and  N_20
REMARK    4  A    between atoms: N_20  and  C_21
REMARK    5  A    between atoms: N_20  and  C_22
REMARK    6  A    between atoms: C_26  and  C_28
REMARK    7  A    between atoms: C_26  and  C_29
REMARK                            x       y       z     vdW  Elec       q    Type
REMARK                         _______ _______ _______ _____ _____    ______ ____
ROOT
ATOM      1  C   UNL     1      -0.697   1.063  -0.307  0.00  0.00    +0.063 C 
ATOM      2  C   UNL     1      -0.483  -0.423  -0.179  0.00  0.00    +0.044 C 
ATOM      3  N   UNL     1      -0.433  -1.248  -1.149  0.00  0.00    -0.194 NA
ATOM      4  N   UNL     1      -0.177  -2.568  -0.751  0.00  0.00    -0.251 N 
ATOM      5  C   UNL     1      -0.448  -2.629   0.695  0.00  0.00    +0.169 C 
ATOM      6  C   UNL     1      -0.284  -1.177   1.129  0.00  0.00    +0.097 C 
ATOM      7  C   UNL     1       1.104  -0.857   1.629  0.00  0.00    -0.049 C 
ATOM      8  C   UNL     1       2.005  -1.798   1.865  0.00  0.00    +0.016 C 
ATOM      9  C   UNL     1       1.733  -3.260   1.669  0.00  0.00    +0.119 C 
ATOM     10  N   UNL     1       0.368  -3.577   1.387  0.00  0.00    -0.286 NA
ATOM     11  C   UNL     1       3.348  -1.440   2.359  0.00  0.00    +0.162 C 
ATOM     12  O   UNL     1       4.109  -2.298   2.757  0.00  0.00    -0.292 OA
ATOM     13  C   UNL     1       3.761   0.012   2.361  0.00  0.00    +0.086 C 
ATOM     14  C   UNL     1       2.541   0.817   2.835  0.00  0.00    -0.024 C 
ATOM     15  C   UNL     1       1.411   0.610   1.834  0.00  0.00    +0.038 C 
ATOM     16  C   UNL     1       2.900   2.303   2.908  0.00  0.00    +0.011 C 
ATOM     17  C   UNL     1       2.102   0.323   4.216  0.00  0.00    +0.011 C 
ATOM     18  H   UNL     1       0.120  -3.298  -1.317  0.00  0.00    +0.170 HD
ATOM     19  H   UNL     1      -0.101  -3.925   2.210  0.00  0.00    +0.125 HD
ENDROOT
BRANCH   9  20
ATOM     20  C   UNL     1       2.585  -3.753   0.529  0.00  0.00    -0.026 A 
ATOM     21  C   UNL     1       3.435  -4.827   0.717  0.00  0.00    +0.007 A 
ATOM     22  C   UNL     1       4.218  -5.282  -0.326  0.00  0.00    +0.023 A 
ATOM     23  C   UNL     1       4.150  -4.659  -1.566  0.00  0.00    +0.029 A 
ATOM     24  C   UNL     1       3.295  -3.580  -1.752  0.00  0.00    +0.023 A 
ATOM     25  C   UNL     1       2.511  -3.134  -0.706  0.00  0.00    +0.007 A 
BRANCH  23  26
ATOM     26  N   UNL     1       4.940  -5.116  -2.623  0.00  0.00    -0.336 N 
ATOM     27  C   UNL     1       5.842  -6.254  -2.425  0.00  0.00    +0.129 C 
ATOM     28  C   UNL     1       4.867  -4.458  -3.930  0.00  0.00    +0.129 C 
ENDBRANCH  23  26
ENDBRANCH   9  20
TORSDOF 2
