REMARK  Name = ZINC54407271
REMARK  8 active torsions:
REMARK  status: ('A' for Active; 'I' for Inactive)
REMARK    1  A    between atoms: C_1  and  C_2
REMARK    2  A    between atoms: C_5  and  C_7
REMARK    3  A    between atoms: C_7  and  C_9
REMARK    4  A    between atoms: C_7  and  N_10
REMARK    5  A    between atoms: N_13  and  C_14
REMARK    6  A    between atoms: C_18  and  C_21
REMARK    7  A    between atoms: C_19  and  C_20
REMARK    8  A    between atoms: N_23  and  C_24
REMARK                            x       y       z     vdW  Elec       q    Type
REMARK                         _______ _______ _______ _____ _____    ______ ____
ROOT
ATOM      1  N   UNL     1       1.270  -4.591  -1.344  0.00  0.00    -0.292 N 
ATOM      2  C   UNL     1       1.891  -5.689  -1.817  0.00  0.00    +0.304 C 
ATOM      3  O   UNL     1       1.418  -6.791  -1.614  0.00  0.00    -0.252 OA
ATOM      4  N   UNL     1       3.037  -5.567  -2.516  0.00  0.00    -0.269 N 
ATOM      5  H   UNL     1       1.648  -3.712  -1.506  0.00  0.00    +0.151 HD
ATOM      6  H   UNL     1       3.378  -4.686  -2.739  0.00  0.00    +0.156 HD
ENDROOT
BRANCH   4   7
ATOM      7  C   UNL     1       3.737  -6.710  -2.920  0.00  0.00    +0.038 A 
ATOM      8  C   UNL     1       3.514  -7.923  -2.279  0.00  0.00    +0.023 A 
ATOM      9  C   UNL     1       4.202  -9.055  -2.673  0.00  0.00    +0.003 A 
ATOM     10  C   UNL     1       5.114  -8.989  -3.707  0.00  0.00    +0.013 A 
ATOM     11  C   UNL     1       5.344  -7.775  -4.358  0.00  0.00    +0.041 A 
ATOM     12  C   UNL     1       4.646  -6.634  -3.962  0.00  0.00    -0.017 A 
ATOM     13  C   UNL     1       4.885  -5.322  -4.663  0.00  0.00    +0.046 C 
BRANCH  11  14
ATOM     14  C   UNL     1       6.320  -7.701  -5.466  0.00  0.00    +0.244 C 
ATOM     15  O   UNL     1       6.617  -6.623  -5.943  0.00  0.00    -0.270 OA
ATOM     16  N   UNL     1       6.881  -8.829  -5.947  0.00  0.00    -0.314 N 
ATOM     17  C   UNL     1       7.848  -8.755  -7.044  0.00  0.00    +0.128 C 
ATOM     18  H   UNL     1       6.644  -9.689  -5.566  0.00  0.00    +0.149 HD
ENDBRANCH  11  14
ENDBRANCH   4   7
BRANCH   1  19
ATOM     19  C   UNL     1       0.024  -4.724  -0.585  0.00  0.00    +0.108 C 
ATOM     20  C   UNL     1       0.349  -4.995   0.886  0.00  0.00    +0.033 C 
BRANCH  19  25
ATOM     21  C   UNL     1      -2.089   0.521  -0.919  0.00  0.00    +0.051 C 
ATOM     22  C   UNL     1      -1.777  -0.952  -0.856  0.00  0.00    -0.013 A 
ATOM     23  C   UNL     1      -2.624  -2.008  -0.928  0.00  0.00    +0.011 A 
ATOM     24  C   UNL     1      -2.109  -3.288  -0.847  0.00  0.00    +0.013 A 
ATOM     25  C   UNL     1      -0.771  -3.449  -0.697  0.00  0.00    +0.010 A 
ATOM     26  S   UNL     1      -0.196  -1.760  -0.673  0.00  0.00    -0.097 S 
ENDBRANCH  19  25
ENDBRANCH   1  19
TORSDOF 4
