REMARK  Name = ZINC49601779
REMARK  19 active torsions:
REMARK  status: ('A' for Active; 'I' for Inactive)
REMARK    1  A    between atoms: C_1  and  C_2
REMARK    2  A    between atoms: C_7  and  C_43
REMARK    3  A    between atoms: C_7  and  C_44
REMARK    4  A    between atoms: C_8  and  C_10
REMARK    5  A    between atoms: C_10  and  C_11
REMARK    6  A    between atoms: C_11  and  C_12
REMARK    7  A    between atoms: C_12  and  C_14
REMARK    8  A    between atoms: C_12  and  O_15
REMARK    9  A    between atoms: O_15  and  C_16
REMARK   10  A    between atoms: C_18  and  O_42
REMARK   11  A    between atoms: C_20  and  O_41
REMARK   12  A    between atoms: C_22  and  O_40
REMARK   13  A    between atoms: C_24  and  C_27
REMARK   14  A    between atoms: C_27  and  O_28
REMARK   15  A    between atoms: O_28  and  C_29
REMARK   16  A    between atoms: C_29  and  C_31
REMARK   17  A    between atoms: C_33  and  O_39
REMARK   18  A    between atoms: C_34  and  O_38
REMARK   19  A    between atoms: C_35  and  O_37
REMARK                            x       y       z     vdW  Elec       q    Type
REMARK                         _______ _______ _______ _____ _____    ______ ____
ROOT
ATOM      1  C   UNL     1      -3.005   3.416   1.096  0.00  0.00    +0.282 C 
ATOM      2  C   UNL     1      -4.092   3.244   0.033  0.00  0.00    +0.201 C 
ATOM      3  C   UNL     1      -5.405   3.834   0.556  0.00  0.00    +0.179 C 
ATOM      4  C   UNL     1      -5.180   5.304   0.924  0.00  0.00    +0.178 C 
ATOM      5  C   UNL     1      -4.050   5.397   1.953  0.00  0.00    +0.190 C 
ATOM      6  O   UNL     1      -2.867   4.803   1.415  0.00  0.00    -0.339 OA
ENDROOT
BRANCH   4   7
ATOM      7  O   UNL     1      -4.822   6.040  -0.248  0.00  0.00    -0.386 OA
ATOM      8  H   UNL     1      -5.493   6.020  -0.945  0.00  0.00    +0.210 HD
ENDBRANCH   4   7
BRANCH   3   9
ATOM      9  O   UNL     1      -6.408   3.742  -0.458  0.00  0.00    -0.386 OA
ATOM     10  H   UNL     1      -6.597   2.837  -0.743  0.00  0.00    +0.210 HD
ENDBRANCH   3   9
BRANCH   2  11
ATOM     11  O   UNL     1      -3.704   3.924  -1.162  0.00  0.00    -0.384 OA
ATOM     12  H   UNL     1      -2.876   3.603  -1.546  0.00  0.00    +0.210 HD
ENDBRANCH   2  11
BRANCH   1  13
ATOM     13  O   UNL     1      -1.763   2.918   0.594  0.00  0.00    -0.346 OA
BRANCH  13  14
ATOM     14  C   UNL     1      -0.733   2.823   1.580  0.00  0.00    +0.118 C 
ATOM     15  C   UNL     1       0.051   4.136   1.625  0.00  0.00    +0.038 C 
BRANCH  14  16
ATOM     16  C   UNL     1       0.213   1.676   1.220  0.00  0.00    +0.032 C 
BRANCH  16  17
ATOM     17  C   UNL     1      -0.543   0.348   1.296  0.00  0.00    +0.011 C 
BRANCH  17  25
ATOM     18  C   UNL     1      -1.800  -1.783  -0.146  0.00  0.00    +0.039 C 
ATOM     19  C   UNL     1      -0.462  -1.992   0.514  0.00  0.00    -0.066 C 
ATOM     20  C   UNL     1      -0.076  -3.235   0.779  0.00  0.00    +0.045 C 
ATOM     21  C   UNL     1       1.213  -3.493   1.429  0.00  0.00    +0.157 C 
ATOM     22  O   UNL     1       1.488  -4.593   1.861  0.00  0.00    -0.293 OA
ATOM     23  C   UNL     1       2.190  -2.341   1.543  0.00  0.00    +0.086 C 
ATOM     24  C   UNL     1       1.383  -1.096   1.940  0.00  0.00    -0.021 C 
ATOM     25  C   UNL     1       0.372  -0.787   0.834  0.00  0.00    +0.021 C 
ATOM     26  C   UNL     1       2.329   0.093   2.115  0.00  0.00    +0.012 C 
ATOM     27  C   UNL     1       0.645  -1.363   3.254  0.00  0.00    +0.012 C 
ENDBRANCH  17  25
ENDBRANCH  16  17
ENDBRANCH  14  16
ENDBRANCH  13  14
ENDBRANCH   1  13
BRANCH   5  28
ATOM     28  C   UNL     1      -3.779   6.867   2.281  0.00  0.00    +0.266 C 
BRANCH  28  29
ATOM     29  O   UNL     1      -2.807   6.950   3.325  0.00  0.00    -0.458 OA
BRANCH  29  30
ATOM     30  C   UNL     1      -2.454   8.184   3.735  0.00  0.00    +0.340 C 
ATOM     31  O   UNL     1      -2.957   9.163   3.220  0.00  0.00    -0.245 OA
BRANCH  30  32
ATOM     32  C   UNL     1      -1.456   8.347   4.809  0.00  0.00    +0.066 A 
ATOM     33  C   UNL     1      -0.872   7.223   5.398  0.00  0.00    +0.064 A 
ATOM     34  C   UNL     1       0.063   7.378   6.404  0.00  0.00    +0.163 A 
ATOM     35  C   UNL     1       0.422   8.654   6.831  0.00  0.00    +0.201 A 
ATOM     36  C   UNL     1      -0.158   9.776   6.246  0.00  0.00    +0.163 A 
ATOM     37  C   UNL     1      -1.089   9.627   5.235  0.00  0.00    +0.064 A 
BRANCH  36  38
ATOM     38  O   UNL     1       0.195  11.021   6.666  0.00  0.00    -0.503 OA
ATOM     39  H   UNL     1       0.943  11.401   6.184  0.00  0.00    +0.292 HD
ENDBRANCH  36  38
BRANCH  35  40
ATOM     40  O   UNL     1       1.341   8.804   7.821  0.00  0.00    -0.501 OA
ATOM     41  H   UNL     1       2.253   8.867   7.505  0.00  0.00    +0.292 HD
ENDBRANCH  35  40
BRANCH  34  42
ATOM     42  O   UNL     1       0.632   6.284   6.978  0.00  0.00    -0.503 OA
ATOM     43  H   UNL     1       1.442   5.987   6.541  0.00  0.00    +0.292 HD
ENDBRANCH  34  42
ENDBRANCH  30  32
ENDBRANCH  29  30
ENDBRANCH  28  29
ENDBRANCH   5  28
TORSDOF 15
