REMARK  Name = ZINC66237240
REMARK  12 active torsions:
REMARK  status: ('A' for Active; 'I' for Inactive)
REMARK    1  A    between atoms: C_1  and  C_2
REMARK    2  A    between atoms: C_4  and  C_21
REMARK    3  A    between atoms: C_7  and  O_8
REMARK    4  A    between atoms: O_8  and  C_9
REMARK    5  A    between atoms: C_9  and  C_10
REMARK    6  A    between atoms: C_10  and  C_12
REMARK    7  A    between atoms: C_10  and  O_20
REMARK    8  A    between atoms: C_12  and  S_13
REMARK    9  A    between atoms: S_13  and  C_14
REMARK   10  A    between atoms: C_21  and  C_22
REMARK   11  A    between atoms: C_21  and  C_23
REMARK   12  A    between atoms: C_21  and  C_24
REMARK                            x       y       z     vdW  Elec       q    Type
REMARK                         _______ _______ _______ _____ _____    ______ ____
ROOT
ATOM      1  C   UNL     1       0.048  -0.820   3.574  0.00  0.00    +0.261 C 
ENDROOT
BRANCH   1   2
ATOM      2  O   UNL     1       0.025  -0.033   2.381  0.00  0.00    -0.489 OA
BRANCH   2   9
ATOM      3  C   UNL     1      -0.018   1.503   0.010  0.00  0.00    +0.047 C 
ATOM      4  C   UNL     1       0.002  -0.004   0.002  0.00  0.00    -0.009 A 
ATOM      5  C   UNL     1       0.006  -0.689  -1.198  0.00  0.00    +0.011 A 
ATOM      6  C   UNL     1       0.024  -2.071  -1.206  0.00  0.00    -0.042 A 
ATOM      7  C   UNL     1       0.039  -2.772  -0.014  0.00  0.00    +0.008 A 
ATOM      8  C   UNL     1       0.036  -2.092   1.188  0.00  0.00    +0.046 A 
ATOM      9  C   UNL     1       0.023  -0.705   1.199  0.00  0.00    +0.124 A 
BRANCH   6  10
ATOM     10  C   UNL     1       0.027  -2.816  -2.517  0.00  0.00    -0.013 C 
ATOM     11  C   UNL     1       1.267  -2.424  -3.323  0.00  0.00    +0.015 C 
ATOM     12  C   UNL     1       0.048  -4.322  -2.247  0.00  0.00    +0.015 C 
ATOM     13  C   UNL     1      -1.231  -2.457  -3.310  0.00  0.00    +0.015 C 
ENDBRANCH   6  10
ENDBRANCH   2   9
ENDBRANCH   1   2
BRANCH   1  14
ATOM     14  C   UNL     1       0.047   0.104   4.793  0.00  0.00    +0.162 C 
BRANCH  14  15
ATOM     15  O   UNL     1      -1.183   0.829   4.841  0.00  0.00    -0.388 OA
ATOM     16  H   UNL     1      -1.968   0.268   4.908  0.00  0.00    +0.210 HD
ENDBRANCH  14  15
BRANCH  14  17
ATOM     17  C   UNL     1       0.196  -0.732   6.066  0.00  0.00    +0.111 C 
BRANCH  17  18
ATOM     18  S   UNL     1       0.196   0.363   7.512  0.00  0.00    -0.094 S 
BRANCH  18  19
ATOM     19  C   UNL     1       0.372  -0.735   8.879  0.00  0.00    +0.160 A 
ATOM     20  N   UNL     1       0.488  -2.049   8.886  0.00  0.00    -0.133 NA
ATOM     21  N   UNL     1       0.618  -2.719  10.080  0.00  0.00    -0.125 NA
ATOM     22  C   UNL     1       0.626  -2.044  11.213  0.00  0.00    +0.180 A 
ATOM     23  S   UNL     1       0.451  -0.366  10.625  0.00  0.00    -0.025 S 
ATOM     24  N   UNL     1       0.744  -2.512  12.517  0.00  0.00    -0.336 N 
ATOM     25  H   UNL     1       0.838  -3.463  12.684  0.00  0.00    +0.144 HD
ATOM     26  H   UNL     1       0.733  -1.888  13.259  0.00  0.00    +0.144 HD
ENDBRANCH  18  19
ENDBRANCH  17  18
ENDBRANCH  14  17
ENDBRANCH   1  14
TORSDOF 8
