REMARK  Name = ZINC04944175
REMARK  6 active torsions:
REMARK  status: ('A' for Active; 'I' for Inactive)
REMARK    1  A    between atoms: C_1  and  C_2
REMARK    2  A    between atoms: C_2  and  C_3
REMARK    3  A    between atoms: C_3  and  S_4
REMARK    4  A    between atoms: S_4  and  C_5
REMARK    5  A    between atoms: C_17  and  C_19
REMARK    6  A    between atoms: C_22  and  C_25
REMARK                            x       y       z     vdW  Elec       q    Type
REMARK                         _______ _______ _______ _____ _____    ______ ____
ROOT
ATOM      1  C   UNL     1       1.589  -2.718  -2.758  0.00  0.00    +0.171 A 
ATOM      2  N   UNL     1       1.778  -4.028  -3.080  0.00  0.00    -0.302 N 
ATOM      3  H   UNL     1       1.448  -4.724  -2.491  0.00  0.00    +0.171 HD
ATOM      4  C   UNL     1       2.424  -4.358  -4.219  0.00  0.00    +0.258 A 
ATOM      5  O   UNL     1       2.600  -5.528  -4.519  0.00  0.00    -0.267 OA
ATOM      6  C   UNL     1       2.888  -3.332  -5.047  0.00  0.00    +0.065 A 
ATOM      7  C   UNL     1       2.671  -2.015  -4.676  0.00  0.00    +0.137 A 
ATOM      8  N   UNL     1       2.020  -1.748  -3.539  0.00  0.00    -0.208 NA
ATOM      9  N   UNL     1       3.123  -0.985  -5.483  0.00  0.00    -0.270 N 
ATOM     10  C   UNL     1       3.437  -1.211  -6.772  0.00  0.00    +0.219 C 
ATOM     11  O   UNL     1       3.847  -0.298  -7.457  0.00  0.00    -0.275 OA
ATOM     12  C   UNL     1       3.285  -2.582  -7.375  0.00  0.00    +0.109 C 
ATOM     13  C   UNL     1       3.612  -3.647  -6.327  0.00  0.00    +0.066 C 
ATOM     14  H   UNL     1       3.214  -0.092  -5.116  0.00  0.00    +0.156 HD
ENDROOT
BRANCH  13  15
ATOM     15  C   UNL     1       5.098  -3.662  -6.073  0.00  0.00    -0.039 A 
ATOM     16  C   UNL     1       5.729  -2.527  -5.598  0.00  0.00    +0.004 A 
ATOM     17  C   UNL     1       7.091  -2.540  -5.365  0.00  0.00    +0.003 A 
ATOM     18  C   UNL     1       7.823  -3.688  -5.606  0.00  0.00    -0.050 A 
ATOM     19  C   UNL     1       7.192  -4.823  -6.081  0.00  0.00    +0.003 A 
ATOM     20  C   UNL     1       5.829  -4.811  -6.310  0.00  0.00    +0.004 A 
ATOM     21  C   UNL     1       9.308  -3.702  -5.353  0.00  0.00    +0.044 C 
ENDBRANCH  13  15
BRANCH   1  22
ATOM     22  S   UNL     1       0.743  -2.311  -1.267  0.00  0.00    -0.088 S 
BRANCH  22  23
ATOM     23  C   UNL     1       0.718  -0.497  -1.257  0.00  0.00    +0.077 C 
BRANCH  23  25
ATOM     24  C   UNL     1      -0.019   1.526   0.010  0.00  0.00    +0.004 C 
ATOM     25  C   UNL     1       0.002  -0.004   0.002  0.00  0.00    +0.008 C 
ENDBRANCH  23  25
ENDBRANCH  22  23
ENDBRANCH   1  22
TORSDOF 4
