REMARK  Name = ZINC09429139
REMARK  12 active torsions:
REMARK  status: ('A' for Active; 'I' for Inactive)
REMARK    1  A    between atoms: C_1  and  C_2
REMARK    2  A    between atoms: C_6  and  N_9
REMARK    3  A    between atoms: C_7  and  C_8
REMARK    4  A    between atoms: C_10  and  C_12
REMARK    5  A    between atoms: C_12  and  C_14
REMARK    6  A    between atoms: C_12  and  N_17
REMARK    7  A    between atoms: C_14  and  C_15
REMARK    8  A    between atoms: C_14  and  C_16
REMARK    9  A    between atoms: N_17  and  S_18
REMARK   10  A    between atoms: S_18  and  C_21
REMARK   11  A    between atoms: C_28  and  C_34
REMARK   12  A    between atoms: C_31  and  C_33
REMARK                            x       y       z     vdW  Elec       q    Type
REMARK                         _______ _______ _______ _____ _____    ______ ____
ROOT
ATOM      1  N   UNL     1      -0.023   1.523  -0.172  0.00  0.00    -0.178 NA
ATOM      2  H   UNL     1       0.784   2.011   0.055  0.00  0.00    +0.149 HD
ENDROOT
BRANCH   1   3
ATOM      3  S   UNL     1       0.082  -0.010  -0.789  0.00  0.00    +0.059 S 
ATOM      4  O   UNL     1       1.466  -0.292  -0.942  0.00  0.00    -0.153 OA
ATOM      5  O   UNL     1      -0.779  -0.824  -0.004  0.00  0.00    -0.153 OA
BRANCH   3   6
ATOM      6  C   UNL     1      -0.605   0.033  -2.411  0.00  0.00    +0.106 A 
ATOM      7  C   UNL     1       0.203   0.305  -3.499  0.00  0.00    +0.030 A 
ATOM      8  C   UNL     1      -0.331   0.339  -4.769  0.00  0.00    +0.026 A 
ATOM      9  C   UNL     1      -1.693   0.100  -4.967  0.00  0.00    +0.040 A 
ATOM     10  C   UNL     1      -2.494  -0.171  -3.870  0.00  0.00    -0.022 A 
ATOM     11  C   UNL     1      -1.953  -0.211  -2.599  0.00  0.00    +0.034 A 
ATOM     12  C   UNL     1      -3.911  -0.390  -4.351  0.00  0.00    +0.059 C 
ATOM     13  C   UNL     1      -3.834  -0.212  -5.876  0.00  0.00    +0.083 C 
ATOM     14  N   UNL     1      -2.427   0.087  -6.157  0.00  0.00    -0.268 N 
ATOM     15  C   UNL     1      -1.915   0.317  -7.383  0.00  0.00    +0.217 C 
ATOM     16  O   UNL     1      -0.721   0.472  -7.522  0.00  0.00    -0.276 OA
ATOM     17  C   UNL     1      -2.828   0.381  -8.580  0.00  0.00    +0.109 C 
ATOM     18  C   UNL     1      -4.724   0.951  -6.320  0.00  0.00    +0.029 C 
ENDBRANCH   3   6
ENDBRANCH   1   3
BRANCH   1  19
ATOM     19  C   UNL     1      -1.335   2.145   0.026  0.00  0.00    +0.165 C 
BRANCH  19  21
ATOM     20  N   UNL     1      -2.603   4.065  -0.882  0.00  0.00    -0.284 N 
ATOM     21  C   UNL     1      -1.471   3.333  -0.891  0.00  0.00    +0.236 C 
ATOM     22  O   UNL     1      -0.561   3.631  -1.636  0.00  0.00    -0.274 OA
ATOM     23  H   UNL     1      -3.302   3.868  -0.239  0.00  0.00    +0.155 HD
BRANCH  20  29
ATOM     24  C   UNL     1      -5.586   6.896  -3.575  0.00  0.00    +0.044 C 
ATOM     25  C   UNL     1      -4.204   6.500  -3.123  0.00  0.00    -0.046 A 
ATOM     26  C   UNL     1      -3.098   7.169  -3.616  0.00  0.00    +0.004 A 
ATOM     27  C   UNL     1      -1.828   6.809  -3.204  0.00  0.00    +0.002 A 
ATOM     28  C   UNL     1      -1.661   5.780  -2.297  0.00  0.00    +0.023 A 
ATOM     29  C   UNL     1      -2.769   5.107  -1.801  0.00  0.00    +0.037 A 
ATOM     30  C   UNL     1      -4.043   5.467  -2.222  0.00  0.00    -0.026 A 
ATOM     31  C   UNL     1      -5.248   4.735  -1.690  0.00  0.00    +0.046 C 
ENDBRANCH  20  29
ENDBRANCH  19  21
BRANCH  19  32
ATOM     32  C   UNL     1      -1.467   2.604   1.479  0.00  0.00    +0.010 C 
ATOM     33  C   UNL     1      -1.340   1.396   2.410  0.00  0.00    +0.009 C 
ATOM     34  C   UNL     1      -0.361   3.612   1.799  0.00  0.00    +0.009 C 
ENDBRANCH  19  32
ENDBRANCH   1  19
TORSDOF 6
