REMARK  Name = ZINC65331123
REMARK  3 active torsions:
REMARK  status: ('A' for Active; 'I' for Inactive)
REMARK    1  A    between atoms: C_4  and  N_7
REMARK    2  A    between atoms: C_12  and  C_18
REMARK    3  A    between atoms: C_22  and  O_24
REMARK                            x       y       z     vdW  Elec       q    Type
REMARK                         _______ _______ _______ _____ _____    ______ ____
ROOT
ATOM      1  N   UNL     1       3.623  -0.652  -0.037  0.00  0.00    -0.218 N 
ATOM      2  C   UNL     1       3.889  -1.825   0.573  0.00  0.00    +0.132 A 
ATOM      3  C   UNL     1       5.195  -2.144   0.307  0.00  0.00    +0.020 A 
ATOM      4  C   UNL     1       5.729  -1.136  -0.482  0.00  0.00    +0.141 A 
ATOM      5  N   UNL     1       4.793  -0.241  -0.698  0.00  0.00    -0.173 NA
ATOM      6  C   UNL     1       5.837  -3.402   0.831  0.00  0.00    +0.063 C 
ATOM      7  C   UNL     1       4.749  -4.468   0.993  0.00  0.00    +0.109 C 
ATOM      8  C   UNL     1       3.511  -3.897   1.621  0.00  0.00    +0.219 C 
ATOM      9  O   UNL     1       2.877  -4.584   2.395  0.00  0.00    -0.275 OA
ATOM     10  N   UNL     1       3.077  -2.646   1.355  0.00  0.00    -0.270 N 
ATOM     11  H   UNL     1       2.227  -2.329   1.696  0.00  0.00    +0.156 HD
ENDROOT
BRANCH   1  15
ATOM     12  C   UNL     1      -0.017   1.379   0.010  0.00  0.00    +0.000 A 
ATOM     13  C   UNL     1       1.170   2.089   0.002  0.00  0.00    +0.002 A 
ATOM     14  C   UNL     1       2.377   1.419  -0.013  0.00  0.00    +0.028 A 
ATOM     15  C   UNL     1       2.399   0.031  -0.021  0.00  0.00    +0.067 A 
ATOM     16  C   UNL     1       1.207  -0.680  -0.013  0.00  0.00    +0.028 A 
ATOM     17  C   UNL     1       0.002  -0.004   0.002  0.00  0.00    +0.002 A 
ENDBRANCH   1  15
BRANCH   6  18
ATOM     18  C   UNL     1       6.481  -3.126   2.166  0.00  0.00    -0.036 A 
ATOM     19  C   UNL     1       5.710  -2.687   3.227  0.00  0.00    +0.004 A 
ATOM     20  C   UNL     1       6.298  -2.433   4.452  0.00  0.00    +0.004 A 
ATOM     21  C   UNL     1       7.657  -2.617   4.619  0.00  0.00    +0.045 A 
ATOM     22  C   UNL     1       8.432  -3.058   3.557  0.00  0.00    +0.117 A 
ATOM     23  C   UNL     1       7.839  -3.318   2.329  0.00  0.00    +0.049 A 
BRANCH  22  24
ATOM     24  O   UNL     1       9.769  -3.240   3.719  0.00  0.00    -0.507 OA
ATOM     25  H   UNL     1      10.012  -4.130   4.008  0.00  0.00    +0.292 HD
ENDBRANCH  22  24
ENDBRANCH   6  18
TORSDOF 3
