REMARK  Name = ZINC21144963
REMARK  10 active torsions:
REMARK  status: ('A' for Active; 'I' for Inactive)
REMARK    1  A    between atoms: C_1  and  C_2
REMARK    2  A    between atoms: C_5  and  C_8
REMARK    3  A    between atoms: C_8  and  S_9
REMARK    4  A    between atoms: S_9  and  C_10
REMARK    5  A    between atoms: C_10  and  C_11
REMARK    6  A    between atoms: N_13  and  C_14
REMARK    7  A    between atoms: C_17  and  O_20
REMARK    8  A    between atoms: O_20  and  C_21
REMARK    9  A    between atoms: N_29  and  C_32
REMARK   10  A    between atoms: C_32  and  C_33
REMARK                            x       y       z     vdW  Elec       q    Type
REMARK                         _______ _______ _______ _____ _____    ______ ____
ROOT
ATOM      1  C   UNL     1      -2.975  -2.273  -0.069  0.00  0.00    +0.034 A 
ATOM      2  C   UNL     1      -4.007  -1.346  -0.131  0.00  0.00    +0.027 A 
ATOM      3  C   UNL     1      -5.316  -1.776  -0.217  0.00  0.00    +0.048 A 
ATOM      4  C   UNL     1      -5.601  -3.134  -0.229  0.00  0.00    +0.129 A 
ATOM      5  C   UNL     1      -4.570  -4.061  -0.162  0.00  0.00    +0.048 A 
ATOM      6  C   UNL     1      -3.260  -3.632  -0.082  0.00  0.00    +0.027 A 
ENDROOT
BRANCH   1   9
ATOM      7  C   UNL     1      -0.669  -2.537  -0.598  0.00  0.00    +0.227 C 
ATOM      8  O   UNL     1      -0.928  -3.585  -1.151  0.00  0.00    -0.275 OA
ATOM      9  N   UNL     1      -1.646  -1.837   0.012  0.00  0.00    -0.285 N 
ATOM     10  H   UNL     1      -1.400  -0.924   0.574  0.00  0.00    +0.155 HD
BRANCH   7  11
ATOM     11  C   UNL     1       0.746  -2.016  -0.594  0.00  0.00    +0.165 C 
BRANCH  11  12
ATOM     12  S   UNL     1       1.818  -3.174  -1.489  0.00  0.00    -0.147 S 
BRANCH  12  13
ATOM     13  C   UNL     1       3.462  -2.412  -1.394  0.00  0.00    +0.104 C 
BRANCH  13  18
ATOM     14  C   UNL     1       7.297  -5.756  -4.134  0.00  0.00    +0.044 C 
ATOM     15  C   UNL     1       6.297  -4.883  -3.419  0.00  0.00    -0.050 A 
ATOM     16  C   UNL     1       5.623  -3.894  -4.111  0.00  0.00    +0.003 A 
ATOM     17  C   UNL     1       4.706  -3.094  -3.455  0.00  0.00    +0.005 A 
ATOM     18  C   UNL     1       4.462  -3.284  -2.108  0.00  0.00    -0.038 A 
ATOM     19  C   UNL     1       5.138  -4.271  -1.415  0.00  0.00    +0.005 A 
ATOM     20  C   UNL     1       6.053  -5.073  -2.072  0.00  0.00    +0.003 A 
ENDBRANCH  13  18
ENDBRANCH  12  13
ENDBRANCH  11  12
ENDBRANCH   7  11
ENDBRANCH   1   9
BRANCH   4  21
ATOM     21  O   UNL     1      -6.891  -3.557  -0.307  0.00  0.00    -0.456 OA
BRANCH  21  22
ATOM     22  C   UNL     1      -7.516  -3.476  -1.509  0.00  0.00    +0.129 A 
ATOM     23  C   UNL     1      -6.871  -2.880  -2.585  0.00  0.00    +0.047 A 
ATOM     24  C   UNL     1      -7.497  -2.791  -3.815  0.00  0.00    +0.017 A 
ATOM     25  C   UNL     1      -8.778  -3.300  -3.975  0.00  0.00    +0.050 A 
ATOM     26  C   UNL     1      -9.436  -3.906  -2.884  0.00  0.00    +0.053 A 
ATOM     27  C   UNL     1      -8.800  -3.995  -1.659  0.00  0.00    +0.060 A 
ATOM     28  C   UNL     1     -10.758  -4.329  -3.394  0.00  0.00    +0.254 C 
ATOM     29  O   UNL     1     -11.620  -4.891  -2.750  0.00  0.00    -0.270 OA
ATOM     30  N   UNL     1     -10.845  -3.986  -4.692  0.00  0.00    -0.232 N 
ATOM     31  C   UNL     1      -9.720  -3.377  -5.108  0.00  0.00    +0.254 C 
ATOM     32  O   UNL     1      -9.515  -2.958  -6.230  0.00  0.00    -0.270 OA
BRANCH  30  33
ATOM     33  C   UNL     1     -12.011  -4.243  -5.541  0.00  0.00    +0.148 C 
BRANCH  33  34
ATOM     34  C   UNL     1     -12.971  -3.054  -5.462  0.00  0.00    +0.136 C 
ATOM     35  C   UNL     1     -14.255  -3.364  -6.261  0.00  0.00    +0.035 C 
ATOM     36  C   UNL     1     -14.562  -1.998  -6.933  0.00  0.00    +0.031 C 
ATOM     37  C   UNL     1     -13.129  -1.465  -7.185  0.00  0.00    +0.160 C 
ATOM     38  O   UNL     1     -12.363  -1.899  -6.050  0.00  0.00    -0.375 OA
ENDBRANCH  33  34
ENDBRANCH  30  33
ENDBRANCH  21  22
ENDBRANCH   4  21
TORSDOF 9
