REMARK  Name = ZINC39596103
REMARK  8 active torsions:
REMARK  status: ('A' for Active; 'I' for Inactive)
REMARK    1  A    between atoms: C_1  and  C_2
REMARK    2  A    between atoms: C_5  and  C_10
REMARK    3  A    between atoms: C_14  and  C_23
REMARK    4  A    between atoms: N_25  and  C_26
REMARK    5  A    between atoms: C_26  and  C_27
REMARK    6  A    between atoms: C_27  and  C_29
REMARK    7  A    between atoms: C_27  and  O_30
REMARK    8  A    between atoms: O_30  and  C_31
REMARK                            x       y       z     vdW  Elec       q    Type
REMARK                         _______ _______ _______ _____ _____    ______ ____
ROOT
ATOM      1  C   UNL     1      -0.156  -4.609   0.070  0.00  0.00    +0.250 C 
ATOM      2  O   UNL     1      -0.108  -5.274   1.087  0.00  0.00    -0.270 OA
ATOM      3  N   UNL     1      -0.233  -5.219  -1.130  0.00  0.00    -0.296 N 
ATOM      4  C   UNL     1      -0.194  -4.591  -2.472  0.00  0.00    +0.121 C 
ATOM      5  C   UNL     1       0.653  -5.557  -3.330  0.00  0.00    +0.100 C 
ATOM      6  C   UNL     1       0.529  -6.919  -2.627  0.00  0.00    -0.004 C 
ATOM      7  C   UNL     1      -0.368  -6.669  -1.405  0.00  0.00    +0.115 C 
ATOM      8  C   UNL     1       1.902  -7.407  -2.174  0.00  0.00    -0.010 C 
ATOM      9  C   UNL     1       1.760  -8.788  -1.528  0.00  0.00    -0.082 C 
ATOM     10  N   UNL     1       1.179  -9.726  -2.497  0.00  0.00    +0.379 N 
ATOM     11  C   UNL     1      -0.178  -9.299  -2.857  0.00  0.00    -0.082 C 
ATOM     12  C   UNL     1      -0.118  -7.939  -3.558  0.00  0.00    -0.010 C 
ATOM     13  H   UNL     1       1.754  -9.749  -3.326  0.00  0.00    -0.086 HD
ATOM     14  H   UNL     1       1.143 -10.649  -2.090  0.00  0.00    -0.086 HD
ENDROOT
BRANCH   1  19
ATOM     15  C   UNL     1      -0.065   1.138   0.373  0.00  0.00    +0.047 C 
ATOM     16  C   UNL     1      -0.087  -0.366   0.295  0.00  0.00    -0.012 A 
ATOM     17  C   UNL     1      -0.836  -0.995  -0.685  0.00  0.00    +0.007 A 
ATOM     18  C   UNL     1      -0.862  -2.371  -0.764  0.00  0.00    +0.016 A 
ATOM     19  C   UNL     1      -0.131  -3.135   0.149  0.00  0.00    +0.075 A 
ATOM     20  C   UNL     1       0.624  -2.497   1.137  0.00  0.00    +0.171 A 
ATOM     21  C   UNL     1       0.645  -1.113   1.201  0.00  0.00    +0.162 A 
ATOM     22  F   UNL     1       1.378  -0.493   2.152  0.00  0.00    -0.202 F 
ATOM     23  F   UNL     1       1.334  -3.228   2.025  0.00  0.00    -0.202 F 
ENDBRANCH   1  19
BRANCH   5  24
ATOM     24  C   UNL     1       0.101  -5.636  -4.730  0.00  0.00    +0.218 C 
ATOM     25  O   UNL     1      -1.073  -5.410  -4.933  0.00  0.00    -0.275 OA
ATOM     26  N   UNL     1       0.912  -5.956  -5.758  0.00  0.00    -0.312 N 
ATOM     27  H   UNL     1       1.851  -6.137  -5.596  0.00  0.00    +0.149 HD
BRANCH  26  28
ATOM     28  C   UNL     1       0.376  -6.032  -7.119  0.00  0.00    +0.148 C 
BRANCH  28  29
ATOM     29  C   UNL     1       1.497  -6.412  -8.088  0.00  0.00    +0.187 C 
ATOM     30  C   UNL     1       0.966  -6.370  -9.523  0.00  0.00    +0.053 C 
BRANCH  29  31
ATOM     31  O   UNL     1       1.959  -7.731  -7.790  0.00  0.00    -0.488 OA
BRANCH  31  32
ATOM     32  C   UNL     1       3.222  -8.046  -8.181  0.00  0.00    +0.121 A 
ATOM     33  C   UNL     1       4.018  -7.089  -8.794  0.00  0.00    +0.048 A 
ATOM     34  C   UNL     1       5.301  -7.410  -9.191  0.00  0.00    +0.042 A 
ATOM     35  C   UNL     1       5.793  -8.687  -8.979  0.00  0.00    +0.124 A 
ATOM     36  C   UNL     1       4.999  -9.644  -8.369  0.00  0.00    +0.042 A 
ATOM     37  C   UNL     1       3.718  -9.323  -7.964  0.00  0.00    +0.048 A 
ATOM     38  F   UNL     1       7.048  -9.001  -9.369  0.00  0.00    -0.205 F 
ENDBRANCH  31  32
ENDBRANCH  29  31
ENDBRANCH  28  29
ENDBRANCH  26  28
ENDBRANCH   5  24
TORSDOF 6
