REMARK  Name = ZINC04992346
REMARK  10 active torsions:
REMARK  status: ('A' for Active; 'I' for Inactive)
REMARK    1  A    between atoms: C_1  and  C_2
REMARK    2  A    between atoms: C_2  and  C_3
REMARK    3  A    between atoms: C_3  and  N_4
REMARK    4  A    between atoms: N_4  and  C_5
REMARK    5  A    between atoms: C_5  and  C_6
REMARK    6  A    between atoms: C_8  and  O_21
REMARK    7  A    between atoms: N_12  and  C_13
REMARK    8  A    between atoms: C_17  and  C_20
REMARK    9  A    between atoms: C_18  and  C_19
REMARK   10  A    between atoms: O_21  and  C_22
REMARK                            x       y       z     vdW  Elec       q    Type
REMARK                         _______ _______ _______ _____ _____    ______ ____
ROOT
ATOM      1  C   UNL     1      -2.764  -3.858   0.107  0.00  0.00    +0.114 C 
ATOM      2  C   UNL     1      -4.125  -4.554   0.117  0.00  0.00    +0.278 C 
ATOM      3  C   UNL     1      -3.531  -5.297  -1.050  0.00  0.00    +0.263 C 
ATOM      4  O   UNL     1      -3.977  -6.170  -1.764  0.00  0.00    -0.271 OA
ATOM      5  N   UNL     1      -2.344  -4.668  -1.037  0.00  0.00    -0.263 N 
ENDROOT
BRANCH   5   6
ATOM      6  C   UNL     1      -1.178  -4.755  -1.806  0.00  0.00    +0.040 A 
ATOM      7  C   UNL     1      -0.167  -5.636  -1.441  0.00  0.00    +0.024 A 
ATOM      8  C   UNL     1       0.982  -5.718  -2.202  0.00  0.00    +0.002 A 
ATOM      9  C   UNL     1       1.128  -4.925  -3.326  0.00  0.00    +0.004 A 
ATOM     10  C   UNL     1       0.124  -4.047  -3.691  0.00  0.00    -0.046 A 
ATOM     11  C   UNL     1      -1.031  -3.964  -2.938  0.00  0.00    -0.026 A 
ATOM     12  C   UNL     1      -2.127  -3.012  -3.340  0.00  0.00    +0.046 C 
ATOM     13  C   UNL     1       0.288  -3.184  -4.915  0.00  0.00    +0.044 C 
ENDBRANCH   5   6
BRANCH   1  14
ATOM     14  C   UNL     1      -2.857  -2.366  -0.218  0.00  0.00    -0.055 C 
BRANCH  14  15
ATOM     15  N   UNL     1      -1.504  -1.802  -0.320  0.00  0.00    +0.380 N 
ATOM     16  H   UNL     1      -0.997  -2.275  -1.053  0.00  0.00    -0.086 HD
ATOM     17  H   UNL     1      -1.021  -1.926   0.557  0.00  0.00    -0.086 HD
BRANCH  15  18
ATOM     18  C   UNL     1      -1.593  -0.369  -0.632  0.00  0.00    -0.083 C 
BRANCH  18  20
ATOM     19  C   UNL     1      -0.277   1.710  -1.064  0.00  0.00    +0.002 C 
ATOM     20  C   UNL     1      -0.184   0.218  -0.739  0.00  0.00    -0.022 C 
ENDBRANCH  18  20
ENDBRANCH  15  18
ENDBRANCH  14  15
ENDBRANCH   1  14
BRANCH   2  21
ATOM     21  O   UNL     1      -5.224  -3.705  -0.220  0.00  0.00    -0.476 OA
BRANCH  21  22
ATOM     22  C   UNL     1      -6.458  -4.099   0.195  0.00  0.00    +0.140 A 
ATOM     23  C   UNL     1      -6.625  -5.335   0.800  0.00  0.00    +0.048 A 
ATOM     24  C   UNL     1      -7.879  -5.734   1.220  0.00  0.00    +0.023 A 
ATOM     25  C   UNL     1      -8.969  -4.900   1.038  0.00  0.00    +0.043 A 
ATOM     26  C   UNL     1      -8.805  -3.666   0.435  0.00  0.00    +0.043 A 
ATOM     27  C   UNL     1      -7.550  -3.261   0.018  0.00  0.00    +0.084 A 
ATOM     28 CL   UNL     1      -7.343  -1.710  -0.733  0.00  0.00    -0.080 Cl
ATOM     29 CL   UNL     1     -10.543  -5.404   1.568  0.00  0.00    -0.083 Cl
ENDBRANCH  21  22
ENDBRANCH   2  21
TORSDOF 7
