REMARK  Name = ZINC66612536
REMARK  7 active torsions:
REMARK  status: ('A' for Active; 'I' for Inactive)
REMARK    1  A    between atoms: C_1  and  C_2
REMARK    2  A    between atoms: C_2  and  N_3
REMARK    3  A    between atoms: N_3  and  C_4
REMARK    4  A    between atoms: C_4  and  C_5
REMARK    5  A    between atoms: C_14  and  C_16
REMARK    6  A    between atoms: C_19  and  C_21
REMARK    7  A    between atoms: C_26  and  C_27
REMARK                            x       y       z     vdW  Elec       q    Type
REMARK                         _______ _______ _______ _____ _____    ______ ____
ROOT
ATOM      1  N   UNL     1      -2.031   1.211  -0.770  0.00  0.00    -0.286 N 
ATOM      2  C   UNL     1      -2.290   1.229   0.552  0.00  0.00    +0.305 C 
ATOM      3  O   UNL     1      -1.490   1.725   1.321  0.00  0.00    -0.252 OA
ATOM      4  N   UNL     1      -3.437   0.699   1.022  0.00  0.00    -0.282 N 
ATOM      5  C   UNL     1      -4.265  -0.166   0.169  0.00  0.00    +0.128 C 
ATOM      6  C   UNL     1      -4.483  -1.501   0.891  0.00  0.00    +0.127 C 
ATOM      7  N   UNL     1      -4.928  -1.226   2.264  0.00  0.00    -0.293 N 
ATOM      8  C   UNL     1      -4.099  -0.361   3.117  0.00  0.00    +0.127 C 
ATOM      9  C   UNL     1      -3.878   0.970   2.397  0.00  0.00    +0.128 C 
ATOM     10  C   UNL     1      -6.074  -1.756   2.734  0.00  0.00    +0.266 C 
ATOM     11  O   UNL     1      -6.808  -2.376   1.988  0.00  0.00    -0.268 OA
ENDROOT
BRANCH  10  12
ATOM     12  C   UNL     1      -6.438  -1.586   4.151  0.00  0.00    +0.133 A 
ATOM     13  C   UNL     1      -7.685  -1.940   4.595  0.00  0.00    +0.080 A 
ATOM     14  S   UNL     1      -7.608  -1.564   6.234  0.00  0.00    -0.075 S 
ATOM     15  C   UNL     1      -5.932  -0.952   6.276  0.00  0.00    +0.109 A 
ATOM     16  N   UNL     1      -5.563  -1.092   5.016  0.00  0.00    -0.234 NA
BRANCH  15  17
ATOM     17  C   UNL     1      -5.158  -0.429   7.423  0.00  0.00    +0.010 A 
ATOM     18  C   UNL     1      -5.750   0.460   8.320  0.00  0.00    +0.011 A 
ATOM     19  C   UNL     1      -5.023   0.944   9.388  0.00  0.00    +0.001 A 
ATOM     20  C   UNL     1      -3.709   0.548   9.570  0.00  0.00    +0.000 A 
ATOM     21  C   UNL     1      -3.117  -0.333   8.684  0.00  0.00    +0.004 A 
ATOM     22  C   UNL     1      -3.835  -0.829   7.615  0.00  0.00    -0.041 A 
ATOM     23  C   UNL     1      -3.191  -1.794   6.654  0.00  0.00    +0.044 C 
ENDBRANCH  15  17
ENDBRANCH  10  12
BRANCH   1  25
ATOM     24  C   UNL     1      -0.495   2.968  -1.501  0.00  0.00    +0.024 C 
ATOM     25  C   UNL     1      -0.673   1.468  -1.254  0.00  0.00    +0.106 C 
ENDBRANCH   1  25
BRANCH   1  26
ATOM     26  C   UNL     1      -3.108   0.932  -1.724  0.00  0.00    +0.106 C 
ATOM     27  C   UNL     1      -2.836  -0.400  -2.426  0.00  0.00    +0.024 C 
ENDBRANCH   1  26
TORSDOF 4
