REMARK  Name = ZINC26680599
REMARK  8 active torsions:
REMARK  status: ('A' for Active; 'I' for Inactive)
REMARK    1  A    between atoms: C_1  and  C_2
REMARK    2  A    between atoms: C_5  and  N_30
REMARK    3  A    between atoms: C_7  and  S_8
REMARK    4  A    between atoms: S_8  and  N_11
REMARK    5  A    between atoms: C_14  and  C_17
REMARK    6  A    between atoms: N_19  and  C_20
REMARK    7  A    between atoms: C_20  and  C_22
REMARK    8  A    between atoms: C_20  and  C_23
REMARK                            x       y       z     vdW  Elec       q    Type
REMARK                         _______ _______ _______ _____ _____    ______ ____
ROOT
ATOM      1  N   UNL     1       3.353   3.318   1.932  0.00  0.00    -0.177 NA
ATOM      2  C   UNL     1       2.967   4.065   3.137  0.00  0.00    +0.110 C 
ATOM      3  C   UNL     1       2.375   3.078   4.155  0.00  0.00    +0.030 C 
ATOM      4  C   UNL     1       3.380   1.953   4.409  0.00  0.00    +0.077 C 
ATOM      5  C   UNL     1       3.644   1.198   3.104  0.00  0.00    +0.030 C 
ATOM      6  C   UNL     1       4.245   2.160   2.075  0.00  0.00    +0.110 C 
ENDROOT
BRANCH   4   7
ATOM      7  C   UNL     1       2.819   1.002   5.435  0.00  0.00    +0.217 C 
ATOM      8  O   UNL     1       2.647  -0.165   5.151  0.00  0.00    -0.275 OA
ATOM      9  N   UNL     1       2.508   1.447   6.668  0.00  0.00    -0.308 N 
ATOM     10  H   UNL     1       2.664   2.505   6.926  0.00  0.00    +0.149 HD
BRANCH   9  11
ATOM     11  C   UNL     1       1.963   0.522   7.665  0.00  0.00    +0.103 C 
ATOM     12  C   UNL     1       0.448   0.411   7.484  0.00  0.00    +0.033 C 
BRANCH  11  13
ATOM     13  C   UNL     1       2.266   1.039   9.048  0.00  0.00    +0.008 A 
ATOM     14  C   UNL     1       2.475   2.390   9.251  0.00  0.00    +0.008 A 
ATOM     15  C   UNL     1       2.753   2.864  10.520  0.00  0.00    +0.000 A 
ATOM     16  C   UNL     1       2.822   1.988  11.587  0.00  0.00    +0.003 A 
ATOM     17  C   UNL     1       2.614   0.636  11.386  0.00  0.00    +0.039 A 
ATOM     18  C   UNL     1       2.331   0.161  10.117  0.00  0.00    +0.128 A 
ATOM     19  F   UNL     1       2.122  -1.159   9.921  0.00  0.00    -0.205 F 
ENDBRANCH  11  13
ENDBRANCH   9  11
ENDBRANCH   4   7
BRANCH   1  20
ATOM     20  S   UNL     1       2.799   3.777   0.441  0.00  0.00    +0.061 S 
ATOM     21  O   UNL     1       3.772   3.351  -0.503  0.00  0.00    -0.153 OA
ATOM     22  O   UNL     1       2.395   5.135   0.558  0.00  0.00    -0.153 OA
BRANCH  20  29
ATOM     23  C   UNL     1       0.193   4.123   1.936  0.00  0.00    +0.046 C 
ATOM     24  C   UNL     1       0.194   3.074   0.855  0.00  0.00    -0.024 A 
ATOM     25  C   UNL     1      -0.950   2.341   0.601  0.00  0.00    +0.007 A 
ATOM     26  C   UNL     1      -0.947   1.375  -0.387  0.00  0.00    +0.033 A 
ATOM     27  C   UNL     1       0.198   1.148  -1.129  0.00  0.00    +0.128 A 
ATOM     28  C   UNL     1       1.342   1.881  -0.875  0.00  0.00    +0.061 A 
ATOM     29  C   UNL     1       1.340   2.844   0.117  0.00  0.00    +0.111 A 
BRANCH  27  30
ATOM     30  N   UNL     1       0.199   0.117  -2.191  0.00  0.00    +0.056 N 
ATOM     31  O   UNL     1       1.209  -0.085  -2.841  0.00  0.00    -0.126 OA
ATOM     32  O   UNL     1      -0.809  -0.528  -2.415  0.00  0.00    -0.126 OA
ENDBRANCH  27  30
ENDBRANCH  20  29
ENDBRANCH   1  20
TORSDOF 6
