REMARK  Name = ZINC01222193
REMARK  7 active torsions:
REMARK  status: ('A' for Active; 'I' for Inactive)
REMARK    1  A    between atoms: C_4  and  S_11
REMARK    2  A    between atoms: C_6  and  C_7
REMARK    3  A    between atoms: S_11  and  N_14
REMARK    4  A    between atoms: N_14  and  C_15
REMARK    5  A    between atoms: N_14  and  C_32
REMARK    6  A    between atoms: C_15  and  C_16
REMARK    7  A    between atoms: C_32  and  C_33
REMARK                            x       y       z     vdW  Elec       q    Type
REMARK                         _______ _______ _______ _____ _____    ______ ____
ROOT
ATOM      1  N   UNL     1      -6.638   2.414  -1.037  0.00  0.00    -0.170 NA
ENDROOT
BRANCH   1   2
ATOM      2  S   UNL     1      -5.840   3.310  -2.179  0.00  0.00    +0.063 S 
ATOM      3  O   UNL     1      -5.217   4.385  -1.489  0.00  0.00    -0.153 OA
ATOM      4  O   UNL     1      -5.107   2.391  -2.977  0.00  0.00    -0.153 OA
BRANCH   2   8
ATOM      5  C   UNL     1      -8.981   5.148  -4.872  0.00  0.00    +0.014 A 
ATOM      6  C   UNL     1      -8.701   3.797  -4.960  0.00  0.00    +0.022 A 
ATOM      7  C   UNL     1      -7.742   3.235  -4.137  0.00  0.00    +0.067 A 
ATOM      8  C   UNL     1      -7.062   4.025  -3.227  0.00  0.00    +0.124 A 
ATOM      9  C   UNL     1      -7.346   5.375  -3.137  0.00  0.00    +0.042 A 
ATOM     10  C   UNL     1      -8.301   5.937  -3.963  0.00  0.00    +0.057 A 
ATOM     11 CL   UNL     1      -7.389   1.538  -4.247  0.00  0.00    -0.082 Cl
BRANCH  10  12
ATOM     12  C   UNL     1      -8.606   7.410  -3.868  0.00  0.00    +0.417 C 
ATOM     13  F   UNL     1      -9.604   7.740  -4.792  0.00  0.00    -0.166 F 
ATOM     14  F   UNL     1      -9.050   7.712  -2.576  0.00  0.00    -0.166 F 
ATOM     15  F   UNL     1      -7.449   8.145  -4.148  0.00  0.00    -0.166 F 
ENDBRANCH  10  12
ENDBRANCH   2   8
ENDBRANCH   1   2
BRANCH   1  16
ATOM     16  C   UNL     1      -6.964   3.006   0.263  0.00  0.00    +0.150 C 
BRANCH  16  17
ATOM     17  C   UNL     1      -5.882   2.666   1.255  0.00  0.00    +0.033 A 
ATOM     18  C   UNL     1      -4.868   3.540   1.477  0.00  0.00    +0.020 A 
ATOM     19  C   UNL     1      -3.833   3.180   2.446  0.00  0.00    +0.003 A 
ATOM     20  C   UNL     1      -2.761   4.040   2.711  0.00  0.00    +0.059 A 
ATOM     21  C   UNL     1      -1.801   3.675   3.631  0.00  0.00    +0.163 A 
ATOM     22  C   UNL     1      -1.893   2.448   4.295  0.00  0.00    +0.164 A 
ATOM     23  C   UNL     1      -2.949   1.590   4.037  0.00  0.00    +0.075 A 
ATOM     24  C   UNL     1      -3.925   1.944   3.115  0.00  0.00    +0.053 A 
ATOM     25  N   UNL     1      -4.983   1.100   2.845  0.00  0.00    -0.322 N 
ATOM     26  H   UNL     1      -5.048   0.223   3.321  0.00  0.00    +0.169 HD
ATOM     27  C   UNL     1      -5.928   1.440   1.951  0.00  0.00    +0.254 A 
ATOM     28  O   UNL     1      -6.848   0.670   1.736  0.00  0.00    -0.268 OA
ATOM     29  O   UNL     1      -0.951   2.079   5.204  0.00  0.00    -0.485 OA
ATOM     30  C   UNL     1       0.292   2.789   5.167  0.00  0.00    +0.270 C 
ATOM     31  C   UNL     1      -0.013   4.290   5.074  0.00  0.00    +0.270 C 
ATOM     32  O   UNL     1      -0.763   4.522   3.877  0.00  0.00    -0.485 OA
ENDBRANCH  16  17
ENDBRANCH   1  16
BRANCH   1  33
ATOM     33  C   UNL     1      -7.018   1.029  -1.327  0.00  0.00    +0.141 C 
BRANCH  33  34
ATOM     34  C   UNL     1      -8.531   0.949  -1.535  0.00  0.00    +0.134 C 
ATOM     35  C   UNL     1      -8.941  -0.505  -1.841  0.00  0.00    +0.035 C 
ATOM     36  C   UNL     1      -9.952  -0.858  -0.722  0.00  0.00    +0.031 C 
ATOM     37  C   UNL     1     -10.413   0.544  -0.248  0.00  0.00    +0.160 C 
ATOM     38  O   UNL     1      -9.212   1.340  -0.331  0.00  0.00    -0.375 OA
ENDBRANCH  33  34
ENDBRANCH   1  33
TORSDOF 7
