REMARK  Name = ZINC35747271
REMARK  11 active torsions:
REMARK  status: ('A' for Active; 'I' for Inactive)
REMARK    1  A    between atoms: C_1  and  C_2
REMARK    2  A    between atoms: C_7  and  C_8
REMARK    3  A    between atoms: C_17  and  C_19
REMARK    4  A    between atoms: C_19  and  N_20
REMARK    5  A    between atoms: N_20  and  C_21
REMARK    6  A    between atoms: N_20  and  C_22
REMARK    7  A    between atoms: C_22  and  C_23
REMARK    8  A    between atoms: C_23  and  C_25
REMARK    9  A    between atoms: C_23  and  O_34
REMARK   10  A    between atoms: C_25  and  O_26
REMARK   11  A    between atoms: O_26  and  C_27
REMARK                            x       y       z     vdW  Elec       q    Type
REMARK                         _______ _______ _______ _____ _____    ______ ____
ROOT
ATOM      1  C   UNL     1       0.025   0.021   2.495  0.00  0.00    +0.004 A 
ATOM      2  C   UNL     1       1.093  -0.049   3.326  0.00  0.00    +0.056 A 
ATOM      3  S   UNL     1       0.613   0.975   4.703  0.00  0.00    -0.076 S 
ATOM      4  C   UNL     1      -0.995   1.469   4.137  0.00  0.00    +0.116 A 
ATOM      5  C   UNL     1      -1.119   0.833   2.891  0.00  0.00    +0.080 A 
ATOM      6  C   UNL     1      -2.348   1.067   2.195  0.00  0.00    +0.260 A 
ATOM      7  O   UNL     1      -2.551   0.554   1.108  0.00  0.00    -0.267 OA
ATOM      8  N   UNL     1      -3.275   1.863   2.759  0.00  0.00    -0.312 N 
ATOM      9  H   UNL     1      -4.110   2.025   2.292  0.00  0.00    +0.170 HD
ATOM     10  C   UNL     1      -3.067   2.441   3.969  0.00  0.00    +0.094 A 
ATOM     11  N   UNL     1      -1.960   2.239   4.633  0.00  0.00    -0.229 NA
ENDROOT
BRANCH   1  18
ATOM     12  C   UNL     1      -0.018   1.503   0.010  0.00  0.00    +0.044 C 
ATOM     13  C   UNL     1       0.002  -0.004   0.002  0.00  0.00    -0.043 A 
ATOM     14  C   UNL     1       0.006  -0.689  -1.196  0.00  0.00    +0.004 A 
ATOM     15  C   UNL     1       0.025  -2.072  -1.205  0.00  0.00    +0.000 A 
ATOM     16  C   UNL     1       0.040  -2.777  -0.015  0.00  0.00    +0.001 A 
ATOM     17  C   UNL     1       0.036  -2.103   1.189  0.00  0.00    +0.009 A 
ATOM     18  C   UNL     1       0.023  -0.709   1.205  0.00  0.00    -0.014 A 
ENDBRANCH   1  18
BRANCH  10  19
ATOM     19  C   UNL     1      -4.134   3.325   4.562  0.00  0.00    -0.003 C 
BRANCH  19  20
ATOM     20  N   UNL     1      -3.683   3.831   5.865  0.00  0.00    +0.384 N 
ATOM     21  C   UNL     1      -2.518   4.705   5.673  0.00  0.00    -0.095 C 
ATOM     22  H   UNL     1      -3.428   3.056   6.457  0.00  0.00    -0.082 HD
BRANCH  20  23
ATOM     23  C   UNL     1      -4.768   4.594   6.497  0.00  0.00    -0.044 C 
BRANCH  23  24
ATOM     24  C   UNL     1      -4.343   5.016   7.904  0.00  0.00    +0.135 C 
BRANCH  24  25
ATOM     25  O   UNL     1      -4.061   3.853   8.685  0.00  0.00    -0.390 OA
ATOM     26  H   UNL     1      -4.812   3.252   8.782  0.00  0.00    +0.210 HD
ENDBRANCH  24  25
BRANCH  24  27
ATOM     27  C   UNL     1      -5.473   5.809   8.562  0.00  0.00    +0.258 C 
BRANCH  27  28
ATOM     28  O   UNL     1      -5.034   6.303   9.829  0.00  0.00    -0.489 OA
BRANCH  28  29
ATOM     29  C   UNL     1      -5.925   7.034  10.549  0.00  0.00    +0.121 A 
ATOM     30  C   UNL     1      -7.197   7.268  10.048  0.00  0.00    +0.047 A 
ATOM     31  C   UNL     1      -8.102   8.012  10.781  0.00  0.00    +0.023 A 
ATOM     32  C   UNL     1      -7.739   8.524  12.014  0.00  0.00    +0.041 A 
ATOM     33  C   UNL     1      -6.470   8.293  12.515  0.00  0.00    +0.023 A 
ATOM     34  C   UNL     1      -5.565   7.544  11.788  0.00  0.00    +0.047 A 
ATOM     35 CL   UNL     1      -8.877   9.460  12.933  0.00  0.00    -0.084 Cl
ENDBRANCH  28  29
ENDBRANCH  27  28
ENDBRANCH  24  27
ENDBRANCH  23  24
ENDBRANCH  20  23
ENDBRANCH  19  20
ENDBRANCH  10  19
TORSDOF 9
