REMARK  Name = ZINC35965336
REMARK  7 active torsions:
REMARK  status: ('A' for Active; 'I' for Inactive)
REMARK    1  A    between atoms: C_2  and  C_3
REMARK    2  A    between atoms: C_3  and  N_4
REMARK    3  A    between atoms: C_7  and  C_12
REMARK    4  A    between atoms: N_21  and  C_23
REMARK    5  A    between atoms: C_23  and  C_24
REMARK    6  A    between atoms: N_26  and  C_27
REMARK    7  A    between atoms: C_27  and  C_28
REMARK                            x       y       z     vdW  Elec       q    Type
REMARK                         _______ _______ _______ _____ _____    ______ ____
ROOT
ATOM      1  N   UNL     1       1.503  -1.471   1.303  0.00  0.00    -0.253 N 
ATOM      2  C   UNL     1       2.067  -1.196   2.516  0.00  0.00    +0.043 C 
ATOM      3  C   UNL     1       2.082  -2.114   3.504  0.00  0.00    +0.058 C 
ATOM      4  C   UNL     1       1.450  -3.463   3.221  0.00  0.00    +0.143 C 
ATOM      5  N   UNL     1       0.869  -3.660   1.883  0.00  0.00    -0.288 N 
ATOM      6  C   UNL     1       0.928  -2.642   1.001  0.00  0.00    +0.307 C 
ATOM      7  O   UNL     1       0.447  -2.794  -0.105  0.00  0.00    -0.252 OA
ATOM      8  C   UNL     1       2.717  -1.592   4.649  0.00  0.00    +0.247 C 
ATOM      9  O   UNL     1       2.870  -2.205   5.690  0.00  0.00    -0.270 OA
ATOM     10  N   UNL     1       3.131  -0.329   4.442  0.00  0.00    -0.283 N 
ATOM     11  C   UNL     1       2.754   0.033   3.067  0.00  0.00    +0.160 C 
ATOM     12  H   UNL     1       0.451  -4.501   1.642  0.00  0.00    +0.151 HD
ENDROOT
BRANCH   4  13
ATOM     13  C   UNL     1       0.360  -3.687   4.238  0.00  0.00    -0.004 A 
ATOM     14  C   UNL     1      -0.152  -2.619   4.950  0.00  0.00    +0.007 A 
ATOM     15  C   UNL     1      -1.152  -2.824   5.882  0.00  0.00    +0.000 A 
ATOM     16  C   UNL     1      -1.640  -4.099   6.103  0.00  0.00    +0.001 A 
ATOM     17  C   UNL     1      -1.129  -5.168   5.391  0.00  0.00    +0.020 A 
ATOM     18  C   UNL     1      -0.132  -4.962   4.454  0.00  0.00    +0.046 A 
ATOM     19 CL   UNL     1       0.506  -6.303   3.556  0.00  0.00    -0.083 Cl
ENDBRANCH   4  13
BRANCH   1  20
ATOM     20  C   UNL     1       1.524  -0.425   0.277  0.00  0.00    +0.141 C 
BRANCH  20  22
ATOM     21  C   UNL     1       0.392   1.722   0.538  0.00  0.00    +0.005 C 
ATOM     22  C   UNL     1       0.285   0.424   0.400  0.00  0.00    -0.015 C 
ENDBRANCH  20  22
ENDBRANCH   1  20
BRANCH  10  23
ATOM     23  C   UNL     1       3.827   0.526   5.406  0.00  0.00    +0.204 C 
BRANCH  23  24
ATOM     24  C   UNL     1       5.315   0.333   5.266  0.00  0.00    +0.231 C 
ATOM     25  O   UNL     1       5.751  -0.443   4.442  0.00  0.00    -0.274 OA
ATOM     26  N   UNL     1       6.162   1.022   6.056  0.00  0.00    -0.307 N 
ATOM     27  H   UNL     1       5.813   1.642   6.716  0.00  0.00    +0.149 HD
BRANCH  26  28
ATOM     28  C   UNL     1       7.608   0.834   5.920  0.00  0.00    +0.178 C 
BRANCH  28  29
ATOM     29  C   UNL     1       8.325   1.714   6.912  0.00  0.00    +0.122 A 
ATOM     30  C   UNL     1       8.668   1.368   8.166  0.00  0.00    +0.046 A 
ATOM     31  C   UNL     1       9.317   2.488   8.736  0.00  0.00    +0.041 A 
ATOM     32  C   UNL     1       9.330   3.450   7.797  0.00  0.00    +0.195 A 
ATOM     33  O   UNL     1       8.733   2.974   6.692  0.00  0.00    -0.466 OA
ENDBRANCH  28  29
ENDBRANCH  26  28
ENDBRANCH  23  24
ENDBRANCH  10  23
TORSDOF 7
