REMARK  Name = ZINC49203756
REMARK  8 active torsions:
REMARK  status: ('A' for Active; 'I' for Inactive)
REMARK    1  A    between atoms: C_1  and  C_2
REMARK    2  A    between atoms: C_2  and  C_3
REMARK    3  A    between atoms: C_3  and  C_4
REMARK    4  A    between atoms: C_4  and  C_5
REMARK    5  A    between atoms: N_13  and  C_14
REMARK    6  A    between atoms: N_16  and  C_17
REMARK    7  A    between atoms: C_17  and  C_18
REMARK    8  A    between atoms: C_18  and  O_19
REMARK                            x       y       z     vdW  Elec       q    Type
REMARK                         _______ _______ _______ _____ _____    ______ ____
ROOT
ATOM      1  C   UNL     1       1.492  -2.540   2.454  0.00  0.00    -0.046 A 
ATOM      2  C   UNL     1       2.860  -2.750   2.417  0.00  0.00    +0.006 A 
ATOM      3  C   UNL     1       3.542  -3.204   3.520  0.00  0.00    +0.027 A 
ATOM      4  C   UNL     1       2.869  -3.472   4.725  0.00  0.00    +0.055 A 
ATOM      5  C   UNL     1       1.484  -3.249   4.730  0.00  0.00    +0.039 A 
ATOM      6  C   UNL     1       0.803  -2.789   3.628  0.00  0.00    +0.020 A 
ATOM      7  S   UNL     1       1.004  -3.688   6.384  0.00  0.00    -0.052 S 
ATOM      8  C   UNL     1       2.618  -4.141   6.997  0.00  0.00    +0.165 A 
ATOM      9  N   UNL     1       2.957  -4.573   8.206  0.00  0.00    -0.139 NA
ATOM     10  N   UNL     1       3.414  -3.930   5.911  0.00  0.00    -0.335 N 
ATOM     11  H   UNL     1       4.366  -4.103   5.970  0.00  0.00    +0.168 HD
ENDROOT
BRANCH   9  12
ATOM     12  C   UNL     1       2.022  -4.716   9.152  0.00  0.00    +0.325 C 
ATOM     13  O   UNL     1       0.859  -4.450   8.905  0.00  0.00    -0.251 OA
ATOM     14  N   UNL     1       2.367  -5.154  10.379  0.00  0.00    -0.296 N 
ATOM     15  H   UNL     1       3.292  -5.366  10.576  0.00  0.00    +0.150 HD
BRANCH  14  16
ATOM     16  C   UNL     1       1.343  -5.311  11.415  0.00  0.00    +0.133 C 
BRANCH  16  17
ATOM     17  C   UNL     1       1.994  -5.818  12.703  0.00  0.00    +0.174 C 
BRANCH  17  18
ATOM     18  O   UNL     1       2.892  -4.827  13.206  0.00  0.00    -0.393 OA
ATOM     19  H   UNL     1       3.342  -5.081  14.023  0.00  0.00    +0.209 HD
ENDBRANCH  17  18
ENDBRANCH  16  17
ENDBRANCH  14  16
ENDBRANCH   9  12
BRANCH   1  20
ATOM     20  C   UNL     1       0.763  -2.041   1.233  0.00  0.00    +0.035 C 
BRANCH  20  21
ATOM     21  C   UNL     1       0.742  -0.511   1.242  0.00  0.00    +0.004 C 
BRANCH  21  23
ATOM     22  C   UNL     1      -0.019   1.526   0.010  0.00  0.00    +0.004 C 
ATOM     23  C   UNL     1       0.002  -0.004   0.002  0.00  0.00    -0.003 C 
ENDBRANCH  21  23
ENDBRANCH  20  21
ENDBRANCH   1  20
TORSDOF 7
