REMARK  Name = ZINC08888930
REMARK  8 active torsions:
REMARK  status: ('A' for Active; 'I' for Inactive)
REMARK    1  A    between atoms: C_1  and  C_2
REMARK    2  A    between atoms: C_6  and  N_8
REMARK    3  A    between atoms: C_9  and  C_11
REMARK    4  A    between atoms: C_11  and  O_12
REMARK    5  A    between atoms: O_12  and  C_13
REMARK    6  A    between atoms: C_13  and  C_15
REMARK    7  A    between atoms: C_15  and  C_16
REMARK    8  A    between atoms: C_16  and  C_17
REMARK                            x       y       z     vdW  Elec       q    Type
REMARK                         _______ _______ _______ _____ _____    ______ ____
ROOT
ATOM      1  C   UNL     1      -1.867   7.279   0.059  0.00  0.00    +0.308 C 
ATOM      2  O   UNL     1      -0.945   8.060   0.054  0.00  0.00    -0.251 OA
ENDROOT
BRANCH   1   3
ATOM      3  O   UNL     1      -1.627   5.958   0.050  0.00  0.00    -0.455 OA
BRANCH   3   4
ATOM      4  C   UNL     1      -0.236   5.541   0.034  0.00  0.00    +0.328 C 
BRANCH   4   6
ATOM      5  N   UNL     1       1.034   3.418   0.011  0.00  0.00    -0.266 N 
ATOM      6  C   UNL     1      -0.164   4.035   0.025  0.00  0.00    +0.256 C 
ATOM      7  O   UNL     1      -1.184   3.379   0.032  0.00  0.00    -0.272 OA
ATOM      8  H   UNL     1       1.850   3.943   0.006  0.00  0.00    +0.156 HD
BRANCH   5  14
ATOM      9  C   UNL     1      -1.298  -0.766   0.010  0.00  0.00    +0.067 C 
ATOM     10  C   UNL     1       0.002  -0.004   0.002  0.00  0.00    +0.059 A 
ATOM     11  C   UNL     1       1.198  -0.697  -0.013  0.00  0.00    +0.063 A 
ATOM     12  C   UNL     1       2.393   0.011  -0.020  0.00  0.00    +0.045 A 
ATOM     13  C   UNL     1       2.341   1.395  -0.013  0.00  0.00    +0.082 A 
ATOM     14  C   UNL     1       1.101   2.025   0.002  0.00  0.00    +0.144 A 
ATOM     15  N   UNL     1      -0.016   1.315   0.009  0.00  0.00    -0.234 NA
ATOM     16 CL   UNL     1       3.803   2.330  -0.021  0.00  0.00    -0.080 Cl
ATOM     17 CL   UNL     1       1.206  -2.433  -0.021  0.00  0.00    -0.082 Cl
ENDBRANCH   5  14
ENDBRANCH   4   6
ENDBRANCH   3   4
ENDBRANCH   1   3
BRANCH   1  18
ATOM     18  C   UNL     1      -3.285   7.787   0.075  0.00  0.00    +0.128 C 
BRANCH  18  19
ATOM     19  C   UNL     1      -3.278   9.317   0.083  0.00  0.00    +0.085 C 
BRANCH  19  20
ATOM     20  C   UNL     1      -4.697   9.826   0.100  0.00  0.00    +0.111 A 
ATOM     21  N   UNL     1      -4.925  11.164   0.109  0.00  0.00    -0.310 N 
ATOM     22  H   UNL     1      -4.172  11.775   0.105  0.00  0.00    +0.170 HD
ATOM     23  C   UNL     1      -6.176  11.661   0.124  0.00  0.00    +0.260 A 
ATOM     24  O   UNL     1      -6.365  12.865   0.132  0.00  0.00    -0.267 OA
ATOM     25  C   UNL     1      -7.283  10.750   0.129  0.00  0.00    +0.075 A 
ATOM     26  C   UNL     1      -8.713  11.058   0.145  0.00  0.00    -0.023 A 
ATOM     27  C   UNL     1      -9.564  10.011   0.147  0.00  0.00    -0.004 A 
ATOM     28  S   UNL     1      -8.526   8.574   0.129  0.00  0.00    -0.073 S 
ATOM     29  C   UNL     1      -6.948   9.387   0.118  0.00  0.00    +0.116 A 
ATOM     30  N   UNL     1      -5.685   8.971   0.099  0.00  0.00    -0.227 NA
ATOM     31  C   UNL     1     -11.062  10.059   0.163  0.00  0.00    +0.043 C 
ATOM     32  C   UNL     1     -11.497  11.480   0.550  0.00  0.00    +0.005 C 
ATOM     33  C   UNL     1     -10.701  12.483  -0.290  0.00  0.00    +0.005 C 
ATOM     34  C   UNL     1      -9.239  12.491   0.158  0.00  0.00    +0.037 C 
ENDBRANCH  19  20
ENDBRANCH  18  19
ENDBRANCH   1  18
TORSDOF 7
