REMARK  Name = ZINC09324914
REMARK  13 active torsions:
REMARK  status: ('A' for Active; 'I' for Inactive)
REMARK    1  A    between atoms: C_1  and  C_2
REMARK    2  A    between atoms: C_2  and  O_3
REMARK    3  A    between atoms: O_3  and  C_4
REMARK    4  A    between atoms: C_4  and  C_6
REMARK    5  A    between atoms: C_6  and  C_7
REMARK    6  A    between atoms: C_13  and  C_15
REMARK    7  A    between atoms: C_15  and  S_16
REMARK    8  A    between atoms: S_16  and  C_17
REMARK    9  A    between atoms: N_20  and  C_24
REMARK   10  A    between atoms: C_24  and  C_25
REMARK   11  A    between atoms: C_25  and  N_58
REMARK   12  A    between atoms: C_26  and  N_58
REMARK   13  A    between atoms: C_27  and  N_58
REMARK                            x       y       z     vdW  Elec       q    Type
REMARK                         _______ _______ _______ _____ _____    ______ ____
ROOT
ATOM      1  S   UNL     1       0.002  -0.004   0.002  0.00  0.00    -0.096 S 
ENDROOT
BRANCH   1   2
ATOM      2  C   UNL     1      -0.022   1.758   0.012  0.00  0.00    +0.108 A 
ATOM      3  C   UNL     1      -1.253   2.450   0.021  0.00  0.00    +0.004 A 
ATOM      4  C   UNL     1      -1.243   3.802   0.035  0.00  0.00    +0.029 A 
ATOM      5  N   UNL     1      -0.046   4.459   0.027  0.00  0.00    -0.298 N 
ATOM      6  C   UNL     1       1.110   3.771   0.012  0.00  0.00    +0.350 A 
ATOM      7  O   UNL     1       2.168   4.377   0.005  0.00  0.00    -0.244 OA
ATOM      8  N   UNL     1       1.117   2.440   0.004  0.00  0.00    -0.186 NA
ATOM      9  C   UNL     1      -2.659   4.335   0.051  0.00  0.00    +0.054 C 
ATOM     10  C   UNL     1      -3.533   3.138   0.486  0.00  0.00    +0.011 C 
ATOM     11  C   UNL     1      -2.674   1.935   0.037  0.00  0.00    +0.040 C 
BRANCH   5  12
ATOM     12  C   UNL     1      -0.020   5.924   0.035  0.00  0.00    +0.108 C 
BRANCH  12  13
ATOM     13  C   UNL     1      -0.025   6.442  -1.405  0.00  0.00    -0.058 C 
BRANCH  13  16
ATOM     14  C   UNL     1       0.234   8.440  -2.747  0.00  0.00    -0.097 C 
ATOM     15  C   UNL     1      -1.238   8.456  -0.825  0.00  0.00    -0.097 C 
ATOM     16  N   UNL     1       0.022   7.919  -1.380  0.00  0.00    +0.377 N 
ATOM     17  H   UNL     1       0.803   8.217  -0.784  0.00  0.00    -0.083 HD
ENDBRANCH  13  16
ENDBRANCH  12  13
ENDBRANCH   5  12
ENDBRANCH   1   2
BRANCH   1  18
ATOM     18  C   UNL     1       1.789  -0.294  -0.017  0.00  0.00    +0.172 C 
BRANCH  18  25
ATOM     19  C   UNL     1       4.788  -5.550  -0.073  0.00  0.00    +0.061 A 
ATOM     20  C   UNL     1       3.626  -6.248  -0.066  0.00  0.00    +0.072 A 
ATOM     21  S   UNL     1       2.437  -4.914  -0.048  0.00  0.00    -0.060 S 
ATOM     22  C   UNL     1       3.572  -3.600  -0.051  0.00  0.00    +0.165 A 
ATOM     23  N   UNL     1       4.729  -4.233  -0.071  0.00  0.00    -0.229 NA
ATOM     24  N   UNL     1       3.325  -2.232  -0.042  0.00  0.00    -0.264 N 
ATOM     25  C   UNL     1       2.057  -1.777  -0.027  0.00  0.00    +0.229 C 
ATOM     26  O   UNL     1       1.131  -2.561  -0.022  0.00  0.00    -0.275 OA
ATOM     27  H   UNL     1       4.065  -1.606  -0.045  0.00  0.00    +0.157 HD
BRANCH  19  28
ATOM     28  C   UNL     1       6.115  -6.263  -0.089  0.00  0.00    +0.176 C 
BRANCH  28  29
ATOM     29  C   UNL     1       6.933  -5.777  -1.258  0.00  0.00    +0.313 C 
ATOM     30  O   UNL     1       6.483  -4.937  -2.001  0.00  0.00    -0.250 OA
BRANCH  29  31
ATOM     31  O   UNL     1       8.160  -6.276  -1.473  0.00  0.00    -0.465 OA
BRANCH  31  33
ATOM     32  C   UNL     1      10.257  -6.443  -2.699  0.00  0.00    +0.048 C 
ATOM     33  C   UNL     1       8.890  -5.761  -2.617  0.00  0.00    +0.229 C 
ENDBRANCH  31  33
ENDBRANCH  29  31
ENDBRANCH  28  29
ENDBRANCH  19  28
ENDBRANCH  18  25
ENDBRANCH   1  18
TORSDOF 10
