REMARK  Name = ZINC59516497
REMARK  8 active torsions:
REMARK  status: ('A' for Active; 'I' for Inactive)
REMARK    1  A    between atoms: C_1  and  O_2
REMARK    2  A    between atoms: O_2  and  C_3
REMARK    3  A    between atoms: C_6  and  O_30
REMARK    4  A    between atoms: C_7  and  C_9
REMARK    5  A    between atoms: N_10  and  C_11
REMARK    6  A    between atoms: C_13  and  C_26
REMARK    7  A    between atoms: C_16  and  O_17
REMARK    8  A    between atoms: O_17  and  C_18
REMARK                            x       y       z     vdW  Elec       q    Type
REMARK                         _______ _______ _______ _____ _____    ______ ____
ROOT
ATOM      1  C   UNL     1      -3.715  -6.093  -0.380  0.00  0.00    +0.107 A 
ATOM      2  C   UNL     1      -2.523  -6.769  -0.651  0.00  0.00    +0.043 A 
ATOM      3  C   UNL     1      -2.550  -8.114  -0.955  0.00  0.00    +0.057 A 
ATOM      4  C   UNL     1      -3.754  -8.797  -0.993  0.00  0.00    +0.016 A 
ATOM      5  C   UNL     1      -4.940  -8.139  -0.727  0.00  0.00    +0.049 A 
ATOM      6  C   UNL     1      -4.930  -6.789  -0.415  0.00  0.00    +0.154 A 
ENDROOT
BRANCH   3   7
ATOM      7  C   UNL     1      -1.264  -8.843  -1.248  0.00  0.00    +0.417 C 
ATOM      8  F   UNL     1      -0.741  -9.361  -0.058  0.00  0.00    -0.166 F 
ATOM      9  F   UNL     1      -1.514  -9.890  -2.141  0.00  0.00    -0.166 F 
ATOM     10  F   UNL     1      -0.344  -7.956  -1.815  0.00  0.00    -0.166 F 
ENDBRANCH   3   7
BRANCH   1  12
ATOM     11  C   UNL     1      -2.853  -4.304   0.808  0.00  0.00    +0.123 C 
ATOM     12  N   UNL     1      -3.695  -4.759  -0.077  0.00  0.00    -0.251 NA
BRANCH  11  17
ATOM     13  C   UNL     1      -1.865  -1.018   2.329  0.00  0.00    +0.121 A 
ATOM     14  C   UNL     1      -2.718  -0.146   1.664  0.00  0.00    +0.049 A 
ATOM     15  C   UNL     1      -3.611  -0.623   0.725  0.00  0.00    +0.049 A 
ATOM     16  C   UNL     1      -3.663  -1.978   0.438  0.00  0.00    +0.126 A 
ATOM     17  C   UNL     1      -2.804  -2.865   1.105  0.00  0.00    +0.038 A 
ATOM     18  C   UNL     1      -1.900  -2.372   2.051  0.00  0.00    +0.058 A 
BRANCH  13  20
ATOM     19  C   UNL     1      -1.006   0.871   3.491  0.00  0.00    +0.277 C 
ATOM     20  O   UNL     1      -0.989  -0.538   3.252  0.00  0.00    -0.495 OA
ENDBRANCH  13  20
BRANCH  16  21
ATOM     21  O   UNL     1      -4.542  -2.446  -0.485  0.00  0.00    -0.506 OA
ATOM     22  H   UNL     1      -4.190  -2.470  -1.386  0.00  0.00    +0.292 HD
ENDBRANCH  16  21
ENDBRANCH  11  17
ENDBRANCH   1  12
BRANCH   6  23
ATOM     23  O   UNL     1      -6.095  -6.143  -0.147  0.00  0.00    -0.454 OA
BRANCH  23  24
ATOM     24  C   UNL     1      -7.241  -6.872  -0.134  0.00  0.00    +0.130 A 
ATOM     25  C   UNL     1      -7.553  -7.656   0.969  0.00  0.00    +0.048 A 
ATOM     26  C   UNL     1      -8.718  -8.397   0.981  0.00  0.00    +0.025 A 
ATOM     27  C   UNL     1      -9.575  -8.359  -0.105  0.00  0.00    +0.059 A 
ATOM     28  C   UNL     1      -9.266  -7.578  -1.206  0.00  0.00    +0.063 A 
ATOM     29  C   UNL     1      -8.103  -6.831  -1.219  0.00  0.00    +0.067 A 
ATOM     30 CL   UNL     1     -10.343  -7.533  -2.567  0.00  0.00    -0.082 Cl
ATOM     31 CL   UNL     1     -11.039  -9.292  -0.087  0.00  0.00    -0.082 Cl
ENDBRANCH  23  24
ENDBRANCH   6  23
TORSDOF 7
