REMARK  Name = ZINC57484584
REMARK  9 active torsions:
REMARK  status: ('A' for Active; 'I' for Inactive)
REMARK    1  A    between atoms: C_3  and  O_11
REMARK    2  A    between atoms: C_6  and  C_7
REMARK    3  A    between atoms: O_11  and  C_12
REMARK    4  A    between atoms: C_12  and  C_13
REMARK    5  A    between atoms: C_13  and  C_15
REMARK    6  A    between atoms: C_13  and  O_25
REMARK    7  A    between atoms: C_15  and  N_16
REMARK    8  A    between atoms: N_19  and  C_20
REMARK    9  A    between atoms: C_20  and  C_21
REMARK                            x       y       z     vdW  Elec       q    Type
REMARK                         _______ _______ _______ _____ _____    ______ ____
ROOT
ATOM      1  C   UNL     1       5.958   2.288  -0.043  0.00  0.00    +0.169 C 
ENDROOT
BRANCH   1   2
ATOM      2  O   UNL     1       5.991   3.024   1.181  0.00  0.00    -0.387 OA
ATOM      3  H   UNL     1       6.069   2.470   1.970  0.00  0.00    +0.210 HD
ENDBRANCH   1   2
BRANCH   1   4
ATOM      4  C   UNL     1       4.756   1.341  -0.036  0.00  0.00    +0.261 C 
BRANCH   4   5
ATOM      5  O   UNL     1       3.548   2.104  -0.021  0.00  0.00    -0.489 OA
BRANCH   5   8
ATOM      6  C   UNL     1      -0.017   1.378   0.010  0.00  0.00    +0.016 A 
ATOM      7  C   UNL     1       1.169   2.087   0.002  0.00  0.00    +0.046 A 
ATOM      8  C   UNL     1       2.380   1.409  -0.013  0.00  0.00    +0.121 A 
ATOM      9  C   UNL     1       2.396   0.022  -0.021  0.00  0.00    +0.046 A 
ATOM     10  C   UNL     1       1.207  -0.681  -0.013  0.00  0.00    +0.016 A 
ATOM     11  C   UNL     1       0.002  -0.004   0.002  0.00  0.00    +0.055 A 
BRANCH  11  12
ATOM     12  C   UNL     1      -1.293  -0.774   0.011  0.00  0.00    +0.417 C 
ATOM     13  F   UNL     1      -1.707  -1.005  -1.306  0.00  0.00    -0.166 F 
ATOM     14  F   UNL     1      -1.104  -1.998   0.662  0.00  0.00    -0.166 F 
ATOM     15  F   UNL     1      -2.271  -0.034   0.684  0.00  0.00    -0.166 F 
ENDBRANCH  11  12
ENDBRANCH   5   8
ENDBRANCH   4   5
ENDBRANCH   1   4
BRANCH   1  16
ATOM     16  C   UNL     1       7.247   1.476  -0.186  0.00  0.00    +0.140 C 
BRANCH  16  17
ATOM     17  N   UNL     1       8.397   2.383  -0.192  0.00  0.00    -0.297 N 
ATOM     18  C   UNL     1       9.645   1.887  -0.309  0.00  0.00    +0.300 C 
ATOM     19  O   UNL     1       9.816   0.688  -0.408  0.00  0.00    -0.253 OA
ATOM     20  N   UNL     1      10.704   2.722  -0.315  0.00  0.00    -0.291 N 
ATOM     21  H   UNL     1       8.261   3.340  -0.113  0.00  0.00    +0.150 HD
ATOM     22  H   UNL     1      10.567   3.679  -0.235  0.00  0.00    +0.151 HD
BRANCH  20  23
ATOM     23  C   UNL     1      12.060   2.183  -0.441  0.00  0.00    +0.218 C 
BRANCH  23  24
ATOM     24  C   UNL     1      13.069   3.333  -0.421  0.00  0.00    +0.405 C 
ATOM     25  F   UNL     1      12.956   4.032   0.786  0.00  0.00    -0.169 F 
ATOM     26  F   UNL     1      14.365   2.819  -0.542  0.00  0.00    -0.169 F 
ATOM     27  F   UNL     1      12.810   4.200  -1.488  0.00  0.00    -0.169 F 
ENDBRANCH  23  24
ENDBRANCH  20  23
ENDBRANCH  16  17
ENDBRANCH   1  16
TORSDOF 9
