REMARK  Name = ZINC53491012
REMARK  7 active torsions:
REMARK  status: ('A' for Active; 'I' for Inactive)
REMARK    1  A    between atoms: C_1  and  C_2
REMARK    2  A    between atoms: C_2  and  C_3
REMARK    3  A    between atoms: C_3  and  N_4
REMARK    4  A    between atoms: N_4  and  C_5
REMARK    5  A    between atoms: C_5  and  C_6
REMARK    6  A    between atoms: N_21  and  C_22
REMARK    7  A    between atoms: C_22  and  C_23
REMARK                            x       y       z     vdW  Elec       q    Type
REMARK                         _______ _______ _______ _____ _____    ______ ____
ROOT
ATOM      1  N   UNL     1      -1.413  -1.998   0.005  0.00  0.00    -0.278 N 
ATOM      2  C   UNL     1      -1.415  -2.666  -1.166  0.00  0.00    +0.303 C 
ATOM      3  O   UNL     1      -1.399  -3.882  -1.173  0.00  0.00    -0.253 OA
ATOM      4  N   UNL     1      -1.436  -1.986  -2.329  0.00  0.00    -0.295 N 
ATOM      5  H   UNL     1      -1.449  -1.016  -2.324  0.00  0.00    +0.151 HD
ENDROOT
BRANCH   1   6
ATOM      6  C   UNL     1      -1.433  -0.534   0.013  0.00  0.00    +0.109 C 
BRANCH   6   8
ATOM      7  C   UNL     1      -0.019   1.526   0.010  0.00  0.00    +0.005 C 
ATOM      8  C   UNL     1       0.002  -0.004   0.002  0.00  0.00    +0.016 C 
ENDBRANCH   6   8
ENDBRANCH   1   6
BRANCH   1   9
ATOM      9  C   UNL     1      -1.391  -2.738   1.269  0.00  0.00    +0.183 C 
BRANCH   9  10
ATOM     10  C   UNL     1      -2.804  -3.010   1.716  0.00  0.00    +0.128 A 
ATOM     11  N   UNL     1      -2.993  -3.686   2.880  0.00  0.00    -0.309 N 
ATOM     12  H   UNL     1      -2.226  -3.977   3.397  0.00  0.00    +0.170 HD
ATOM     13  C   UNL     1      -4.242  -3.956   3.325  0.00  0.00    +0.259 A 
ATOM     14  O   UNL     1      -4.426  -4.560   4.366  0.00  0.00    -0.267 OA
ATOM     15  C   UNL     1      -5.369  -3.492   2.504  0.00  0.00    +0.065 A 
ATOM     16  C   UNL     1      -6.694  -3.718   2.873  0.00  0.00    +0.017 A 
ATOM     17  C   UNL     1      -7.706  -3.264   2.073  0.00  0.00    +0.021 A 
ATOM     18  C   UNL     1      -7.427  -2.580   0.895  0.00  0.00    +0.043 A 
ATOM     19  C   UNL     1      -6.125  -2.344   0.507  0.00  0.00    +0.048 A 
ATOM     20  C   UNL     1      -5.076  -2.797   1.309  0.00  0.00    +0.080 A 
ATOM     21  N   UNL     1      -3.779  -2.583   0.973  0.00  0.00    -0.232 NA
ATOM     22 CL   UNL     1      -8.734  -2.018  -0.100  0.00  0.00    -0.083 Cl
ENDBRANCH   9  10
ENDBRANCH   1   9
BRANCH   4  23
ATOM     23  C   UNL     1      -1.438  -2.712  -3.602  0.00  0.00    +0.148 C 
BRANCH  23  24
ATOM     24  C   UNL     1      -1.462  -1.726  -4.742  0.00  0.00    +0.007 A 
ATOM     25  C   UNL     1      -0.423  -1.158  -5.401  0.00  0.00    +0.013 A 
ATOM     26  C   UNL     1      -0.685  -0.271  -6.428  0.00  0.00    +0.008 A 
ATOM     27  C   UNL     1      -1.974   0.005  -6.746  0.00  0.00    +0.045 A 
ATOM     28  S   UNL     1      -2.867  -1.010  -5.580  0.00  0.00    -0.100 S 
ENDBRANCH  23  24
ENDBRANCH   4  23
TORSDOF 6
