REMARK  Name = ZINC30940893
REMARK  3 active torsions:
REMARK  status: ('A' for Active; 'I' for Inactive)
REMARK    1  A    between atoms: C_12  and  C_14
REMARK    2  A    between atoms: N_19  and  C_21
REMARK    3  A    between atoms: C_21  and  C_22
REMARK                            x       y       z     vdW  Elec       q    Type
REMARK                         _______ _______ _______ _____ _____    ______ ____
ROOT
ATOM      1  C   UNL     1      -1.003  -2.218   0.455  0.00  0.00    +0.059 C 
ATOM      2  C   UNL     1       0.206  -2.801   1.191  0.00  0.00    +0.009 C 
ATOM      3  C   UNL     1       0.151  -4.330   1.116  0.00  0.00    -0.018 C 
ATOM      4  C   UNL     1      -1.167  -4.818   1.720  0.00  0.00    -0.078 C 
ATOM      5  N   UNL     1      -2.292  -4.234   0.981  0.00  0.00    +0.383 N 
ATOM      6  C   UNL     1      -2.288  -2.768   1.079  0.00  0.00    -0.066 C 
ATOM      7  H   UNL     1      -2.171  -4.499  -0.079  0.00  0.00    -0.081 HD
ENDROOT
BRANCH   1  19
ATOM      8  C   UNL     1      -0.553   4.195  -0.325  0.00  0.00    +0.002 A 
ATOM      9  C   UNL     1      -1.591   3.464   0.225  0.00  0.00    +0.002 A 
ATOM     10  C   UNL     1      -1.552   2.081   0.209  0.00  0.00    +0.025 A 
ATOM     11  C   UNL     1      -0.465   1.432  -0.349  0.00  0.00    +0.058 A 
ATOM     12  C   UNL     1       0.585   2.167  -0.901  0.00  0.00    +0.055 A 
ATOM     13  C   UNL     1       0.534   3.552  -0.888  0.00  0.00    +0.025 A 
ATOM     14  N   UNL     1       1.679   1.496  -1.459  0.00  0.00    -0.283 N 
ATOM     15  C   UNL     1       1.615   0.178  -1.727  0.00  0.00    +0.235 C 
ATOM     16  O   UNL     1       2.590  -0.391  -2.169  0.00  0.00    -0.274 OA
ATOM     17  C   UNL     1       0.346  -0.598  -1.482  0.00  0.00    +0.209 C 
ATOM     18  N   UNL     1      -0.396   0.030  -0.379  0.00  0.00    -0.261 N 
ATOM     19  C   UNL     1      -0.989  -0.716   0.574  0.00  0.00    +0.222 C 
ATOM     20  O   UNL     1      -1.511  -0.179   1.528  0.00  0.00    -0.275 OA
ATOM     21  H   UNL     1       2.604   2.046  -1.685  0.00  0.00    +0.155 HD
ENDBRANCH   1  19
BRANCH   5  22
ATOM     22  C   UNL     1      -3.571  -4.788   1.445  0.00  0.00    -0.043 C 
BRANCH  22  23
ATOM     23  C   UNL     1      -3.456  -6.286   1.564  0.00  0.00    -0.064 A 
ATOM     24  C   UNL     1      -3.769  -7.091   0.484  0.00  0.00    +0.003 A 
ATOM     25  C   UNL     1      -3.659  -8.464   0.591  0.00  0.00    +0.015 A 
ATOM     26  C   UNL     1      -3.245  -9.034   1.782  0.00  0.00    +0.018 A 
ATOM     27  C   UNL     1      -2.937  -8.229   2.863  0.00  0.00    +0.015 A 
ATOM     28  C   UNL     1      -3.043  -6.855   2.754  0.00  0.00    +0.003 A 
ATOM     29 BR   UNL     1      -3.102 -10.914   1.931  0.00  0.00    -0.050 Br
ENDBRANCH  22  23
ENDBRANCH   5  22
TORSDOF 3
