REMARK  Name = ZINC12746300
REMARK  9 active torsions:
REMARK  status: ('A' for Active; 'I' for Inactive)
REMARK    1  A    between atoms: C_1  and  C_2
REMARK    2  A    between atoms: C_2  and  C_4
REMARK    3  A    between atoms: C_2  and  N_16
REMARK    4  A    between atoms: N_6  and  C_7
REMARK    5  A    between atoms: C_12  and  C_13
REMARK    6  A    between atoms: C_13  and  C_14
REMARK    7  A    between atoms: C_13  and  C_15
REMARK    8  A    between atoms: N_19  and  S_22
REMARK    9  A    between atoms: S_22  and  C_25
REMARK                            x       y       z     vdW  Elec       q    Type
REMARK                         _______ _______ _______ _____ _____    ______ ____
ROOT
ATOM      1  N   UNL     1       0.599  -0.590   1.185  0.00  0.00    +0.389 N 
ATOM      2  C   UNL     1       0.571  -2.048   1.015  0.00  0.00    -0.060 C 
ATOM      3  C   UNL     1       1.319  -2.711   2.176  0.00  0.00    +0.091 C 
ATOM      4  N   UNL     1       0.735  -2.236   3.440  0.00  0.00    -0.180 NA
ATOM      5  C   UNL     1       0.573  -0.786   3.627  0.00  0.00    +0.091 C 
ATOM      6  C   UNL     1      -0.140  -0.214   2.397  0.00  0.00    -0.060 C 
ATOM      7  H   UNL     1       1.556  -0.281   1.267  0.00  0.00    -0.081 HD
ENDROOT
BRANCH   4   8
ATOM      8  S   UNL     1       0.271  -3.304   4.618  0.00  0.00    +0.061 S 
ATOM      9  O   UNL     1      -0.714  -2.642   5.400  0.00  0.00    -0.153 OA
ATOM     10  O   UNL     1       0.022  -4.543   3.968  0.00  0.00    -0.153 OA
BRANCH   8  11
ATOM     11  C   UNL     1       1.662  -3.557   5.669  0.00  0.00    +0.106 A 
ATOM     12  C   UNL     1       2.565  -4.566   5.389  0.00  0.00    +0.029 A 
ATOM     13  C   UNL     1       3.657  -4.764   6.213  0.00  0.00    +0.017 A 
ATOM     14  C   UNL     1       3.846  -3.953   7.317  0.00  0.00    +0.018 A 
ATOM     15  C   UNL     1       2.943  -2.944   7.597  0.00  0.00    +0.017 A 
ATOM     16  C   UNL     1       1.854  -2.742   6.769  0.00  0.00    +0.029 A 
ATOM     17 BR   UNL     1       5.340  -4.225   8.445  0.00  0.00    -0.050 Br
ENDBRANCH   8  11
ENDBRANCH   4   8
BRANCH   1  19
ATOM     18  C   UNL     1      -0.107   1.560   0.247  0.00  0.00    -0.004 C 
ATOM     19  C   UNL     1      -0.022   0.049   0.018  0.00  0.00    +0.017 C 
BRANCH  19  20
ATOM     20  C   UNL     1       0.810  -0.227  -1.208  0.00  0.00    +0.203 C 
ATOM     21  O   UNL     1       1.930  -0.676  -1.092  0.00  0.00    -0.277 OA
ATOM     22  N   UNL     1       0.309   0.027  -2.433  0.00  0.00    -0.287 N 
ATOM     23  H   UNL     1      -0.555   0.457  -2.525  0.00  0.00    +0.155 HD
BRANCH  22  24
ATOM     24  C   UNL     1       1.037  -0.331  -3.574  0.00  0.00    +0.037 A 
ATOM     25  C   UNL     1       2.424  -0.265  -3.563  0.00  0.00    +0.023 A 
ATOM     26  C   UNL     1       3.140  -0.619  -4.690  0.00  0.00    +0.002 A 
ATOM     27  C   UNL     1       2.476  -1.037  -5.829  0.00  0.00    +0.000 A 
ATOM     28  C   UNL     1       1.095  -1.103  -5.843  0.00  0.00    +0.006 A 
ATOM     29  C   UNL     1       0.374  -0.757  -4.717  0.00  0.00    -0.024 A 
BRANCH  29  30
ATOM     30  C   UNL     1      -1.131  -0.836  -4.731  0.00  0.00    +0.015 C 
ATOM     31  C   UNL     1      -1.675  -0.008  -5.896  0.00  0.00    +0.012 C 
ATOM     32  C   UNL     1      -1.563  -2.295  -4.896  0.00  0.00    +0.012 C 
ENDBRANCH  29  30
ENDBRANCH  22  24
ENDBRANCH  19  20
ENDBRANCH   1  19
TORSDOF 6
