REMARK  Name = ZINC38597536
REMARK  7 active torsions:
REMARK  status: ('A' for Active; 'I' for Inactive)
REMARK    1  A    between atoms: C_5  and  C_7
REMARK    2  A    between atoms: C_7  and  C_8
REMARK    3  A    between atoms: N_10  and  C_11
REMARK    4  A    between atoms: C_11  and  C_12
REMARK    5  A    between atoms: C_12  and  C_14
REMARK    6  A    between atoms: C_12  and  N_19
REMARK    7  A    between atoms: N_22  and  C_25
REMARK                            x       y       z     vdW  Elec       q    Type
REMARK                         _______ _______ _______ _____ _____    ______ ____
ROOT
ATOM      1  C   UNL     1       1.700  -5.869   3.038  0.00  0.00    +0.017 C 
ENDROOT
BRANCH   1   2
ATOM      2  N   UNL     1       0.641  -6.675   2.416  0.00  0.00    +0.389 N 
ATOM      3  C   UNL     1       1.042  -8.088   2.413  0.00  0.00    -0.059 C 
ATOM      4  C   UNL     1      -0.008  -8.914   1.663  0.00  0.00    +0.086 C 
ATOM      5  N   UNL     1      -1.323  -8.658   2.270  0.00  0.00    -0.333 N 
ATOM      6  C   UNL     1      -1.738  -7.259   2.462  0.00  0.00    +0.086 C 
ATOM      7  C   UNL     1      -0.606  -6.511   3.174  0.00  0.00    -0.059 C 
ATOM      8  H   UNL     1       0.499  -6.367   1.466  0.00  0.00    -0.081 HD
BRANCH   5   9
ATOM      9  C   UNL     1      -2.156  -9.713   2.654  0.00  0.00    +0.030 A 
ATOM     10  C   UNL     1      -3.442  -9.454   3.110  0.00  0.00    +0.026 A 
ATOM     11  C   UNL     1      -4.264 -10.498   3.488  0.00  0.00    +0.040 A 
ATOM     12  C   UNL     1      -3.806 -11.803   3.412  0.00  0.00    +0.124 A 
ATOM     13  C   UNL     1      -2.524 -12.063   2.957  0.00  0.00    +0.040 A 
ATOM     14  C   UNL     1      -1.701 -11.023   2.573  0.00  0.00    +0.026 A 
ATOM     15  F   UNL     1      -4.611 -12.822   3.782  0.00  0.00    -0.205 F 
ENDBRANCH   5   9
ENDBRANCH   1   2
BRANCH   1  16
ATOM     16  C   UNL     1       1.980  -6.391   4.424  0.00  0.00    +0.093 A 
ATOM     17  C   UNL     1       3.196  -6.667   4.930  0.00  0.00    +0.043 A 
ATOM     18  C   UNL     1       2.994  -7.128   6.251  0.00  0.00    +0.041 A 
ATOM     19  C   UNL     1       1.668  -7.107   6.474  0.00  0.00    +0.195 A 
ATOM     20  O   UNL     1       1.059  -6.653   5.366  0.00  0.00    -0.469 OA
ENDBRANCH   1  16
BRANCH   1  21
ATOM     21  C   UNL     1       1.246  -4.410   3.125  0.00  0.00    +0.096 C 
BRANCH  21  24
ATOM     22  C   UNL     1       0.377  -2.695   1.628  0.00  0.00    +0.217 C 
ATOM     23  O   UNL     1       0.180  -1.992   2.596  0.00  0.00    -0.275 OA
ATOM     24  N   UNL     1       0.908  -3.924   1.785  0.00  0.00    -0.316 N 
ATOM     25  H   UNL     1       1.066  -4.487   1.010  0.00  0.00    +0.149 HD
BRANCH  22  26
ATOM     26  C   UNL     1       0.029  -2.195   0.250  0.00  0.00    +0.132 C 
BRANCH  26  31
ATOM     27  C   UNL     1      -2.438   0.652   0.492  0.00  0.00    +0.000 A 
ATOM     28  C   UNL     1      -1.595   1.747   0.532  0.00  0.00    +0.001 A 
ATOM     29  C   UNL     1      -0.226   1.567   0.481  0.00  0.00    +0.020 A 
ATOM     30  C   UNL     1       0.301   0.290   0.389  0.00  0.00    +0.045 A 
ATOM     31  C   UNL     1      -0.543  -0.805   0.350  0.00  0.00    -0.020 A 
ATOM     32  C   UNL     1      -1.913  -0.623   0.401  0.00  0.00    +0.005 A 
ATOM     33 CL   UNL     1       2.021   0.063   0.324  0.00  0.00    -0.083 Cl
ENDBRANCH  26  31
ENDBRANCH  22  26
ENDBRANCH  21  24
ENDBRANCH   1  21
TORSDOF 7
