REMARK  Name = ZINC16436231
REMARK  18 active torsions:
REMARK  status: ('A' for Active; 'I' for Inactive)
REMARK    1  A    between atoms: C_1  and  C_2
REMARK    2  A    between atoms: C_2  and  C_3
REMARK    3  A    between atoms: C_3  and  C_4
REMARK    4  A    between atoms: C_4  and  N_5
REMARK    5  A    between atoms: N_5  and  C_6
REMARK    6  A    between atoms: C_6  and  C_7
REMARK    7  A    between atoms: N_9  and  C_10
REMARK    8  A    between atoms: C_12  and  C_23
REMARK    9  A    between atoms: N_14  and  C_15
REMARK   10  A    between atoms: C_18  and  C_22
REMARK   11  A    between atoms: C_20  and  C_21
REMARK   12  A    between atoms: C_23  and  C_24
REMARK   13  A    between atoms: C_23  and  C_25
REMARK   14  A    between atoms: C_23  and  C_26
REMARK   15  A    between atoms: N_29  and  C_30
REMARK   16  A    between atoms: C_33  and  O_36
REMARK   17  A    between atoms: O_36  and  C_37
REMARK   18  A    between atoms: C_37  and  C_38
REMARK                            x       y       z     vdW  Elec       q    Type
REMARK                         _______ _______ _______ _____ _____    ______ ____
ROOT
ATOM      1  C   UNL     1      -0.401  -0.961   0.142  0.00  0.00    +0.236 C 
ATOM      2  O   UNL     1      -1.360  -0.218   0.146  0.00  0.00    -0.274 OA
ATOM      3  N   UNL     1       0.837  -0.462  -0.045  0.00  0.00    -0.269 N 
ATOM      4  H   UNL     1       1.604  -1.055  -0.048  0.00  0.00    +0.156 HD
ENDROOT
BRANCH   3   5
ATOM      5  C   UNL     1       1.015   0.909  -0.233  0.00  0.00    +0.129 A 
ATOM      6  C   UNL     1       0.030   1.838  -0.370  0.00  0.00    +0.069 A 
ATOM      7  C   UNL     1       0.637   3.086  -0.534  0.00  0.00    +0.071 A 
ATOM      8  N   UNL     1       1.935   2.923  -0.507  0.00  0.00    -0.169 NA
ATOM      9  N   UNL     1       2.206   1.562  -0.318  0.00  0.00    -0.218 N 
BRANCH   9  10
ATOM     10  C   UNL     1       3.477   0.977  -0.234  0.00  0.00    +0.070 A 
ATOM     11  C   UNL     1       3.770   0.096   0.799  0.00  0.00    +0.028 A 
ATOM     12  C   UNL     1       5.022  -0.483   0.877  0.00  0.00    +0.005 A 
ATOM     13  C   UNL     1       5.986  -0.178  -0.067  0.00  0.00    -0.050 A 
ATOM     14  C   UNL     1       5.699   0.702  -1.093  0.00  0.00    +0.008 A 
ATOM     15  C   UNL     1       4.447   1.280  -1.179  0.00  0.00    -0.025 A 
ATOM     16  C   UNL     1       4.135   2.241  -2.298  0.00  0.00    +0.046 C 
ATOM     17  C   UNL     1       7.352  -0.808   0.024  0.00  0.00    +0.044 C 
ENDBRANCH   9  10
BRANCH   7  18
ATOM     18  C   UNL     1      -0.082   4.398  -0.717  0.00  0.00    +0.006 C 
ATOM     19  C   UNL     1      -0.659   4.854   0.625  0.00  0.00    +0.017 C 
ATOM     20  C   UNL     1       0.900   5.450  -1.234  0.00  0.00    +0.017 C 
ATOM     21  C   UNL     1      -1.218   4.220  -1.726  0.00  0.00    +0.017 C 
ENDBRANCH   7  18
ENDBRANCH   3   5
BRANCH   1  22
ATOM     22  C   UNL     1      -0.593  -2.442   0.345  0.00  0.00    +0.205 C 
BRANCH  22  23
ATOM     23  N   UNL     1      -2.019  -2.729   0.524  0.00  0.00    -0.277 N 
ATOM     24  C   UNL     1      -2.790  -3.004  -0.546  0.00  0.00    +0.307 C 
ATOM     25  O   UNL     1      -2.304  -3.014  -1.660  0.00  0.00    -0.252 OA
ATOM     26  N   UNL     1      -4.102  -3.268  -0.382  0.00  0.00    -0.269 N 
ATOM     27  H   UNL     1      -4.504  -3.195   0.498  0.00  0.00    +0.156 HD
BRANCH  26  28
ATOM     28  C   UNL     1      -4.883  -3.648  -1.481  0.00  0.00    +0.035 A 
ATOM     29  C   UNL     1      -4.644  -3.090  -2.729  0.00  0.00    +0.027 A 
ATOM     30  C   UNL     1      -5.412  -3.469  -3.813  0.00  0.00    +0.047 A 
ATOM     31  C   UNL     1      -6.428  -4.398  -3.652  0.00  0.00    +0.121 A 
ATOM     32  C   UNL     1      -6.671  -4.952  -2.404  0.00  0.00    +0.047 A 
ATOM     33  C   UNL     1      -5.901  -4.579  -1.321  0.00  0.00    +0.027 A 
BRANCH  31  34
ATOM     34  O   UNL     1      -7.187  -4.767  -4.719  0.00  0.00    -0.492 OA
BRANCH  34  35
ATOM     35  C   UNL     1      -6.882  -4.156  -5.974  0.00  0.00    +0.225 C 
ATOM     36  C   UNL     1      -7.834  -4.691  -7.046  0.00  0.00    +0.048 C 
ENDBRANCH  34  35
ENDBRANCH  31  34
ENDBRANCH  26  28
BRANCH  23  37
ATOM     37  C   UNL     1      -2.605  -2.717   1.866  0.00  0.00    +0.110 C 
BRANCH  37  38
ATOM     38  C   UNL     1      -3.110  -1.309   2.190  0.00  0.00    +0.019 C 
BRANCH  38  40
ATOM     39  C   UNL     1      -4.228   0.111   3.915  0.00  0.00    +0.004 C 
ATOM     40  C   UNL     1      -3.723  -1.297   3.592  0.00  0.00    -0.002 C 
ENDBRANCH  38  40
ENDBRANCH  37  38
ENDBRANCH  23  37
ENDBRANCH  22  23
ENDBRANCH   1  22
TORSDOF 11
