REMARK  Name = ZINC43221560
REMARK  12 active torsions:
REMARK  status: ('A' for Active; 'I' for Inactive)
REMARK    1  A    between atoms: C_1  and  C_2
REMARK    2  A    between atoms: C_2  and  C_3
REMARK    3  A    between atoms: C_3  and  O_4
REMARK    4  A    between atoms: O_4  and  C_5
REMARK    5  A    between atoms: C_8  and  C_11
REMARK    6  A    between atoms: N_19  and  C_22
REMARK    7  A    between atoms: C_26  and  N_28
REMARK    8  A    between atoms: C_31  and  C_33
REMARK    9  A    between atoms: C_31  and  C_38
REMARK   10  A    between atoms: C_33  and  C_35
REMARK   11  A    between atoms: C_33  and  C_36
REMARK   12  A    between atoms: C_36  and  C_37
REMARK                            x       y       z     vdW  Elec       q    Type
REMARK                         _______ _______ _______ _____ _____    ______ ____
ROOT
ATOM      1  C   UNL     1      -6.397  -4.588   0.038  0.00  0.00    -0.027 C 
ATOM      2  C   UNL     1      -6.667  -5.186   1.409  0.00  0.00    +0.077 C 
ATOM      3  C   UNL     1      -5.919  -6.560   1.214  0.00  0.00    +0.086 C 
ATOM      4  C   UNL     1      -5.790  -7.018   2.575  0.00  0.00    +0.229 C 
ATOM      5  O   UNL     1      -5.823  -8.162   2.975  0.00  0.00    -0.275 OA
ATOM      6  N   UNL     1      -5.620  -5.877   3.321  0.00  0.00    -0.210 N 
ATOM      7  C   UNL     1      -5.918  -4.729   2.622  0.00  0.00    +0.229 C 
ATOM      8  O   UNL     1      -5.633  -3.588   2.917  0.00  0.00    -0.275 OA
ATOM      9  C   UNL     1      -6.445  -7.013  -0.085  0.00  0.00    +0.051 C 
ATOM     10  N   UNL     1      -6.379  -5.743  -0.909  0.00  0.00    +0.396 N 
ATOM     11  H   UNL     1      -7.179  -5.696  -1.521  0.00  0.00    -0.083 HD
ATOM     12  H   UNL     1      -5.530  -5.725  -1.454  0.00  0.00    -0.083 HD
ENDROOT
BRANCH   1  16
ATOM     13  C   UNL     1      -2.616  -2.596   0.012  0.00  0.00    +0.121 A 
ATOM     14  C   UNL     1      -2.681  -3.966  -0.195  0.00  0.00    +0.046 A 
ATOM     15  C   UNL     1      -3.905  -4.608  -0.186  0.00  0.00    +0.005 A 
ATOM     16  C   UNL     1      -5.064  -3.885   0.029  0.00  0.00    -0.060 A 
ATOM     17  C   UNL     1      -5.002  -2.519   0.235  0.00  0.00    +0.005 A 
ATOM     18  C   UNL     1      -3.780  -1.874   0.233  0.00  0.00    +0.046 A 
BRANCH  13  19
ATOM     19  O   UNL     1      -1.414  -1.962   0.004  0.00  0.00    -0.492 OA
BRANCH  19  20
ATOM     20  C   UNL     1      -0.258  -2.769  -0.230  0.00  0.00    +0.229 C 
BRANCH  20  22
ATOM     21  C   UNL     1       2.231  -2.751  -0.453  0.00  0.00    +0.007 C 
ATOM     22  C   UNL     1       0.993  -1.887  -0.202  0.00  0.00    +0.038 C 
ENDBRANCH  20  22
ENDBRANCH  19  20
ENDBRANCH  13  19
ENDBRANCH   1  16
BRANCH   6  23
ATOM     23  C   UNL     1      -5.200  -5.879   4.659  0.00  0.00    +0.046 A 
ATOM     24  C   UNL     1      -4.923  -7.080   5.299  0.00  0.00    +0.024 A 
ATOM     25  C   UNL     1      -4.509  -7.078   6.617  0.00  0.00    +0.004 A 
ATOM     26  C   UNL     1      -4.369  -5.883   7.298  0.00  0.00    +0.033 A 
ATOM     27  C   UNL     1      -4.644  -4.686   6.662  0.00  0.00    +0.128 A 
ATOM     28  C   UNL     1      -5.053  -4.681   5.343  0.00  0.00    +0.056 A 
BRANCH  27  29
ATOM     29  N   UNL     1      -4.493  -3.409   7.395  0.00  0.00    +0.056 N 
ATOM     30  O   UNL     1      -4.130  -3.412   8.548  0.00  0.00    -0.126 OA
ATOM     31  O   UNL     1      -4.734  -2.361   6.840  0.00  0.00    -0.126 OA
ENDBRANCH  27  29
ENDBRANCH   6  23
BRANCH   9  32
ATOM     32  C   UNL     1      -7.861  -7.509   0.054  0.00  0.00    +0.347 C 
ATOM     33  O   UNL     1      -8.758  -6.974  -0.574  0.00  0.00    -0.248 OA
ATOM     34  O   UNL     1      -8.109  -8.446   0.795  0.00  0.00    -0.248 OA
ENDBRANCH   9  32
BRANCH   9  35
ATOM     35  C   UNL     1      -5.545  -8.092  -0.689  0.00  0.00    -0.014 C 
ATOM     36  C   UNL     1      -5.377  -9.236   0.313  0.00  0.00    +0.006 C 
BRANCH  35  37
ATOM     37  C   UNL     1      -6.183  -8.628  -1.972  0.00  0.00    -0.001 C 
ATOM     38  C   UNL     1      -5.227  -9.617  -2.643  0.00  0.00    +0.004 C 
ENDBRANCH  35  37
ENDBRANCH   9  35
TORSDOF 9
