REMARK  Name = ZINC36704295
REMARK  11 active torsions:
REMARK  status: ('A' for Active; 'I' for Inactive)
REMARK    1  A    between atoms: C_1  and  C_2
REMARK    2  A    between atoms: C_5  and  O_33
REMARK    3  A    between atoms: N_11  and  C_12
REMARK    4  A    between atoms: C_12  and  C_13
REMARK    5  A    between atoms: C_13  and  N_14
REMARK    6  A    between atoms: N_14  and  C_15
REMARK    7  A    between atoms: N_14  and  C_16
REMARK    8  A    between atoms: C_17  and  C_19
REMARK    9  A    between atoms: N_22  and  S_25
REMARK   10  A    between atoms: S_25  and  C_28
REMARK   11  A    between atoms: O_33  and  C_34
REMARK                            x       y       z     vdW  Elec       q    Type
REMARK                         _______ _______ _______ _____ _____    ______ ____
ROOT
ATOM      1  C   UNL     1      -0.562   1.442   0.023  0.00  0.00    +0.045 C 
ATOM      2  C   UNL     1      -0.539  -0.065   0.035  0.00  0.00    -0.034 A 
ATOM      3  C   UNL     1      -0.596  -0.770  -1.154  0.00  0.00    +0.008 A 
ATOM      4  C   UNL     1      -0.573  -2.156  -1.124  0.00  0.00    +0.048 A 
ATOM      5  C   UNL     1      -0.495  -2.847   0.063  0.00  0.00    +0.147 A 
ATOM      6  C   UNL     1      -0.435  -2.155   1.299  0.00  0.00    +0.122 A 
ATOM      7  C   UNL     1      -0.454  -0.745   1.225  0.00  0.00    +0.047 A 
ATOM      8  S   UNL     1      -0.355  -0.275   2.936  0.00  0.00    -0.051 S 
ATOM      9  C   UNL     1      -0.288  -1.926   3.618  0.00  0.00    +0.168 A 
ATOM     10  N   UNL     1      -0.356  -2.675   2.544  0.00  0.00    -0.221 NA
ATOM     11  N   UNL     1      -0.200  -2.315   4.946  0.00  0.00    -0.252 N 
ATOM     12  C   UNL     1      -0.025  -1.389   5.909  0.00  0.00    +0.224 C 
ATOM     13  O   UNL     1       0.154  -1.735   7.058  0.00  0.00    -0.275 OA
ENDROOT
BRANCH  12  14
ATOM     14  C   UNL     1      -0.052   0.077   5.560  0.00  0.00    +0.078 C 
ATOM     15  C   UNL     1       1.292   0.480   4.948  0.00  0.00    +0.030 C 
ATOM     16  C   UNL     1       1.249   1.962   4.562  0.00  0.00    +0.110 C 
ATOM     17  N   UNL     1       0.863   2.747   5.743  0.00  0.00    -0.176 NA
ATOM     18  C   UNL     1      -0.366   2.385   6.461  0.00  0.00    +0.110 C 
ATOM     19  C   UNL     1      -0.305   0.898   6.826  0.00  0.00    +0.030 C 
BRANCH  17  20
ATOM     20  S   UNL     1       1.797   4.015   6.254  0.00  0.00    +0.067 S 
ATOM     21  O   UNL     1       1.519   4.193   7.636  0.00  0.00    -0.152 OA
ATOM     22  O   UNL     1       3.110   3.775   5.766  0.00  0.00    -0.152 OA
BRANCH  20  23
ATOM     23  C   UNL     1       1.211   5.459   5.433  0.00  0.00    +0.143 A 
ATOM     24  C   UNL     1       0.257   6.338   5.828  0.00  0.00    +0.036 A 
ATOM     25  C   UNL     1      -0.043   7.413   5.012  0.00  0.00    +0.010 A 
ATOM     26  C   UNL     1       0.625   7.556   3.841  0.00  0.00    +0.047 A 
ATOM     27  S   UNL     1       1.722   6.148   3.868  0.00  0.00    -0.077 S 
ENDBRANCH  20  23
ENDBRANCH  17  20
ENDBRANCH  12  14
BRANCH   5  28
ATOM     28  O   UNL     1      -0.476  -4.206   0.051  0.00  0.00    -0.493 OA
ATOM     29  C   UNL     1      -0.540  -4.844  -1.226  0.00  0.00    +0.277 C 
ENDBRANCH   5  28
BRANCH  11  30
ATOM     30  C   UNL     1      -0.297  -3.733   5.302  0.00  0.00    +0.097 C 
BRANCH  30  31
ATOM     31  C   UNL     1       1.080  -4.387   5.169  0.00  0.00    -0.060 C 
BRANCH  31  32
ATOM     32  N   UNL     1       0.983  -5.809   5.525  0.00  0.00    +0.377 N 
ATOM     33  C   UNL     1       0.128  -6.501   4.551  0.00  0.00    -0.097 C 
ATOM     34  C   UNL     1       2.323  -6.409   5.514  0.00  0.00    -0.097 C 
ATOM     35  H   UNL     1       0.582  -5.898   6.447  0.00  0.00    -0.083 HD
ENDBRANCH  31  32
ENDBRANCH  30  31
ENDBRANCH  11  30
TORSDOF 7
