REMARK  Name = ZINC32925504
REMARK  6 active torsions:
REMARK  status: ('A' for Active; 'I' for Inactive)
REMARK    1  A    between atoms: C_4  and  C_7
REMARK    2  A    between atoms: N_11  and  C_12
REMARK    3  A    between atoms: C_17  and  S_18
REMARK    4  A    between atoms: S_18  and  C_19
REMARK    5  A    between atoms: C_19  and  C_21
REMARK    6  A    between atoms: C_19  and  C_28
REMARK                            x       y       z     vdW  Elec       q    Type
REMARK                         _______ _______ _______ _____ _____    ______ ____
ROOT
ATOM      1  C   UNL     1      -2.809   1.223  -6.061  0.00  0.00    +0.164 A 
ATOM      2  N   UNL     1      -2.917   0.547  -4.950  0.00  0.00    -0.143 NA
ATOM      3  N   UNL     1      -2.730   1.418  -3.875  0.00  0.00    -0.170 N 
ATOM      4  C   UNL     1      -2.502   2.667  -4.392  0.00  0.00    +0.255 A 
ATOM      5  N   UNL     1      -2.552   2.543  -5.764  0.00  0.00    -0.289 N 
ATOM      6  N   UNL     1      -2.328   3.478  -3.376  0.00  0.00    -0.108 NA
ATOM      7  N   UNL     1      -2.436   2.827  -2.272  0.00  0.00    -0.119 NA
ATOM      8  C   UNL     1      -2.677   1.561  -2.518  0.00  0.00    +0.215 A 
ENDROOT
BRANCH   1  12
ATOM      9  C   UNL     1      -3.190  -0.393  -9.972  0.00  0.00    +0.000 A 
ATOM     10  C   UNL     1      -2.931  -1.231  -8.903  0.00  0.00    +0.001 A 
ATOM     11  C   UNL     1      -2.806  -0.713  -7.630  0.00  0.00    +0.011 A 
ATOM     12  C   UNL     1      -2.942   0.660  -7.423  0.00  0.00    +0.019 A 
ATOM     13  C   UNL     1      -3.209   1.500  -8.505  0.00  0.00    +0.011 A 
ATOM     14  C   UNL     1      -3.326   0.970  -9.773  0.00  0.00    +0.001 A 
ENDBRANCH   1  12
BRANCH   5  15
ATOM     15  C   UNL     1      -2.365   3.624  -6.734  0.00  0.00    +0.092 C 
ATOM     16  C   UNL     1      -2.043   5.017  -6.187  0.00  0.00    +0.027 C 
ATOM     17  C   UNL     1      -3.425   4.726  -6.777  0.00  0.00    +0.027 C 
ENDBRANCH   5  15
BRANCH   8  18
ATOM     18  S   UNL     1      -2.897   0.286  -1.322  0.00  0.00    -0.067 S 
BRANCH  18  19
ATOM     19  C   UNL     1      -2.704   1.137   0.268  0.00  0.00    +0.170 C 
BRANCH  19  20
ATOM     20  C   UNL     1      -2.993   0.175   1.391  0.00  0.00    -0.025 A 
ATOM     21  C   UNL     1      -2.204  -0.949   1.558  0.00  0.00    +0.008 A 
ATOM     22  C   UNL     1      -2.465  -1.829   2.591  0.00  0.00    +0.038 A 
ATOM     23  C   UNL     1      -3.522  -1.591   3.452  0.00  0.00    +0.123 A 
ATOM     24  C   UNL     1      -4.315  -0.469   3.281  0.00  0.00    +0.038 A 
ATOM     25  C   UNL     1      -4.049   0.413   2.251  0.00  0.00    +0.008 A 
ATOM     26  F   UNL     1      -3.781  -2.454   4.459  0.00  0.00    -0.205 F 
ENDBRANCH  19  20
BRANCH  19  27
ATOM     27  C   UNL     1      -1.293   1.649   0.395  0.00  0.00    +0.228 C 
ATOM     28  O   UNL     1      -1.059   2.615   1.090  0.00  0.00    -0.274 OA
ATOM     29  N   UNL     1      -0.291   1.034  -0.263  0.00  0.00    -0.328 N 
ATOM     30  H   UNL     1       0.740   1.408  -0.170  0.00  0.00    +0.145 HD
ATOM     31  H   UNL     1      -0.503   0.158  -0.894  0.00  0.00    +0.145 HD
ENDBRANCH  19  27
ENDBRANCH  18  19
ENDBRANCH   8  18
TORSDOF 6
