REMARK  Name = ZINC23858248
REMARK  9 active torsions:
REMARK  status: ('A' for Active; 'I' for Inactive)
REMARK    1  A    between atoms: C_1  and  N_2
REMARK    2  A    between atoms: C_10  and  C_12
REMARK    3  A    between atoms: C_12  and  C_14
REMARK    4  A    between atoms: C_12  and  N_28
REMARK    5  A    between atoms: C_14  and  N_15
REMARK    6  A    between atoms: C_16  and  C_18
REMARK    7  A    between atoms: C_20  and  N_25
REMARK    8  A    between atoms: N_28  and  C_29
REMARK    9  A    between atoms: N_28  and  C_30
REMARK                            x       y       z     vdW  Elec       q    Type
REMARK                         _______ _______ _______ _____ _____    ______ ____
ROOT
ATOM      1  C   UNL     1       2.930  -2.247   4.434  0.00  0.00    -0.021 C 
ENDROOT
BRANCH   1  11
ATOM      2  C   UNL     1      -0.543   1.652   0.879  0.00  0.00    +0.129 C 
ATOM      3  N   UNL     1       0.902   1.488   0.673  0.00  0.00    -0.333 N 
ATOM      4  C   UNL     1       1.581   2.785   0.655  0.00  0.00    +0.105 C 
ATOM      5  C   UNL     1       3.084   2.551   0.466  0.00  0.00    +0.024 C 
ATOM      6  C   UNL     1       3.621   1.881   1.733  0.00  0.00    +0.038 C 
ATOM      7  C   UNL     1       2.717   0.739   2.124  0.00  0.00    -0.026 A 
ATOM      8  C   UNL     1       1.442   0.601   1.603  0.00  0.00    +0.033 A 
ATOM      9  C   UNL     1       0.646  -0.470   2.015  0.00  0.00    +0.023 A 
ATOM     10  C   UNL     1       1.126  -1.385   2.928  0.00  0.00    +0.004 A 
ATOM     11  C   UNL     1       2.403  -1.246   3.440  0.00  0.00    -0.059 A 
ATOM     12  C   UNL     1       3.193  -0.187   3.038  0.00  0.00    +0.007 A 
ENDBRANCH   1  11
BRANCH   1  13
ATOM     13  N   UNL     1       3.101  -3.549   3.775  0.00  0.00    +0.382 N 
ATOM     14  C   UNL     1       1.845  -4.310   3.779  0.00  0.00    -0.096 C 
ATOM     15  C   UNL     1       3.612  -3.383   2.408  0.00  0.00    -0.096 C 
ATOM     16  H   UNL     1       3.845  -4.123   4.347  0.00  0.00    -0.082 HD
ENDBRANCH   1  13
BRANCH   1  17
ATOM     17  C   UNL     1       1.939  -2.388   5.591  0.00  0.00    +0.094 C 
BRANCH  17  18
ATOM     18  N   UNL     1       2.481  -3.315   6.588  0.00  0.00    -0.313 N 
ATOM     19  C   UNL     1       1.735  -3.670   7.654  0.00  0.00    +0.246 C 
ATOM     20  O   UNL     1       0.614  -3.221   7.787  0.00  0.00    -0.270 OA
ATOM     21  H   UNL     1       3.496  -3.721   6.468  0.00  0.00    +0.149 HD
BRANCH  19  22
ATOM     22  C   UNL     1       2.282  -4.605   8.659  0.00  0.00    +0.057 A 
ATOM     23  C   UNL     1       3.567  -5.127   8.506  0.00  0.00    +0.047 A 
ATOM     24  C   UNL     1       4.073  -5.995   9.450  0.00  0.00    +0.127 A 
ATOM     25  C   UNL     1       3.305  -6.359  10.543  0.00  0.00    +0.034 A 
ATOM     26  C   UNL     1       2.029  -5.850  10.700  0.00  0.00    +0.023 A 
ATOM     27  C   UNL     1       1.512  -4.975   9.764  0.00  0.00    +0.053 A 
ATOM     28 CL   UNL     1      -0.091  -4.337   9.962  0.00  0.00    -0.083 Cl
BRANCH  24  29
ATOM     29  N   UNL     1       5.438  -6.546   9.291  0.00  0.00    +0.056 N 
ATOM     30  O   UNL     1       5.884  -7.317  10.121  0.00  0.00    -0.126 OA
ATOM     31  O   UNL     1       6.115  -6.228   8.330  0.00  0.00    -0.126 OA
ENDBRANCH  24  29
ENDBRANCH  19  22
ENDBRANCH  17  18
ENDBRANCH   1  17
TORSDOF 6
