REMARK  Name = ZINC33077481
REMARK  6 active torsions:
REMARK  status: ('A' for Active; 'I' for Inactive)
REMARK    1  A    between atoms: C_1  and  C_2
REMARK    2  A    between atoms: C_5  and  N_9
REMARK    3  A    between atoms: C_10  and  C_12
REMARK    4  A    between atoms: N_15  and  S_18
REMARK    5  A    between atoms: S_18  and  C_21
REMARK    6  A    between atoms: C_31  and  C_33
REMARK                            x       y       z     vdW  Elec       q    Type
REMARK                         _______ _______ _______ _____ _____    ______ ____
ROOT
ATOM      1  S   UNL     1       3.814  -7.910   1.468  0.00  0.00    +0.061 S 
ATOM      2  O   UNL     1       2.747  -8.667   2.022  0.00  0.00    -0.153 OA
ATOM      3  O   UNL     1       4.830  -8.498   0.666  0.00  0.00    -0.153 OA
ENDROOT
BRANCH   1   4
ATOM      4  C   UNL     1       4.630  -7.125   2.818  0.00  0.00    +0.106 A 
ATOM      5  C   UNL     1       5.953  -6.741   2.696  0.00  0.00    +0.030 A 
ATOM      6  C   UNL     1       6.590  -6.123   3.753  0.00  0.00    +0.026 A 
ATOM      7  C   UNL     1       5.905  -5.896   4.942  0.00  0.00    +0.040 A 
ATOM      8  C   UNL     1       4.580  -6.282   5.064  0.00  0.00    -0.024 A 
ATOM      9  C   UNL     1       3.947  -6.899   3.997  0.00  0.00    +0.034 A 
ATOM     10  C   UNL     1       3.804  -6.042   6.332  0.00  0.00    +0.038 C 
ATOM     11  C   UNL     1       4.755  -5.840   7.511  0.00  0.00    +0.024 C 
ATOM     12  C   UNL     1       5.787  -4.767   7.139  0.00  0.00    +0.114 C 
ATOM     13  N   UNL     1       6.574  -5.276   6.007  0.00  0.00    -0.271 N 
ATOM     14  C   UNL     1       7.915  -5.148   5.992  0.00  0.00    +0.223 C 
ATOM     15  O   UNL     1       8.549  -5.511   5.024  0.00  0.00    -0.275 OA
BRANCH  14  16
ATOM     16  C   UNL     1       8.628  -4.553   7.179  0.00  0.00    +0.076 C 
ATOM     17  C   UNL     1       8.740  -3.020   7.126  0.00  0.00    +0.013 C 
ATOM     18  C   UNL     1      10.165  -3.184   7.681  0.00  0.00    +0.001 C 
ATOM     19  C   UNL     1      10.161  -4.591   7.060  0.00  0.00    +0.013 C 
ENDBRANCH  14  16
ENDBRANCH   1   4
BRANCH   1  23
ATOM     20  C   UNL     1       2.407  -4.090  -0.219  0.00  0.00    +0.078 C 
ATOM     21  C   UNL     1       1.763  -4.741   1.007  0.00  0.00    +0.030 C 
ATOM     22  C   UNL     1       1.752  -6.262   0.826  0.00  0.00    +0.110 C 
ATOM     23  N   UNL     1       3.122  -6.716   0.552  0.00  0.00    -0.177 NA
ATOM     24  C   UNL     1       3.866  -6.090  -0.549  0.00  0.00    +0.110 C 
ATOM     25  C   UNL     1       3.854  -4.571  -0.353  0.00  0.00    +0.030 C 
BRANCH  20  27
ATOM     26  N   UNL     1       1.216  -1.942   0.076  0.00  0.00    -0.284 N 
ATOM     27  C   UNL     1       2.389  -2.592  -0.060  0.00  0.00    +0.220 C 
ATOM     28  O   UNL     1       3.431  -1.970  -0.054  0.00  0.00    -0.275 OA
ATOM     29  H   UNL     1       0.277  -2.512   0.146  0.00  0.00    +0.155 HD
BRANCH  26  34
ATOM     30  C   UNL     1       1.120   3.727   0.288  0.00  0.00    +0.044 C 
ATOM     31  C   UNL     1       1.145   2.221   0.232  0.00  0.00    -0.049 A 
ATOM     32  C   UNL     1       2.202   1.527   0.792  0.00  0.00    +0.005 A 
ATOM     33  C   UNL     1       2.228   0.147   0.742  0.00  0.00    +0.025 A 
ATOM     34  C   UNL     1       1.192  -0.544   0.129  0.00  0.00    +0.052 A 
ATOM     35  C   UNL     1       0.131   0.156  -0.433  0.00  0.00    +0.062 A 
ATOM     36  C   UNL     1       0.111   1.537  -0.380  0.00  0.00    +0.025 A 
ATOM     37 CL   UNL     1      -1.167  -0.703  -1.202  0.00  0.00    -0.082 Cl
ENDBRANCH  26  34
ENDBRANCH  20  27
ENDBRANCH   1  23
TORSDOF 5
