REMARK  Name = ZINC12715025
REMARK  13 active torsions:
REMARK  status: ('A' for Active; 'I' for Inactive)
REMARK    1  A    between atoms: C_1  and  C_2
REMARK    2  A    between atoms: C_5  and  C_7
REMARK    3  A    between atoms: C_7  and  C_9
REMARK    4  A    between atoms: C_7  and  N_19
REMARK    5  A    between atoms: N_11  and  C_12
REMARK    6  A    between atoms: C_12  and  C_13
REMARK    7  A    between atoms: N_19  and  C_20
REMARK    8  A    between atoms: C_23  and  C_26
REMARK    9  A    between atoms: C_26  and  C_27
REMARK   10  A    between atoms: C_26  and  C_28
REMARK   11  A    between atoms: C_29  and  C_31
REMARK   12  A    between atoms: C_32  and  N_39
REMARK   13  A    between atoms: C_33  and  C_36
REMARK                            x       y       z     vdW  Elec       q    Type
REMARK                         _______ _______ _______ _____ _____    ______ ____
ROOT
ATOM      1  N   UNL     1       2.641  -2.787  -1.141  0.00  0.00    -0.248 N 
ATOM      2  C   UNL     1       3.158  -3.798  -1.868  0.00  0.00    +0.262 C 
ATOM      3  O   UNL     1       4.318  -3.753  -2.236  0.00  0.00    -0.269 OA
ENDROOT
BRANCH   1   4
ATOM      4  C   UNL     1       3.435  -1.683  -0.816  0.00  0.00    +0.038 A 
ATOM      5  C   UNL     1       4.711  -1.561  -1.352  0.00  0.00    +0.024 A 
ATOM      6  C   UNL     1       5.492  -0.469  -1.029  0.00  0.00    +0.006 A 
ATOM      7  C   UNL     1       5.006   0.502  -0.172  0.00  0.00    -0.045 A 
ATOM      8  C   UNL     1       3.737   0.383   0.364  0.00  0.00    +0.006 A 
ATOM      9  C   UNL     1       2.948  -0.704   0.040  0.00  0.00    +0.024 A 
BRANCH   7  10
ATOM     10  C   UNL     1       5.862   1.692   0.179  0.00  0.00    +0.013 C 
ATOM     11  C   UNL     1       5.153   2.976  -0.258  0.00  0.00    +0.012 C 
ATOM     12  C   UNL     1       6.093   1.726   1.691  0.00  0.00    +0.012 C 
ENDBRANCH   7  10
ENDBRANCH   1   4
BRANCH   2  13
ATOM     13  C   UNL     1       2.325  -4.951  -2.214  0.00  0.00    +0.116 A 
ATOM     14  C   UNL     1       2.428  -5.822  -3.300  0.00  0.00    +0.076 A 
ATOM     15  C   UNL     1       1.452  -6.816  -3.308  0.00  0.00    +0.155 A 
ATOM     16  N   UNL     1       0.557  -6.854  -2.343  0.00  0.00    -0.203 NA
ATOM     17  S   UNL     1       0.914  -5.622  -1.359  0.00  0.00    +0.019 S 
BRANCH  15  18
ATOM     18  C   UNL     1       1.421  -7.818  -4.390  0.00  0.00    +0.262 C 
ATOM     19  O   UNL     1       2.333  -7.874  -5.193  0.00  0.00    -0.269 OA
ATOM     20  N   UNL     1       0.382  -8.671  -4.489  0.00  0.00    -0.324 N 
ATOM     21  H   UNL     1      -0.345  -8.626  -3.849  0.00  0.00    +0.145 HD
ATOM     22  H   UNL     1       0.362  -9.330  -5.200  0.00  0.00    +0.145 HD
ENDBRANCH  15  18
BRANCH  14  23
ATOM     23  N   UNL     1       3.408  -5.708  -4.278  0.00  0.00    -0.355 N 
ATOM     24  H   UNL     1       4.082  -5.014  -4.210  0.00  0.00    +0.142 HD
ATOM     25  H   UNL     1       3.418  -6.322  -5.028  0.00  0.00    +0.142 HD
ENDBRANCH  14  23
ENDBRANCH   2  13
BRANCH   1  26
ATOM     26  C   UNL     1       1.248  -2.845  -0.693  0.00  0.00    +0.233 C 
BRANCH  26  31
ATOM     27  C   UNL     1       0.177   1.886  -2.074  0.00  0.00    +0.086 C 
ATOM     28  C   UNL     1       0.033   0.407  -1.824  0.00  0.00    +0.102 A 
ATOM     29  C   UNL     1      -1.059  -0.333  -2.089  0.00  0.00    +0.045 A 
ATOM     30  C   UNL     1      -0.758  -1.659  -1.702  0.00  0.00    +0.047 A 
ATOM     31  C   UNL     1       0.499  -1.651  -1.224  0.00  0.00    +0.135 A 
ATOM     32  O   UNL     1       0.976  -0.398  -1.306  0.00  0.00    -0.462 OA
ENDBRANCH  26  31
BRANCH  26  33
ATOM     33  C   UNL     1       1.204  -2.836   0.814  0.00  0.00    +0.242 C 
ATOM     34  O   UNL     1       2.236  -2.786   1.450  0.00  0.00    -0.273 OA
ATOM     35  N   UNL     1       0.019  -2.884   1.454  0.00  0.00    -0.311 N 
ATOM     36  H   UNL     1      -0.805  -2.924   0.945  0.00  0.00    +0.149 HD
BRANCH  35  37
ATOM     37  C   UNL     1      -0.023  -2.874   2.918  0.00  0.00    +0.135 C 
BRANCH  37  38
ATOM     38  C   UNL     1      -1.478  -2.935   3.386  0.00  0.00    +0.135 C 
ATOM     39  C   UNL     1      -1.540  -2.804   4.924  0.00  0.00    +0.035 C 
ATOM     40  C   UNL     1      -2.660  -3.814   5.296  0.00  0.00    +0.031 C 
ATOM     41  C   UNL     1      -2.435  -4.911   4.225  0.00  0.00    +0.160 C 
ATOM     42  O   UNL     1      -2.050  -4.201   3.035  0.00  0.00    -0.375 OA
ENDBRANCH  37  38
ENDBRANCH  35  37
ENDBRANCH  26  33
ENDBRANCH   1  26
TORSDOF 10
