REMARK  Name = ZINC16249537
REMARK  5 active torsions:
REMARK  status: ('A' for Active; 'I' for Inactive)
REMARK    1  A    between atoms: C_1  and  C_2
REMARK    2  A    between atoms: C_3  and  C_22
REMARK    3  A    between atoms: C_10  and  N_21
REMARK    4  A    between atoms: C_11  and  C_13
REMARK    5  A    between atoms: C_13  and  C_15
REMARK                            x       y       z     vdW  Elec       q    Type
REMARK                         _______ _______ _______ _____ _____    ______ ____
ROOT
ATOM      1  C   UNL     1       0.281   1.310   0.189  0.00  0.00    +0.046 C 
ATOM      2  C   UNL     1       0.325  -0.194   0.270  0.00  0.00    -0.016 A 
ATOM      3  C   UNL     1       0.327  -0.950  -0.889  0.00  0.00    +0.119 A 
ATOM      4  C   UNL     1       0.370  -2.411  -0.796  0.00  0.00    +0.267 A 
ATOM      5  O   UNL     1       0.372  -3.093  -1.805  0.00  0.00    -0.266 OA
ATOM      6  N   UNL     1       0.407  -2.990   0.420  0.00  0.00    -0.315 N 
ATOM      7  H   UNL     1       0.436  -3.957   0.487  0.00  0.00    +0.169 HD
ATOM      8  C   UNL     1       0.405  -2.240   1.555  0.00  0.00    +0.090 A 
ATOM      9  C   UNL     1       0.370  -0.838   1.537  0.00  0.00    +0.031 A 
ATOM     10  C   UNL     1       0.381  -0.204   2.850  0.00  0.00    +0.052 A 
ATOM     11  C   UNL     1       0.428  -1.067   3.932  0.00  0.00    +0.083 A 
ATOM     12  S   UNL     1       0.445  -2.674   3.171  0.00  0.00    -0.065 S 
ENDROOT
BRANCH  10  13
ATOM     13  N   UNL     1       0.345   1.171   3.006  0.00  0.00    -0.356 N 
ATOM     14  H   UNL     1       0.203   1.743   2.235  0.00  0.00    +0.142 HD
ATOM     15  H   UNL     1       0.463   1.563   3.885  0.00  0.00    +0.142 HD
ENDBRANCH  10  13
BRANCH  11  16
ATOM     16  C   UNL     1       0.448  -0.748   5.307  0.00  0.00    +0.202 C 
ATOM     17  O   UNL     1       0.300   0.407   5.667  0.00  0.00    -0.286 OA
BRANCH  16  18
ATOM     18  C   UNL     1       0.650  -1.816   6.311  0.00  0.00    +0.023 A 
ATOM     19  C   UNL     1       1.285  -3.005   5.952  0.00  0.00    +0.012 A 
ATOM     20  C   UNL     1       1.470  -3.997   6.893  0.00  0.00    +0.001 A 
ATOM     21  C   UNL     1       1.028  -3.814   8.191  0.00  0.00    +0.000 A 
ATOM     22  C   UNL     1       0.397  -2.637   8.554  0.00  0.00    +0.001 A 
ATOM     23  C   UNL     1       0.211  -1.635   7.624  0.00  0.00    +0.012 A 
ENDBRANCH  16  18
ENDBRANCH  11  16
BRANCH   3  24
ATOM     24  C   UNL     1       0.286  -0.309  -2.168  0.00  0.00    +0.105 C 
ATOM     25  N   UNL     1       0.253   0.199  -3.184  0.00  0.00    -0.191 NA
ENDBRANCH   3  24
TORSDOF 4
