REMARK  Name = ZINC05911319
REMARK  8 active torsions:
REMARK  status: ('A' for Active; 'I' for Inactive)
REMARK    1  A    between atoms: C_1  and  C_2
REMARK    2  A    between atoms: C_2  and  C_3
REMARK    3  A    between atoms: C_2  and  S_4
REMARK    4  A    between atoms: S_4  and  C_5
REMARK    5  A    between atoms: N_11  and  N_12
REMARK    6  A    between atoms: C_13  and  C_14
REMARK    7  A    between atoms: C_18  and  O_20
REMARK    8  A    between atoms: O_20  and  C_21
REMARK                            x       y       z     vdW  Elec       q    Type
REMARK                         _______ _______ _______ _____ _____    ______ ____
ROOT
ATOM      1  N   UNL     1       7.024   0.843  -1.581  0.00  0.00    -0.188 NA
ATOM      2  C   UNL     1       8.205   0.884  -2.118  0.00  0.00    +0.138 C 
ENDROOT
BRANCH   1   9
ATOM      3  C   UNL     1       2.590  -0.351  -1.294  0.00  0.00    +0.191 A 
ATOM      4  N   UNL     1       3.634  -0.545  -2.152  0.00  0.00    -0.303 N 
ATOM      5  H   UNL     1       3.606  -1.051  -2.980  0.00  0.00    +0.171 HD
ATOM      6  C   UNL     1       4.727   0.099  -1.642  0.00  0.00    +0.235 A 
ATOM      7  N   UNL     1       4.373   0.667  -0.515  0.00  0.00    -0.111 NA
ATOM      8  N   UNL     1       3.017   0.388  -0.297  0.00  0.00    -0.121 NA
ATOM      9  N   UNL     1       5.990   0.142  -2.216  0.00  0.00    -0.205 N 
ATOM     10  H   UNL     1       6.157  -0.312  -3.056  0.00  0.00    +0.177 HD
BRANCH   3  11
ATOM     11  S   UNL     1       0.955  -0.975  -1.493  0.00  0.00    -0.083 S 
BRANCH  11  13
ATOM     12  C   UNL     1      -0.003   1.167  -0.088  0.00  0.00    +0.019 C 
ATOM     13  C   UNL     1       0.069  -0.360  -0.035  0.00  0.00    +0.048 C 
ATOM     14  C   UNL     1      -1.348  -0.938  -0.017  0.00  0.00    +0.019 C 
ENDBRANCH  11  13
ENDBRANCH   3  11
ENDBRANCH   1   9
BRANCH   2  15
ATOM     15  C   UNL     1       9.293   1.622  -1.450  0.00  0.00    -0.002 A 
ATOM     16  C   UNL     1       9.057   2.273  -0.236  0.00  0.00    +0.010 A 
ATOM     17  C   UNL     1      10.078   2.962   0.386  0.00  0.00    +0.004 A 
ATOM     18  C   UNL     1      11.335   3.010  -0.188  0.00  0.00    +0.046 A 
ATOM     19  C   UNL     1      11.580   2.366  -1.394  0.00  0.00    +0.129 A 
ATOM     20  C   UNL     1      10.565   1.667  -2.025  0.00  0.00    +0.055 A 
BRANCH  19  21
ATOM     21  O   UNL     1      12.818   2.418  -1.953  0.00  0.00    -0.456 OA
BRANCH  21  22
ATOM     22  C   UNL     1      12.964   3.105  -3.116  0.00  0.00    +0.128 A 
ATOM     23  C   UNL     1      11.902   3.835  -3.630  0.00  0.00    +0.046 A 
ATOM     24  C   UNL     1      12.053   4.532  -4.814  0.00  0.00    +0.004 A 
ATOM     25  C   UNL     1      13.261   4.502  -5.486  0.00  0.00    +0.000 A 
ATOM     26  C   UNL     1      14.321   3.774  -4.976  0.00  0.00    +0.004 A 
ATOM     27  C   UNL     1      14.177   3.080  -3.790  0.00  0.00    +0.046 A 
ENDBRANCH  21  22
ENDBRANCH  19  21
ENDBRANCH   2  15
TORSDOF 6
