REMARK  Name = ZINC42147358
REMARK  4 active torsions:
REMARK  status: ('A' for Active; 'I' for Inactive)
REMARK    1  A    between atoms: C_1  and  C_2
REMARK    2  A    between atoms: N_6  and  C_13
REMARK    3  A    between atoms: C_13  and  C_14
REMARK    4  A    between atoms: C_16  and  C_19
REMARK                            x       y       z     vdW  Elec       q    Type
REMARK                         _______ _______ _______ _____ _____    ______ ____
ROOT
ATOM      1  C   UNL     1      -0.019   1.526   0.010  0.00  0.00    +0.012 C 
ATOM      2  C   UNL     1       0.002  -0.004   0.002  0.00  0.00    +0.019 C 
ATOM      3  C   UNL     1       0.708  -0.492  -1.263  0.00  0.00    +0.027 C 
ATOM      4  C   UNL     1       0.912  -2.009  -1.163  0.00  0.00    +0.106 C 
ATOM      5  N   UNL     1       1.801  -2.268  -0.022  0.00  0.00    -0.321 N 
ATOM      6  C   UNL     1       1.574  -1.589   1.180  0.00  0.00    +0.034 A 
ATOM      7  C   UNL     1       0.721  -0.498   1.230  0.00  0.00    -0.023 A 
ATOM      8  C   UNL     1       0.519   0.156   2.433  0.00  0.00    +0.006 A 
ATOM      9  C   UNL     1       1.162  -0.275   3.578  0.00  0.00    +0.000 A 
ATOM     10  C   UNL     1       2.011  -1.365   3.529  0.00  0.00    +0.002 A 
ATOM     11  C   UNL     1       2.218  -2.022   2.334  0.00  0.00    +0.023 A 
ENDROOT
BRANCH   5  12
ATOM     12  C   UNL     1       2.908  -3.221  -0.142  0.00  0.00    +0.203 C 
BRANCH  12  13
ATOM     13  C   UNL     1       4.144  -2.499  -0.613  0.00  0.00    +0.245 A 
ATOM     14  N   UNL     1       5.045  -1.947   0.152  0.00  0.00    -0.194 NA
ATOM     15  C   UNL     1       6.006  -1.395  -0.597  0.00  0.00    +0.175 A 
ATOM     16  N   UNL     1       5.726  -1.589  -1.853  0.00  0.00    -0.061 NA
ATOM     17  O   UNL     1       4.509  -2.318  -1.888  0.00  0.00    -0.336 OA
BRANCH  15  18
ATOM     18  C   UNL     1       7.216  -0.665  -0.071  0.00  0.00    +0.060 C 
ATOM     19  C   UNL     1       8.094   0.069  -1.085  0.00  0.00    +0.012 C 
ATOM     20  C   UNL     1       8.592  -1.224  -0.437  0.00  0.00    +0.012 C 
ENDBRANCH  15  18
ENDBRANCH  12  13
ENDBRANCH   5  12
TORSDOF 3
