REMARK  Name = ZINC02217822
REMARK  11 active torsions:
REMARK  status: ('A' for Active; 'I' for Inactive)
REMARK    1  A    between atoms: C_1  and  C_2
REMARK    2  A    between atoms: C_2  and  O_3
REMARK    3  A    between atoms: O_3  and  C_4
REMARK    4  A    between atoms: C_4  and  C_6
REMARK    5  A    between atoms: C_12  and  C_13
REMARK    6  A    between atoms: C_21  and  N_37
REMARK    7  A    between atoms: C_22  and  C_32
REMARK    8  A    between atoms: C_23  and  C_25
REMARK    9  A    between atoms: C_32  and  O_34
REMARK   10  A    between atoms: O_34  and  C_35
REMARK   11  A    between atoms: C_35  and  C_36
REMARK                            x       y       z     vdW  Elec       q    Type
REMARK                         _______ _______ _______ _____ _____    ______ ____
ROOT
ATOM      1  C   UNL     1       2.217   2.368   1.026  0.00  0.00    +0.079 C 
ATOM      2  C   UNL     1       1.556   1.168   1.007  0.00  0.00    +0.100 A 
ATOM      3  N   UNL     1       2.180  -0.062   0.987  0.00  0.00    -0.257 N 
ATOM      4  C   UNL     1       1.398  -1.160   0.970  0.00  0.00    +0.271 A 
ATOM      5  O   UNL     1       1.888  -2.274   0.951  0.00  0.00    -0.266 OA
ATOM      6  C   UNL     1      -0.059  -0.981   0.974  0.00  0.00    +0.079 A 
ATOM      7  C   UNL     1      -1.042  -1.916   0.960  0.00  0.00    +0.028 C 
ATOM      8  S   UNL     1      -0.187   0.799   1.003  0.00  0.00    -0.065 S 
ATOM      9  C   UNL     1       3.576  -0.117   0.985  0.00  0.00    +0.115 C 
ATOM     10  C   UNL     1       4.374   0.977   1.002  0.00  0.00    +0.087 C 
ATOM     11  C   UNL     1       3.733   2.350   1.025  0.00  0.00    +0.099 C 
ENDROOT
BRANCH   7  12
ATOM     12  C   UNL     1      -2.441  -1.514   1.160  0.00  0.00    -0.024 A 
ATOM     13  C   UNL     1      -2.747  -0.208   1.559  0.00  0.00    +0.011 A 
ATOM     14  C   UNL     1      -4.061   0.164   1.740  0.00  0.00    +0.039 A 
ATOM     15  C   UNL     1      -5.080  -0.756   1.537  0.00  0.00    +0.123 A 
ATOM     16  C   UNL     1      -4.783  -2.053   1.147  0.00  0.00    +0.039 A 
ATOM     17  C   UNL     1      -3.474  -2.437   0.957  0.00  0.00    +0.011 A 
ATOM     18  F   UNL     1      -6.366  -0.386   1.721  0.00  0.00    -0.205 F 
ENDBRANCH   7  12
BRANCH  11  19
ATOM     19  C   UNL     1       4.213   3.114  -0.182  0.00  0.00    -0.035 A 
ATOM     20  C   UNL     1       3.966   2.626  -1.452  0.00  0.00    +0.007 A 
ATOM     21  C   UNL     1       4.400   3.329  -2.559  0.00  0.00    +0.038 A 
ATOM     22  C   UNL     1       5.093   4.517  -2.397  0.00  0.00    +0.123 A 
ATOM     23  C   UNL     1       5.344   5.002  -1.124  0.00  0.00    +0.038 A 
ATOM     24  C   UNL     1       4.904   4.300  -0.018  0.00  0.00    +0.007 A 
ATOM     25  F   UNL     1       5.523   5.202  -3.478  0.00  0.00    -0.205 F 
ENDBRANCH  11  19
BRANCH   9  26
ATOM     26  N   UNL     1       4.173  -1.350   0.964  0.00  0.00    -0.344 N 
ATOM     27  H   UNL     1       3.793  -2.064   0.429  0.00  0.00    +0.144 HD
ATOM     28  H   UNL     1       4.976  -1.509   1.485  0.00  0.00    +0.144 HD
ENDBRANCH   9  26
BRANCH   1  29
ATOM     29  C   UNL     1       1.511   3.578   1.046  0.00  0.00    +0.339 C 
ATOM     30  O   UNL     1       0.293   3.573   1.047  0.00  0.00    -0.245 OA
BRANCH  29  31
ATOM     31  O   UNL     1       2.182   4.751   1.065  0.00  0.00    -0.462 OA
BRANCH  31  33
ATOM     32  C   UNL     1       2.326   7.163   1.103  0.00  0.00    +0.048 C 
ATOM     33  C   UNL     1       1.399   5.946   1.085  0.00  0.00    +0.229 C 
ENDBRANCH  31  33
ENDBRANCH  29  31
ENDBRANCH   1  29
BRANCH  10  34
ATOM     34  C   UNL     1       5.770   0.842   0.999  0.00  0.00    +0.339 C 
ATOM     35  O   UNL     1       6.275  -0.262   0.897  0.00  0.00    -0.245 OA
BRANCH  34  36
ATOM     36  O   UNL     1       6.555   1.935   1.110  0.00  0.00    -0.462 OA
BRANCH  36  37
ATOM     37  C   UNL     1       7.968   1.724   1.100  0.00  0.00    +0.229 C 
ATOM     38  C   UNL     1       8.686   3.068   1.235  0.00  0.00    +0.048 C 
ENDBRANCH  36  37
ENDBRANCH  34  36
ENDBRANCH  10  34
TORSDOF 9
