REMARK  Name = ZINC36499687
REMARK  9 active torsions:
REMARK  status: ('A' for Active; 'I' for Inactive)
REMARK    1  A    between atoms: C_4  and  O_37
REMARK    2  A    between atoms: C_5  and  C_7
REMARK    3  A    between atoms: C_7  and  C_9
REMARK    4  A    between atoms: C_7  and  N_18
REMARK    5  A    between atoms: N_11  and  C_12
REMARK    6  A    between atoms: N_18  and  C_19
REMARK    7  A    between atoms: C_19  and  C_20
REMARK    8  A    between atoms: C_25  and  C_27
REMARK    9  A    between atoms: C_29  and  N_34
REMARK                            x       y       z     vdW  Elec       q    Type
REMARK                         _______ _______ _______ _____ _____    ______ ____
ROOT
ATOM      1  C   UNL     1       0.816  -4.355  -1.037  0.00  0.00    +0.196 C 
ENDROOT
BRANCH   1   6
ATOM      2  C   UNL     1       2.630  -1.695   0.935  0.00  0.00    +0.001 A 
ATOM      3  C   UNL     1       3.951  -2.051   0.734  0.00  0.00    +0.004 A 
ATOM      4  C   UNL     1       4.261  -3.152  -0.040  0.00  0.00    +0.046 A 
ATOM      5  C   UNL     1       3.246  -3.901  -0.616  0.00  0.00    +0.122 A 
ATOM      6  C   UNL     1       1.921  -3.543  -0.412  0.00  0.00    +0.023 A 
ATOM      7  C   UNL     1       1.617  -2.441   0.363  0.00  0.00    +0.009 A 
BRANCH   5   8
ATOM      8  O   UNL     1       3.548  -4.985  -1.379  0.00  0.00    -0.506 OA
ATOM      9  H   UNL     1       3.607  -5.812  -0.881  0.00  0.00    +0.292 HD
ENDBRANCH   5   8
ENDBRANCH   1   6
BRANCH   1  10
ATOM     10  C   UNL     1       0.562  -3.863  -2.438  0.00  0.00    +0.238 C 
ATOM     11  O   UNL     1      -0.576  -3.718  -2.833  0.00  0.00    -0.273 OA
ATOM     12  N   UNL     1       1.599  -3.584  -3.253  0.00  0.00    -0.311 N 
ATOM     13  H   UNL     1       2.506  -3.614  -2.911  0.00  0.00    +0.149 HD
BRANCH  12  14
ATOM     14  C   UNL     1       1.356  -3.237  -4.655  0.00  0.00    +0.073 C 
ATOM     15  C   UNL     1       0.697  -4.421  -5.367  0.00  0.00    +0.022 C 
ATOM     16  C   UNL     1       0.444  -4.058  -6.832  0.00  0.00    +0.002 C 
ATOM     17  C   UNL     1       1.773  -3.728  -7.513  0.00  0.00    +0.000 C 
ATOM     18  C   UNL     1       2.432  -2.545  -6.802  0.00  0.00    +0.002 C 
ATOM     19  C   UNL     1       2.685  -2.907  -5.337  0.00  0.00    +0.022 C 
ENDBRANCH  12  14
ENDBRANCH   1  10
BRANCH   1  20
ATOM     20  N   UNL     1      -0.405  -4.211  -0.240  0.00  0.00    -0.274 N 
ATOM     21  C   UNL     1      -1.046  -3.026  -0.196  0.00  0.00    +0.252 C 
ATOM     22  O   UNL     1      -1.662  -2.705   0.802  0.00  0.00    -0.270 OA
BRANCH  21  23
ATOM     23  C   UNL     1      -0.998  -2.118  -1.358  0.00  0.00    +0.086 A 
ATOM     24  C   UNL     1       0.212  -1.879  -2.014  0.00  0.00    +0.049 A 
ATOM     25  C   UNL     1       0.249  -1.030  -3.098  0.00  0.00    +0.127 A 
ATOM     26  C   UNL     1      -0.909  -0.412  -3.542  0.00  0.00    +0.036 A 
ATOM     27  C   UNL     1      -2.111  -0.639  -2.903  0.00  0.00    +0.054 A 
ATOM     28  C   UNL     1      -2.168  -1.496  -1.814  0.00  0.00    +0.191 A 
ATOM     29  O   UNL     1      -3.350  -1.725  -1.188  0.00  0.00    -0.287 OA
BRANCH  25  30
ATOM     30  N   UNL     1       1.532  -0.776  -3.792  0.00  0.00    +0.056 N 
ATOM     31  O   UNL     1       2.562  -1.216  -3.337  0.00  0.00    -0.126 OA
ATOM     32  O   UNL     1       1.549  -0.129  -4.813  0.00  0.00    -0.126 OA
ENDBRANCH  25  30
ENDBRANCH  21  23
BRANCH  20  33
ATOM     33  C   UNL     1      -0.930  -5.356   0.508  0.00  0.00    +0.183 C 
BRANCH  33  34
ATOM     34  C   UNL     1      -1.798  -6.193  -0.397  0.00  0.00    +0.122 A 
ATOM     35  C   UNL     1      -1.400  -7.278  -1.084  0.00  0.00    +0.046 A 
ATOM     36  C   UNL     1      -2.527  -7.748  -1.797  0.00  0.00    +0.041 A 
ATOM     37  C   UNL     1      -3.546  -6.921  -1.502  0.00  0.00    +0.195 A 
ATOM     38  O   UNL     1      -3.100  -5.984  -0.650  0.00  0.00    -0.466 OA
ENDBRANCH  33  34
ENDBRANCH  20  33
ENDBRANCH   1  20
TORSDOF 9
