REMARK  Name = ZINC38976270
REMARK  4 active torsions:
REMARK  status: ('A' for Active; 'I' for Inactive)
REMARK    1  A    between atoms: C_3  and  C_10
REMARK    2  A    between atoms: C_5  and  N_7
REMARK    3  A    between atoms: N_11  and  N_12
REMARK    4  A    between atoms: C_13  and  C_19
REMARK                            x       y       z     vdW  Elec       q    Type
REMARK                         _______ _______ _______ _____ _____    ______ ____
ROOT
ATOM      1  N   UNL     1       4.841   4.174   0.083  0.00  0.00    -0.175 N 
ATOM      2  C   UNL     1       5.005   5.632   0.213  0.00  0.00    +0.230 C 
ATOM      3  N   UNL     1       6.463   5.823   0.274  0.00  0.00    -0.242 N 
ATOM      4  N   UNL     1       7.003   4.658   0.191  0.00  0.00    -0.160 NA
ATOM      5  C   UNL     1       6.085   3.671   0.083  0.00  0.00    +0.206 C 
ATOM      6  S   UNL     1       6.448   2.055  -0.036  0.00  0.00    -0.011 SA
ATOM      7  H   UNL     1       6.930   6.669   0.361  0.00  0.00    +0.170 HD
ENDROOT
BRANCH   2   8
ATOM      8  C   UNL     1       4.341   6.135   1.496  0.00  0.00    +0.197 C 
ATOM      9  C   UNL     1       4.454   7.641   1.604  0.00  0.00    -0.017 C 
ATOM     10  C   UNL     1       3.195   8.076   1.606  0.00  0.00    +0.065 C 
ATOM     11  C   UNL     1       3.174   9.591   1.711  0.00  0.00    +0.057 C 
ATOM     12  C   UNL     1       4.585   9.980   2.204  0.00  0.00    +0.011 C 
ATOM     13  C   UNL     1       5.430   8.784   1.708  0.00  0.00    +0.035 C 
ATOM     14  N   UNL     1       2.340   7.021   1.514  0.00  0.00    -0.158 NA
ATOM     15  N   UNL     1       2.885   5.915   1.451  0.00  0.00    -0.176 NA
ENDBRANCH   2   8
BRANCH   1  17
ATOM     16  C   UNL     1       3.658   2.171  -0.237  0.00  0.00    +0.138 C 
ATOM     17  N   UNL     1       3.638   3.462  -0.015  0.00  0.00    -0.184 NA
BRANCH  16  20
ATOM     18  C   UNL     1       0.013   1.329   0.006  0.00  0.00    +0.003 A 
ATOM     19  C   UNL     1       1.185   2.054   0.006  0.00  0.00    +0.009 A 
ATOM     20  C   UNL     1       2.404   1.407  -0.234  0.00  0.00    -0.003 A 
ATOM     21  C   UNL     1       2.421   0.026  -0.471  0.00  0.00    +0.042 A 
ATOM     22  C   UNL     1       1.239  -0.683  -0.467  0.00  0.00    +0.127 A 
ATOM     23  C   UNL     1       0.038  -0.035  -0.229  0.00  0.00    +0.033 A 
BRANCH  22  24
ATOM     24  N   UNL     1       1.254  -2.142  -0.717  0.00  0.00    +0.056 N 
ATOM     25  O   UNL     1       2.394  -2.760  -0.943  0.00  0.00    -0.126 OA
ATOM     26  O   UNL     1       0.126  -2.822  -0.713  0.00  0.00    -0.126 OA
ENDBRANCH  22  24
ENDBRANCH  16  20
ENDBRANCH   1  17
TORSDOF 4
