REMARK  Name = ZINC50652207
REMARK  8 active torsions:
REMARK  status: ('A' for Active; 'I' for Inactive)
REMARK    1  A    between atoms: C_1  and  C_2
REMARK    2  A    between atoms: C_2  and  C_3
REMARK    3  A    between atoms: C_2  and  C_4
REMARK    4  A    between atoms: C_4  and  N_5
REMARK    5  A    between atoms: N_5  and  C_6
REMARK    6  A    between atoms: N_5  and  S_7
REMARK    7  A    between atoms: S_7  and  C_10
REMARK    8  A    between atoms: C_11  and  N_19
REMARK                            x       y       z     vdW  Elec       q    Type
REMARK                         _______ _______ _______ _____ _____    ______ ____
ROOT
ATOM      1  C   UNL     1      -1.357   2.585  -1.519  0.00  0.00    +0.220 A 
ATOM      2  C   UNL     1      -0.520   3.140  -0.605  0.00  0.00    +0.163 A 
ATOM      3  N   UNL     1       0.320   3.962  -1.244  0.00  0.00    -0.211 NA
ATOM      4  C   UNL     1       0.043   3.947  -2.542  0.00  0.00    +0.141 A 
ATOM      5  N   UNL     1      -1.003   3.086  -2.745  0.00  0.00    -0.282 N 
ATOM      6  C   UNL     1      -1.491   2.876  -4.002  0.00  0.00    +0.094 A 
ATOM      7  C   UNL     1      -0.950   3.509  -5.064  0.00  0.00    +0.018 A 
ATOM      8  C   UNL     1       0.125   4.394  -4.888  0.00  0.00    +0.005 A 
ATOM      9  C   UNL     1       0.616   4.619  -3.639  0.00  0.00    +0.047 A 
ENDROOT
BRANCH   1  10
ATOM     10  S   UNL     1      -2.650   1.433  -1.191  0.00  0.00    +0.080 S 
ATOM     11  O   UNL     1      -3.536   1.491  -2.300  0.00  0.00    -0.151 OA
ATOM     12  O   UNL     1      -3.080   1.674   0.142  0.00  0.00    -0.151 OA
BRANCH  10  13
ATOM     13  N   UNL     1      -1.973  -0.078  -1.204  0.00  0.00    -0.178 NA
ATOM     14  C   UNL     1      -1.979  -0.873  -2.434  0.00  0.00    +0.131 C 
BRANCH  13  15
ATOM     15  C   UNL     1      -1.368  -0.620   0.015  0.00  0.00    +0.112 C 
BRANCH  15  17
ATOM     16  C   UNL     1      -2.772  -2.685  -0.062  0.00  0.00    +0.008 C 
ATOM     17  C   UNL     1      -2.404  -1.456   0.770  0.00  0.00    -0.001 C 
ATOM     18  C   UNL     1      -1.818  -1.905   2.111  0.00  0.00    +0.008 C 
ENDBRANCH  15  17
ENDBRANCH  13  15
ENDBRANCH  10  13
ENDBRANCH   1  10
BRANCH   2  19
ATOM     19  N   UNL     1      -0.535   2.895   0.774  0.00  0.00    -0.340 N 
ATOM     20  H   UNL     1      -1.131   2.223   1.141  0.00  0.00    +0.144 HD
ATOM     21  H   UNL     1       0.051   3.396   1.362  0.00  0.00    +0.144 HD
ENDBRANCH   2  19
TORSDOF 5
