REMARK  Name = ZINC09556370
REMARK  5 active torsions:
REMARK  status: ('A' for Active; 'I' for Inactive)
REMARK    1  A    between atoms: C_1  and  C_2
REMARK    2  A    between atoms: C_2  and  C_3
REMARK    3  A    between atoms: C_3  and  S_4
REMARK    4  A    between atoms: S_4  and  C_5
REMARK    5  A    between atoms: C_18  and  C_21
REMARK                            x       y       z     vdW  Elec       q    Type
REMARK                         _______ _______ _______ _____ _____    ______ ____
ROOT
ATOM      1  C   UNL     1       0.758   7.480   2.105  0.00  0.00    +0.212 A 
ATOM      2  N   UNL     1       0.424   6.215   1.867  0.00  0.00    -0.184 NA
ATOM      3  C   UNL     1       1.373   5.336   1.594  0.00  0.00    +0.248 A 
ATOM      4  C   UNL     1       2.716   5.775   1.559  0.00  0.00    +0.156 A 
ATOM      5  N   UNL     1       2.981   7.048   1.810  0.00  0.00    -0.141 NA
ATOM      6  N   UNL     1       2.025   7.871   2.074  0.00  0.00    -0.122 NA
ATOM      7  C   UNL     1       3.791   4.813   1.240  0.00  0.00    +0.029 A 
ATOM      8  C   UNL     1       4.944   4.729   2.010  0.00  0.00    +0.027 A 
ATOM      9  C   UNL     1       5.932   3.825   1.670  0.00  0.00    +0.019 A 
ATOM     10  C   UNL     1       5.780   3.002   0.567  0.00  0.00    +0.017 A 
ATOM     11  C   UNL     1       4.634   3.071  -0.205  0.00  0.00    +0.025 A 
ATOM     12  C   UNL     1       3.634   3.966   0.127  0.00  0.00    +0.040 A 
ATOM     13  N   UNL     1       2.448   4.037  -0.608  0.00  0.00    -0.305 N 
ATOM     14  C   UNL     1       1.207   3.577   0.009  0.00  0.00    +0.294 C 
ATOM     15  O   UNL     1       1.083   4.036   1.351  0.00  0.00    -0.449 OA
ATOM     16 BR   UNL     1       7.502   3.710   2.719  0.00  0.00    -0.050 Br
ATOM     17  H   UNL     1       2.449   4.386  -1.513  0.00  0.00    +0.150 HD
ENDROOT
BRANCH  14  18
ATOM     18  C   UNL     1       1.185   2.070   0.002  0.00  0.00    +0.014 A 
ATOM     19  C   UNL     1       0.645   1.363   1.065  0.00  0.00    +0.028 A 
ATOM     20  C   UNL     1       0.641  -0.019   1.023  0.00  0.00    +0.111 A 
ATOM     21  N   UNL     1       1.143  -0.663  -0.012  0.00  0.00    -0.263 NA
ATOM     22  C   UNL     1       1.665  -0.024  -1.040  0.00  0.00    +0.111 A 
ATOM     23  C   UNL     1       1.704   1.358  -1.069  0.00  0.00    +0.028 A 
ENDBRANCH  14  18
BRANCH   1  24
ATOM     24  S   UNL     1      -0.503   8.655   2.469  0.00  0.00    -0.084 S 
BRANCH  24  25
ATOM     25  C   UNL     1       0.506  10.140   2.693  0.00  0.00    +0.077 C 
BRANCH  25  27
ATOM     26  C   UNL     1       0.455  12.583   3.216  0.00  0.00    +0.004 C 
ATOM     27  C   UNL     1      -0.399  11.328   3.026  0.00  0.00    +0.008 C 
ENDBRANCH  25  27
ENDBRANCH  24  25
ENDBRANCH   1  24
TORSDOF 4
