REMARK  Name = ZINC24964440
REMARK  7 active torsions:
REMARK  status: ('A' for Active; 'I' for Inactive)
REMARK    1  A    between atoms: C_4  and  C_7
REMARK    2  A    between atoms: C_7  and  C_9
REMARK    3  A    between atoms: C_7  and  C_28
REMARK    4  A    between atoms: C_9  and  N_10
REMARK    5  A    between atoms: C_11  and  C_13
REMARK    6  A    between atoms: N_18  and  S_20
REMARK    7  A    between atoms: S_20  and  C_23
REMARK                            x       y       z     vdW  Elec       q    Type
REMARK                         _______ _______ _______ _____ _____    ______ ____
ROOT
ATOM      1  C   UNL     1       1.944  -2.680  -1.279  0.00  0.00    +0.117 C 
ENDROOT
BRANCH   1   2
ATOM      2  N   UNL     1       1.171  -2.297  -2.463  0.00  0.00    -0.314 N 
ATOM      3  C   UNL     1       1.612  -2.629  -3.692  0.00  0.00    +0.217 C 
ATOM      4  O   UNL     1       2.649  -3.244  -3.819  0.00  0.00    -0.275 OA
ATOM      5  H   UNL     1       0.230  -1.739  -2.348  0.00  0.00    +0.149 HD
BRANCH   3   6
ATOM      6  C   UNL     1       0.816  -2.235  -4.910  0.00  0.00    +0.091 C 
ATOM      7  C   UNL     1      -0.577  -2.864  -4.835  0.00  0.00    +0.015 C 
ATOM      8  C   UNL     1      -1.397  -2.438  -6.055  0.00  0.00    +0.018 C 
ATOM      9  C   UNL     1      -0.708  -2.939  -7.329  0.00  0.00    +0.109 C 
ATOM     10  N   UNL     1       0.680  -2.457  -7.336  0.00  0.00    -0.175 NA
ATOM     11  C   UNL     1       1.530  -2.733  -6.171  0.00  0.00    +0.122 C 
BRANCH  10  12
ATOM     12  S   UNL     1       1.274  -1.617  -8.634  0.00  0.00    +0.067 S 
ATOM     13  O   UNL     1       2.685  -1.783  -8.613  0.00  0.00    -0.152 OA
ATOM     14  O   UNL     1       0.480  -1.985  -9.754  0.00  0.00    -0.152 OA
BRANCH  12  15
ATOM     15  C   UNL     1       0.963   0.091  -8.336  0.00  0.00    +0.143 A 
ATOM     16  C   UNL     1       1.744   1.005  -7.710  0.00  0.00    +0.036 A 
ATOM     17  C   UNL     1       1.291   2.305  -7.590  0.00  0.00    +0.010 A 
ATOM     18  C   UNL     1       0.079   2.629  -8.104  0.00  0.00    +0.047 A 
ATOM     19  S   UNL     1      -0.460   1.071  -8.788  0.00  0.00    -0.077 S 
ENDBRANCH  12  15
ENDBRANCH  10  12
ENDBRANCH   3   6
ENDBRANCH   1   2
BRANCH   1  20
ATOM     20  C   UNL     1       1.229  -2.186  -0.021  0.00  0.00    +0.068 C 
BRANCH  20  21
ATOM     21  C   UNL     1       1.958  -2.684   1.200  0.00  0.00    -0.013 A 
ATOM     22  C   UNL     1       3.236  -2.431   1.526  0.00  0.00    +0.088 A 
ATOM     23  N   UNL     1       3.547  -3.049   2.707  0.00  0.00    -0.360 N 
ATOM     24  H   UNL     1       4.556  -2.945   3.132  0.00  0.00    +0.165 HD
ATOM     25  C   UNL     1       2.453  -3.741   3.176  0.00  0.00    +0.047 A 
ATOM     26  C   UNL     1       1.410  -3.542   2.253  0.00  0.00    +0.003 A 
ATOM     27  C   UNL     1       0.164  -4.133   2.473  0.00  0.00    +0.010 A 
ATOM     28  C   UNL     1      -0.035  -4.902   3.585  0.00  0.00    +0.001 A 
ATOM     29  C   UNL     1       0.991  -5.100   4.498  0.00  0.00    +0.002 A 
ATOM     30  C   UNL     1       2.228  -4.527   4.301  0.00  0.00    +0.026 A 
ENDBRANCH  20  21
BRANCH  20  34
ATOM     31  C   UNL     1       1.171   2.086   0.002  0.00  0.00    +0.000 A 
ATOM     32  C   UNL     1      -0.017   1.378   0.010  0.00  0.00    +0.000 A 
ATOM     33  C   UNL     1       0.002  -0.004   0.002  0.00  0.00    +0.004 A 
ATOM     34  C   UNL     1       1.208  -0.679  -0.013  0.00  0.00    -0.038 A 
ATOM     35  C   UNL     1       2.396   0.029  -0.021  0.00  0.00    +0.004 A 
ATOM     36  C   UNL     1       2.377   1.411  -0.015  0.00  0.00    +0.000 A 
ENDBRANCH  20  34
ENDBRANCH   1  20
TORSDOF 7
