REMARK  Name = ZINC37388352
REMARK  2 active torsions:
REMARK  status: ('A' for Active; 'I' for Inactive)
REMARK    1  A    between atoms: C_1  and  C_2
REMARK    2  A    between atoms: C_8  and  C_12
REMARK                            x       y       z     vdW  Elec       q    Type
REMARK                         _______ _______ _______ _____ _____    ______ ____
ROOT
ATOM      1  C   UNL     1      -0.019   1.526   0.010  0.00  0.00    +0.044 C 
ATOM      2  C   UNL     1       0.002  -0.004   0.002  0.00  0.00    +0.082 C 
ATOM      3  C   UNL     1       0.717  -0.589  -1.228  0.00  0.00    +0.046 C 
ATOM      4  C   UNL     1       2.146  -0.802  -0.676  0.00  0.00    +0.099 C 
ATOM      5  C   UNL     1       1.949  -0.971   0.812  0.00  0.00    +0.217 C 
ATOM      6  O   UNL     1       2.791  -1.391   1.576  0.00  0.00    -0.276 OA
ATOM      7  N   UNL     1       0.704  -0.590   1.174  0.00  0.00    -0.275 N 
ATOM      8  C   UNL     1      -0.185  -0.601   2.348  0.00  0.00    +0.173 C 
ATOM      9  C   UNL     1      -1.585  -1.150   1.979  0.00  0.00    +0.103 C 
ATOM     10  S   UNL     1      -1.669  -0.750   0.182  0.00  0.00    -0.133 S 
ENDROOT
BRANCH   8  11
ATOM     11  C   UNL     1       0.420  -1.473   3.418  0.00  0.00    +0.232 C 
ATOM     12  O   UNL     1       1.481  -2.025   3.222  0.00  0.00    -0.274 OA
ATOM     13  N   UNL     1      -0.219  -1.637   4.594  0.00  0.00    -0.328 N 
ATOM     14  H   UNL     1      -1.068  -1.195   4.751  0.00  0.00    +0.145 HD
ATOM     15  H   UNL     1       0.171  -2.198   5.283  0.00  0.00    +0.145 HD
ENDBRANCH   8  11
TORSDOF 1
