REMARK  Name = ZINC20240925
REMARK  10 active torsions:
REMARK  status: ('A' for Active; 'I' for Inactive)
REMARK    1  A    between atoms: C_1  and  C_2
REMARK    2  A    between atoms: C_2  and  C_3
REMARK    3  A    between atoms: C_6  and  C_9
REMARK    4  A    between atoms: C_11  and  C_15
REMARK    5  A    between atoms: C_12  and  C_14
REMARK    6  A    between atoms: C_15  and  N_16
REMARK    7  A    between atoms: C_20  and  C_23
REMARK    8  A    between atoms: N_25  and  C_26
REMARK    9  A    between atoms: C_26  and  C_27
REMARK   10  A    between atoms: C_27  and  C_28
REMARK                            x       y       z     vdW  Elec       q    Type
REMARK                         _______ _______ _______ _____ _____    ______ ____
ROOT
ATOM      1  N   UNL     1      -1.609  -1.194  -1.374  0.00  0.00    +0.384 N 
ATOM      2  C   UNL     1      -0.585  -1.983  -2.070  0.00  0.00    -0.078 C 
ATOM      3  C   UNL     1      -1.101  -2.385  -3.454  0.00  0.00    -0.018 C 
ATOM      4  C   UNL     1      -1.433  -1.123  -4.255  0.00  0.00    +0.009 C 
ATOM      5  C   UNL     1      -2.466  -0.295  -3.486  0.00  0.00    +0.058 C 
ATOM      6  C   UNL     1      -1.910   0.046  -2.101  0.00  0.00    -0.066 C 
ATOM      7  H   UNL     1      -2.530  -1.795  -1.341  0.00  0.00    -0.081 HD
ENDROOT
BRANCH   5   8
ATOM      8  C   UNL     1      -2.755   0.977  -4.240  0.00  0.00    +0.214 C 
ATOM      9  O   UNL     1      -2.540   2.052  -3.721  0.00  0.00    -0.276 OA
ATOM     10  N   UNL     1      -3.251   0.920  -5.492  0.00  0.00    -0.315 N 
ATOM     11  H   UNL     1      -3.446  -0.055  -5.963  0.00  0.00    +0.149 HD
BRANCH  10  12
ATOM     12  C   UNL     1      -3.532   2.157  -6.225  0.00  0.00    +0.109 C 
BRANCH  12  13
ATOM     13  C   UNL     1      -4.084   1.814  -7.611  0.00  0.00    +0.054 C 
BRANCH  13  14
ATOM     14  C   UNL     1      -4.372   3.086  -8.365  0.00  0.00    -0.046 A 
ATOM     15  C   UNL     1      -5.620   3.675  -8.274  0.00  0.00    +0.005 A 
ATOM     16  C   UNL     1      -5.884   4.845  -8.962  0.00  0.00    +0.020 A 
ATOM     17  C   UNL     1      -4.902   5.420  -9.749  0.00  0.00    +0.041 A 
ATOM     18  C   UNL     1      -3.656   4.827  -9.844  0.00  0.00    +0.020 A 
ATOM     19  C   UNL     1      -3.392   3.661  -9.152  0.00  0.00    +0.005 A 
ATOM     20 CL   UNL     1      -5.235   6.886 -10.618  0.00  0.00    -0.084 Cl
ENDBRANCH  13  14
ENDBRANCH  12  13
ENDBRANCH  10  12
ENDBRANCH   5   8
BRANCH   1  21
ATOM     21  C   UNL     1      -1.204  -0.908   0.009  0.00  0.00    -0.019 C 
BRANCH  21  24
ATOM     22  C   UNL     1       1.221   1.774  -0.000  0.00  0.00    +0.228 A 
ATOM     23  N   UNL     1      -0.016   1.337   0.009  0.00  0.00    -0.216 NA
ATOM     24  C   UNL     1       0.002  -0.004   0.002  0.00  0.00    +0.066 A 
ATOM     25  C   UNL     1       1.288  -0.399  -0.012  0.00  0.00    +0.124 A 
ATOM     26  O   UNL     1       2.048   0.714  -0.014  0.00  0.00    -0.440 OA
ATOM     27  C   UNL     1       1.786  -1.821  -0.025  0.00  0.00    +0.088 C 
BRANCH  22  31
ATOM     28  C   UNL     1       2.414   5.851   0.009  0.00  0.00    -0.048 A 
ATOM     29  C   UNL     1       3.372   4.853  -0.005  0.00  0.00    +0.004 A 
ATOM     30  C   UNL     1       2.991   3.527  -0.008  0.00  0.00    +0.013 A 
ATOM     31  C   UNL     1       1.636   3.193   0.004  0.00  0.00    +0.037 A 
ATOM     32  C   UNL     1       0.675   4.204   0.012  0.00  0.00    +0.013 A 
ATOM     33  C   UNL     1       1.069   5.526   0.021  0.00  0.00    +0.004 A 
BRANCH  28  35
ATOM     34  C   UNL     1       2.966   7.794  -1.429  0.00  0.00    +0.009 C 
ATOM     35  C   UNL     1       2.837   7.297   0.013  0.00  0.00    +0.032 C 
ENDBRANCH  28  35
ENDBRANCH  22  31
ENDBRANCH  21  24
ENDBRANCH   1  21
TORSDOF 8
