REMARK  Name = ZINC35911749
REMARK  13 active torsions:
REMARK  status: ('A' for Active; 'I' for Inactive)
REMARK    1  A    between atoms: C_1  and  C_2
REMARK    2  A    between atoms: C_5  and  N_9
REMARK    3  A    between atoms: C_6  and  C_8
REMARK    4  A    between atoms: C_10  and  C_34
REMARK    5  A    between atoms: C_12  and  C_14
REMARK    6  A    between atoms: C_15  and  C_33
REMARK    7  A    between atoms: C_21  and  C_24
REMARK    8  A    between atoms: C_24  and  C_25
REMARK    9  A    between atoms: N_27  and  C_28
REMARK   10  A    between atoms: C_28  and  C_29
REMARK   11  A    between atoms: C_29  and  C_30
REMARK   12  A    between atoms: C_30  and  C_31
REMARK   13  A    between atoms: C_30  and  C_32
REMARK                            x       y       z     vdW  Elec       q    Type
REMARK                         _______ _______ _______ _____ _____    ______ ____
ROOT
ATOM      1  C   UNL     1       0.635  -7.222   1.942  0.00  0.00    +0.088 A 
ATOM      2  C   UNL     1       0.658  -7.016   3.317  0.00  0.00    +0.055 A 
ATOM      3  N   UNL     1       0.661  -8.074   4.120  0.00  0.00    -0.227 NA
ATOM      4  C   UNL     1       0.642  -9.294   3.639  0.00  0.00    +0.180 A 
ATOM      5  N   UNL     1       0.618  -9.593   2.303  0.00  0.00    -0.258 N 
ATOM      6  C   UNL     1       0.609  -8.534   1.439  0.00  0.00    +0.268 A 
ATOM      7  O   UNL     1       0.583  -8.728   0.234  0.00  0.00    -0.266 OA
ATOM      8  C   UNL     1       0.601 -10.926   1.967  0.00  0.00    +0.044 A 
ATOM      9  C   UNL     1       0.608 -11.872   2.905  0.00  0.00    +0.071 A 
ATOM     10  S   UNL     1       0.639 -10.901   4.404  0.00  0.00    -0.057 S 
ATOM     11  C   UNL     1       0.681  -5.621   3.885  0.00  0.00    +0.066 C 
ENDROOT
BRANCH   1  15
ATOM     12  N   UNL     1       0.641  -4.024   0.191  0.00  0.00    -0.236 N 
ATOM     13  C   UNL     1       0.610  -4.871  -0.871  0.00  0.00    +0.042 A 
ATOM     14  C   UNL     1       0.603  -6.135  -0.394  0.00  0.00    +0.053 A 
ATOM     15  C   UNL     1       0.631  -6.066   1.014  0.00  0.00    +0.100 A 
ATOM     16  N   UNL     1       0.660  -4.796   1.360  0.00  0.00    -0.166 NA
ATOM     17  C   UNL     1       0.586  -4.472  -2.324  0.00  0.00    +0.066 C 
BRANCH  12  22
ATOM     18  C   UNL     1       0.707   1.644  -0.068  0.00  0.00    +0.044 C 
ATOM     19  C   UNL     1       0.690   0.139   0.001  0.00  0.00    -0.050 A 
ATOM     20  C   UNL     1       1.555  -0.598  -0.787  0.00  0.00    +0.005 A 
ATOM     21  C   UNL     1       1.542  -1.978  -0.726  0.00  0.00    +0.028 A 
ATOM     22  C   UNL     1       0.658  -2.625   0.127  0.00  0.00    +0.069 A 
ATOM     23  C   UNL     1      -0.209  -1.883   0.918  0.00  0.00    -0.025 A 
ATOM     24  C   UNL     1      -0.187  -0.503   0.856  0.00  0.00    +0.008 A 
ATOM     25  C   UNL     1      -1.170  -2.581   1.845  0.00  0.00    +0.046 C 
ENDBRANCH  12  22
ENDBRANCH   1  15
BRANCH   8  26
ATOM     26  C   UNL     1       0.574 -11.323   0.514  0.00  0.00    +0.150 C 
BRANCH  26  27
ATOM     27  C   UNL     1      -0.850 -11.324   0.020  0.00  0.00    +0.219 C 
ATOM     28  O   UNL     1      -1.753 -11.031   0.773  0.00  0.00    -0.275 OA
ATOM     29  N   UNL     1      -1.119 -11.651  -1.260  0.00  0.00    -0.315 N 
ATOM     30  H   UNL     1      -0.396 -11.886  -1.863  0.00  0.00    +0.149 HD
BRANCH  29  31
ATOM     31  C   UNL     1      -2.503 -11.652  -1.740  0.00  0.00    +0.104 C 
BRANCH  31  32
ATOM     32  C   UNL     1      -2.530 -12.055  -3.216  0.00  0.00    +0.022 C 
BRANCH  32  33
ATOM     33  C   UNL     1      -3.975 -12.056  -3.718  0.00  0.00    -0.016 C 
ATOM     34  C   UNL     1      -4.530 -10.631  -3.678  0.00  0.00    +0.007 C 
ATOM     35  C   UNL     1      -4.016 -12.579  -5.155  0.00  0.00    +0.007 C 
ENDBRANCH  32  33
ENDBRANCH  31  32
ENDBRANCH  29  31
ENDBRANCH  26  27
ENDBRANCH   8  26
TORSDOF 7
