REMARK  Name = ZINC13732804
REMARK  5 active torsions:
REMARK  status: ('A' for Active; 'I' for Inactive)
REMARK    1  A    between atoms: C_1  and  C_2
REMARK    2  A    between atoms: C_3  and  C_22
REMARK    3  A    between atoms: C_4  and  C_15
REMARK    4  A    between atoms: C_9  and  C_12
REMARK    5  A    between atoms: N_24  and  C_25
REMARK                            x       y       z     vdW  Elec       q    Type
REMARK                         _______ _______ _______ _____ _____    ______ ____
ROOT
ATOM      1  C   UNL     1       0.782   0.845  -1.485  0.00  0.00    +0.066 C 
ATOM      2  C   UNL     1       0.394  -0.504  -0.936  0.00  0.00    +0.051 C 
ATOM      3  C   UNL     1      -0.845  -0.666  -0.385  0.00  0.00    +0.062 C 
ATOM      4  C   UNL     1      -1.193  -2.042   0.154  0.00  0.00    +0.162 C 
ATOM      5  N   UNL     1      -0.151  -3.071   0.028  0.00  0.00    -0.224 N 
ATOM      6  C   UNL     1       1.042  -2.723  -0.558  0.00  0.00    +0.152 C 
ATOM      7  N   UNL     1       1.263  -1.504  -1.007  0.00  0.00    -0.234 NA
ATOM      8  C   UNL     1       1.868  -3.939  -0.543  0.00  0.00    +0.093 C 
ATOM      9  C   UNL     1       1.108  -4.929   0.052  0.00  0.00    +0.104 C 
ATOM     10  N   UNL     1      -0.090  -4.416   0.392  0.00  0.00    -0.268 N 
ATOM     11  H   UNL     1      -0.804  -4.909   0.825  0.00  0.00    +0.170 HD
ENDROOT
BRANCH   4  12
ATOM     12  C   UNL     1      -1.532  -1.900   1.616  0.00  0.00    -0.021 A 
ATOM     13  C   UNL     1      -0.629  -1.310   2.481  0.00  0.00    +0.008 A 
ATOM     14  C   UNL     1      -0.939  -1.180   3.821  0.00  0.00    +0.038 A 
ATOM     15  C   UNL     1      -2.155  -1.640   4.298  0.00  0.00    +0.123 A 
ATOM     16  C   UNL     1      -3.059  -2.230   3.431  0.00  0.00    +0.038 A 
ATOM     17  C   UNL     1      -2.749  -2.355   2.090  0.00  0.00    +0.008 A 
ATOM     18  F   UNL     1      -2.459  -1.513   5.608  0.00  0.00    -0.205 F 
ENDBRANCH   4  12
BRANCH   8  19
ATOM     19  C   UNL     1       3.236  -4.076  -1.061  0.00  0.00    +0.246 C 
ATOM     20  O   UNL     1       3.811  -5.146  -0.985  0.00  0.00    -0.270 OA
ATOM     21  N   UNL     1       3.854  -3.017  -1.619  0.00  0.00    -0.325 N 
ATOM     22  H   UNL     1       3.396  -2.164  -1.679  0.00  0.00    +0.145 HD
ATOM     23  H   UNL     1       4.758  -3.107  -1.961  0.00  0.00    +0.145 HD
ENDBRANCH   8  19
BRANCH   3  24
ATOM     24  C   UNL     1      -1.762   0.399  -0.320  0.00  0.00    +0.248 C 
ATOM     25  O   UNL     1      -1.415   1.522  -0.642  0.00  0.00    -0.270 OA
ATOM     26  N   UNL     1      -3.023   0.178   0.100  0.00  0.00    -0.282 N 
ATOM     27  H   UNL     1      -3.284  -0.704   0.407  0.00  0.00    +0.155 HD
BRANCH  26  28
ATOM     28  C   UNL     1      -3.955   1.220   0.093  0.00  0.00    +0.034 A 
ATOM     29  C   UNL     1      -3.549   2.520   0.368  0.00  0.00    +0.023 A 
ATOM     30  C   UNL     1      -4.472   3.547   0.359  0.00  0.00    +0.002 A 
ATOM     31  C   UNL     1      -5.800   3.283   0.078  0.00  0.00    +0.000 A 
ATOM     32  C   UNL     1      -6.208   1.990  -0.197  0.00  0.00    +0.002 A 
ATOM     33  C   UNL     1      -5.289   0.960  -0.196  0.00  0.00    +0.023 A 
ENDBRANCH  26  28
ENDBRANCH   3  24
TORSDOF 4
