REMARK  Name = ZINC15018377
REMARK  8 active torsions:
REMARK  status: ('A' for Active; 'I' for Inactive)
REMARK    1  A    between atoms: C_1  and  C_2
REMARK    2  A    between atoms: C_2  and  C_3
REMARK    3  A    between atoms: C_3  and  C_4
REMARK    4  A    between atoms: C_4  and  S_5
REMARK    5  A    between atoms: S_5  and  C_6
REMARK    6  A    between atoms: C_19  and  C_22
REMARK    7  A    between atoms: C_25  and  C_27
REMARK    8  A    between atoms: C_30  and  N_33
REMARK                            x       y       z     vdW  Elec       q    Type
REMARK                         _______ _______ _______ _____ _____    ______ ____
ROOT
ATOM      1  C   UNL     1      -5.151   1.617   4.061  0.00  0.00    +0.212 A 
ATOM      2  N   UNL     1      -6.402   1.393   4.453  0.00  0.00    -0.184 NA
ATOM      3  C   UNL     1      -6.827   1.916   5.591  0.00  0.00    +0.248 A 
ATOM      4  C   UNL     1      -5.937   2.712   6.346  0.00  0.00    +0.156 A 
ATOM      5  N   UNL     1      -4.704   2.898   5.898  0.00  0.00    -0.141 NA
ATOM      6  N   UNL     1      -4.329   2.363   4.788  0.00  0.00    -0.122 NA
ATOM      7  C   UNL     1      -6.396   3.321   7.612  0.00  0.00    +0.028 A 
ATOM      8  C   UNL     1      -5.640   3.240   8.775  0.00  0.00    +0.012 A 
ATOM      9  C   UNL     1      -6.099   3.834   9.934  0.00  0.00    +0.001 A 
ATOM     10  C   UNL     1      -7.306   4.511   9.944  0.00  0.00    +0.002 A 
ATOM     11  C   UNL     1      -8.071   4.595   8.795  0.00  0.00    +0.024 A 
ATOM     12  C   UNL     1      -7.630   3.999   7.629  0.00  0.00    +0.040 A 
ATOM     13  N   UNL     1      -8.394   4.033   6.458  0.00  0.00    -0.303 N 
ATOM     14  C   UNL     1      -8.997   2.795   5.976  0.00  0.00    +0.329 C 
ATOM     15  O   UNL     1      -8.087   1.703   6.040  0.00  0.00    -0.445 OA
ATOM     16  H   UNL     1      -8.520   4.865   5.975  0.00  0.00    +0.150 HD
ENDROOT
BRANCH  14  17
ATOM     17  C   UNL     1     -10.205   2.476   6.820  0.00  0.00    +0.165 A 
ATOM     18  C   UNL     1     -11.305   1.821   6.401  0.00  0.00    +0.051 A 
ATOM     19  C   UNL     1     -12.180   1.738   7.502  0.00  0.00    +0.050 A 
ATOM     20  C   UNL     1     -11.563   2.361   8.540  0.00  0.00    +0.135 A 
ATOM     21  O   UNL     1     -10.366   2.804   8.112  0.00  0.00    -0.454 OA
BRANCH  20  22
ATOM     22  C   UNL     1     -12.112   2.525   9.903  0.00  0.00    +0.017 A 
ATOM     23  C   UNL     1     -13.376   2.021  10.216  0.00  0.00    +0.014 A 
ATOM     24  C   UNL     1     -13.879   2.171  11.491  0.00  0.00    +0.033 A 
ATOM     25  C   UNL     1     -13.139   2.831  12.456  0.00  0.00    +0.126 A 
ATOM     26  C   UNL     1     -11.889   3.339  12.152  0.00  0.00    +0.033 A 
ATOM     27  C   UNL     1     -11.371   3.189  10.882  0.00  0.00    +0.014 A 
BRANCH  25  28
ATOM     28  N   UNL     1     -13.688   2.994  13.822  0.00  0.00    +0.056 N 
ATOM     29  O   UNL     1     -13.039   3.575  14.673  0.00  0.00    -0.126 OA
ATOM     30  O   UNL     1     -14.789   2.549  14.093  0.00  0.00    -0.126 OA
ENDBRANCH  25  28
ENDBRANCH  20  22
ENDBRANCH  14  17
BRANCH   1  31
ATOM     31  S   UNL     1      -4.578   0.917   2.549  0.00  0.00    -0.084 S 
BRANCH  31  32
ATOM     32  C   UNL     1      -2.880   1.543   2.537  0.00  0.00    +0.077 C 
BRANCH  32  33
ATOM     33  C   UNL     1      -2.164   1.050   1.278  0.00  0.00    +0.011 C 
BRANCH  33  35
ATOM     34  C   UNL     1      -0.013   1.086   0.008  0.00  0.00    +0.004 C 
ATOM     35  C   UNL     1      -0.729   1.579   1.267  0.00  0.00    -0.003 C 
ENDBRANCH  33  35
ENDBRANCH  32  33
ENDBRANCH  31  32
ENDBRANCH   1  31
TORSDOF 7
