REMARK  Name = ZINC04045394
REMARK  10 active torsions:
REMARK  status: ('A' for Active; 'I' for Inactive)
REMARK    1  A    between atoms: C_1  and  C_2
REMARK    2  A    between atoms: C_2  and  N_3
REMARK    3  A    between atoms: N_3  and  C_4
REMARK    4  A    between atoms: N_3  and  C_6
REMARK    5  A    between atoms: C_4  and  C_5
REMARK    6  A    between atoms: C_9  and  C_13
REMARK    7  A    between atoms: C_10  and  O_12
REMARK    8  A    between atoms: N_14  and  N_15
REMARK    9  A    between atoms: C_16  and  C_18
REMARK   10  A    between atoms: C_20  and  C_26
REMARK                            x       y       z     vdW  Elec       q    Type
REMARK                         _______ _______ _______ _____ _____    ______ ____
ROOT
ATOM      1  N   UNL     1      -3.557  -0.496   2.400  0.00  0.00    -0.206 N 
ATOM      2  C   UNL     1      -3.247  -0.402   1.091  0.00  0.00    +0.245 C 
ATOM      3  O   UNL     1      -3.278   0.676   0.537  0.00  0.00    -0.273 OA
ATOM      4  H   UNL     1      -3.531  -1.358   2.843  0.00  0.00    +0.177 HD
ENDROOT
BRANCH   2   5
ATOM      5  C   UNL     1      -2.862  -1.637   0.318  0.00  0.00    +0.171 C 
ATOM      6  C   UNL     1      -1.363  -1.593  -0.061  0.00  0.00    +0.057 C 
ATOM      7  C   UNL     1      -1.414  -0.973  -1.475  0.00  0.00    +0.113 C 
ATOM      8  N   UNL     1      -2.745  -1.302  -1.999  0.00  0.00    -0.314 N 
ATOM      9  C   UNL     1      -3.580  -1.672  -1.014  0.00  0.00    +0.226 C 
ATOM     10  O   UNL     1      -4.740  -1.989  -1.169  0.00  0.00    -0.275 OA
ATOM     11  H   UNL     1      -2.990  -1.258  -2.937  0.00  0.00    +0.149 HD
BRANCH   6  12
ATOM     12  C   UNL     1      -0.593  -0.710   0.887  0.00  0.00    -0.042 A 
ATOM     13  C   UNL     1      -0.666   0.665   0.765  0.00  0.00    +0.004 A 
ATOM     14  C   UNL     1       0.037   1.475   1.637  0.00  0.00    +0.000 A 
ATOM     15  C   UNL     1       0.820   0.910   2.626  0.00  0.00    +0.000 A 
ATOM     16  C   UNL     1       0.897  -0.465   2.745  0.00  0.00    +0.000 A 
ATOM     17  C   UNL     1       0.191  -1.275   1.876  0.00  0.00    +0.004 A 
ENDBRANCH   6  12
ENDBRANCH   2   5
BRANCH   1  19
ATOM     18  C   UNL     1      -4.272   0.553   4.364  0.00  0.00    +0.142 C 
ATOM     19  N   UNL     1      -3.914   0.652   3.119  0.00  0.00    -0.188 NA
BRANCH  18  23
ATOM     20  C   UNL     1      -3.411  -2.989   6.545  0.00  0.00    +0.033 A 
ATOM     21  C   UNL     1      -2.682  -2.682   5.400  0.00  0.00    +0.024 A 
ATOM     22  C   UNL     1      -2.959  -1.534   4.690  0.00  0.00    +0.015 A 
ATOM     23  C   UNL     1      -3.974  -0.675   5.120  0.00  0.00    +0.036 A 
ATOM     24  C   UNL     1      -4.704  -0.983   6.277  0.00  0.00    +0.127 A 
ATOM     25  C   UNL     1      -4.421  -2.141   6.980  0.00  0.00    +0.069 A 
BRANCH  24  26
ATOM     26  O   UNL     1      -5.688  -0.151   6.704  0.00  0.00    -0.506 OA
ATOM     27  H   UNL     1      -6.572  -0.398   6.400  0.00  0.00    +0.292 HD
ENDBRANCH  24  26
BRANCH  20  28
ATOM     28  N   UNL     1      -3.126  -4.153   7.258  0.00  0.00    -0.330 N 
BRANCH  28  30
ATOM     29  C   UNL     1      -0.735  -4.636   7.446  0.00  0.00    +0.024 C 
ATOM     30  C   UNL     1      -2.060  -5.049   6.802  0.00  0.00    +0.102 C 
ENDBRANCH  28  30
BRANCH  28  31
ATOM     31  C   UNL     1      -3.891  -4.479   8.464  0.00  0.00    +0.102 C 
ATOM     32  C   UNL     1      -5.112  -5.319   8.082  0.00  0.00    +0.024 C 
ENDBRANCH  28  31
ENDBRANCH  20  28
ENDBRANCH  18  23
ENDBRANCH   1  19
TORSDOF 8
