REMARK  Name = ZINC16849043
REMARK  9 active torsions:
REMARK  status: ('A' for Active; 'I' for Inactive)
REMARK    1  A    between atoms: C_1  and  C_2
REMARK    2  A    between atoms: C_2  and  C_4
REMARK    3  A    between atoms: C_2  and  N_12
REMARK    4  A    between atoms: C_4  and  C_5
REMARK    5  A    between atoms: C_5  and  C_6
REMARK    6  A    between atoms: C_13  and  C_15
REMARK    7  A    between atoms: C_15  and  C_16
REMARK    8  A    between atoms: C_16  and  C_17
REMARK    9  A    between atoms: N_25  and  C_26
REMARK                            x       y       z     vdW  Elec       q    Type
REMARK                         _______ _______ _______ _____ _____    ______ ____
ROOT
ATOM      1  C   UNL     1       7.319  -6.912   1.375  0.00  0.00    +0.051 A 
ATOM      2  C   UNL     1       8.079  -7.955   0.960  0.00  0.00    +0.071 A 
ATOM      3  S   UNL     1       7.423  -9.269   1.978  0.00  0.00    -0.060 S 
ATOM      4  C   UNL     1       6.237  -8.326   2.828  0.00  0.00    +0.166 A 
ATOM      5  N   UNL     1       6.413  -7.126   2.309  0.00  0.00    -0.230 NA
ATOM      6  N   UNL     1       5.338  -8.732   3.807  0.00  0.00    -0.248 N 
ATOM      7  C   UNL     1       5.316 -10.017   4.211  0.00  0.00    +0.310 C 
ATOM      8  O   UNL     1       6.083 -10.822   3.719  0.00  0.00    -0.252 OA
ATOM      9  N   UNL     1       4.444 -10.410   5.161  0.00  0.00    -0.269 N 
ATOM     10  H   UNL     1       4.726  -8.089   4.199  0.00  0.00    +0.158 HD
ATOM     11  H   UNL     1       3.879  -9.756   5.601  0.00  0.00    +0.156 HD
ENDROOT
BRANCH   9  12
ATOM     12  C   UNL     1       4.354 -11.762   5.511  0.00  0.00    +0.035 A 
ATOM     13  C   UNL     1       3.127 -12.308   5.866  0.00  0.00    +0.023 A 
ATOM     14  C   UNL     1       3.040 -13.644   6.206  0.00  0.00    +0.002 A 
ATOM     15  C   UNL     1       4.175 -14.434   6.205  0.00  0.00    +0.000 A 
ATOM     16  C   UNL     1       5.399 -13.892   5.859  0.00  0.00    +0.002 A 
ATOM     17  C   UNL     1       5.491 -12.558   5.512  0.00  0.00    +0.023 A 
ENDBRANCH   9  12
BRANCH   1  18
ATOM     18  C   UNL     1       7.508  -5.538   0.785  0.00  0.00    +0.065 C 
BRANCH  18  19
ATOM     19  C   UNL     1       6.173  -5.030   0.237  0.00  0.00    +0.102 C 
BRANCH  19  21
ATOM     20  N   UNL     1       5.314  -3.007  -0.898  0.00  0.00    -0.313 N 
ATOM     21  C   UNL     1       6.362  -3.656  -0.352  0.00  0.00    +0.214 C 
ATOM     22  O   UNL     1       7.456  -3.134  -0.335  0.00  0.00    -0.276 OA
ATOM     23  H   UNL     1       4.439  -3.424  -0.912  0.00  0.00    +0.149 HD
BRANCH  20  25
ATOM     24  C   UNL     1       5.984  -1.798  -2.916  0.00  0.00    +0.028 C 
ATOM     25  C   UNL     1       5.498  -1.671  -1.471  0.00  0.00    +0.070 C 
BRANCH  25  26
ATOM     26  C   UNL     1       4.167  -0.917  -1.445  0.00  0.00    +0.026 C 
BRANCH  26  27
ATOM     27  C   UNL     1       3.742  -0.681   0.006  0.00  0.00    +0.037 C 
BRANCH  27  28
ATOM     28  C   UNL     1       2.431   0.061   0.031  0.00  0.00    -0.047 A 
ATOM     29  C   UNL     1       1.240  -0.640   0.040  0.00  0.00    +0.003 A 
ATOM     30  C   UNL     1       0.037   0.041   0.063  0.00  0.00    +0.000 A 
ATOM     31  C   UNL     1       0.025   1.423   0.076  0.00  0.00    +0.000 A 
ATOM     32  C   UNL     1       1.216   2.124   0.068  0.00  0.00    +0.000 A 
ATOM     33  C   UNL     1       2.419   1.444   0.045  0.00  0.00    +0.003 A 
ENDBRANCH  27  28
ENDBRANCH  26  27
ENDBRANCH  25  26
ENDBRANCH  20  25
ENDBRANCH  19  21
ENDBRANCH  18  19
ENDBRANCH   1  18
TORSDOF 8
