REMARK  Name = ZINC04631452
REMARK  11 active torsions:
REMARK  status: ('A' for Active; 'I' for Inactive)
REMARK    1  A    between atoms: C_1  and  C_2
REMARK    2  A    between atoms: C_2  and  C_3
REMARK    3  A    between atoms: C_2  and  O_4
REMARK    4  A    between atoms: O_4  and  C_5
REMARK    5  A    between atoms: C_8  and  C_11
REMARK    6  A    between atoms: C_14  and  C_25
REMARK    7  A    between atoms: C_20  and  N_24
REMARK    8  A    between atoms: C_21  and  C_22
REMARK    9  A    between atoms: C_25  and  C_26
REMARK   10  A    between atoms: C_25  and  C_27
REMARK   11  A    between atoms: C_25  and  C_28
REMARK                            x       y       z     vdW  Elec       q    Type
REMARK                         _______ _______ _______ _____ _____    ______ ____
ROOT
ATOM      1  C   UNL     1      -1.918  -0.888   6.040  0.00  0.00    +0.101 C 
ATOM      2  C   UNL     1      -1.624   0.246   6.989  0.00  0.00    +0.050 A 
ATOM      3  C   UNL     1      -1.999   1.532   6.928  0.00  0.00    +0.049 A 
ATOM      4  N   UNL     1      -1.486   2.161   8.011  0.00  0.00    -0.277 N 
ATOM      5  H   UNL     1      -1.595   3.099   8.230  0.00  0.00    +0.189 HD
ATOM      6  N   UNL     1      -0.769   1.218   8.764  0.00  0.00    -0.135 NA
ATOM      7  C   UNL     1      -0.849   0.069   8.156  0.00  0.00    +0.245 A 
ATOM      8  O   UNL     1      -0.323  -1.138   8.497  0.00  0.00    -0.421 OA
ATOM      9  C   UNL     1      -0.780  -2.222   7.840  0.00  0.00    +0.201 C 
ATOM     10  C   UNL     1      -1.518  -2.178   6.710  0.00  0.00    +0.098 C 
ENDROOT
BRANCH   1  14
ATOM     11  C   UNL     1       0.328  -0.375   2.441  0.00  0.00    +0.121 A 
ATOM     12  C   UNL     1      -1.031  -0.649   2.379  0.00  0.00    +0.046 A 
ATOM     13  C   UNL     1      -1.754  -0.815   3.544  0.00  0.00    +0.008 A 
ATOM     14  C   UNL     1      -1.126  -0.707   4.771  0.00  0.00    -0.034 A 
ATOM     15  C   UNL     1       0.228  -0.434   4.835  0.00  0.00    +0.008 A 
ATOM     16  C   UNL     1       0.957  -0.274   3.673  0.00  0.00    +0.046 A 
BRANCH  11  17
ATOM     17  O   UNL     1       1.042  -0.212   1.296  0.00  0.00    -0.489 OA
BRANCH  17  19
ATOM     18  C   UNL     1      -0.313   1.043  -0.262  0.00  0.00    +0.051 C 
ATOM     19  C   UNL     1       0.324  -0.309   0.064  0.00  0.00    +0.167 C 
ATOM     20  C   UNL     1       1.287  -0.703  -1.058  0.00  0.00    +0.051 C 
ENDBRANCH  17  19
ENDBRANCH  11  17
ENDBRANCH   1  14
BRANCH   3  21
ATOM     21  C   UNL     1      -2.841   2.163   5.849  0.00  0.00    +0.004 C 
ATOM     22  C   UNL     1      -3.107   3.628   6.201  0.00  0.00    +0.017 C 
ATOM     23  C   UNL     1      -2.098   2.087   4.513  0.00  0.00    +0.017 C 
ATOM     24  C   UNL     1      -4.171   1.416   5.737  0.00  0.00    +0.017 C 
ENDBRANCH   3  21
BRANCH   9  25
ATOM     25  N   UNL     1      -0.474  -3.457   8.355  0.00  0.00    -0.328 N 
ATOM     26  H   UNL     1       0.054  -3.527   9.165  0.00  0.00    +0.145 HD
ATOM     27  H   UNL     1      -0.787  -4.260   7.908  0.00  0.00    +0.145 HD
ENDBRANCH   9  25
BRANCH  10  28
ATOM     28  C   UNL     1      -1.942  -3.413   6.121  0.00  0.00    +0.101 C 
ATOM     29  N   UNL     1      -2.278  -4.393   5.654  0.00  0.00    -0.191 NA
ENDBRANCH  10  28
TORSDOF 6
