REMARK  Name = ZINC09137785
REMARK  2 active torsions:
REMARK  status: ('A' for Active; 'I' for Inactive)
REMARK    1  A    between atoms: C_4  and  C_7
REMARK    2  A    between atoms: C_19  and  C_21
REMARK                            x       y       z     vdW  Elec       q    Type
REMARK                         _______ _______ _______ _____ _____    ______ ____
ROOT
ATOM      1  C   UNL     1       0.263  -0.006  -0.020  0.00  0.00    +0.143 A 
ATOM      2  N   UNL     1      -0.957  -0.613   0.023  0.00  0.00    -0.307 N 
ATOM      3  H   UNL     1      -1.873  -0.006   0.061  0.00  0.00    +0.170 HD
ATOM      4  C   UNL     1      -1.041  -1.961   0.019  0.00  0.00    +0.257 A 
ATOM      5  O   UNL     1      -2.126  -2.518   0.052  0.00  0.00    -0.267 OA
ATOM      6  C   UNL     1       0.145  -2.706  -0.020  0.00  0.00    +0.065 A 
ATOM      7  C   UNL     1       1.357  -2.041  -0.057  0.00  0.00    +0.136 A 
ATOM      8  N   UNL     1       1.378  -0.703  -0.057  0.00  0.00    -0.214 NA
ATOM      9  N   UNL     1       2.540  -2.760  -0.095  0.00  0.00    -0.270 N 
ATOM     10  C   UNL     1       2.544  -4.055  -0.459  0.00  0.00    +0.219 C 
ATOM     11  O   UNL     1       3.589  -4.670  -0.470  0.00  0.00    -0.275 OA
ATOM     12  C   UNL     1       1.269  -4.750  -0.855  0.00  0.00    +0.109 C 
ATOM     13  C   UNL     1       0.105  -4.211  -0.021  0.00  0.00    +0.071 C 
ATOM     14  H   UNL     1       3.488  -2.273   0.175  0.00  0.00    +0.156 HD
ENDROOT
BRANCH  13  15
ATOM     15  C   UNL     1       0.223  -4.718   1.393  0.00  0.00    +0.014 A 
ATOM     16  C   UNL     1       0.472  -3.833   2.428  0.00  0.00    +0.129 A 
ATOM     17  C   UNL     1       0.581  -4.300   3.727  0.00  0.00    +0.039 A 
ATOM     18  C   UNL     1       0.440  -5.650   3.990  0.00  0.00    +0.004 A 
ATOM     19  C   UNL     1       0.192  -6.534   2.956  0.00  0.00    +0.020 A 
ATOM     20  C   UNL     1       0.077  -6.067   1.659  0.00  0.00    +0.047 A 
ATOM     21 CL   UNL     1      -0.243  -7.177   0.362  0.00  0.00    -0.083 Cl
ATOM     22  F   UNL     1       0.610  -2.514   2.171  0.00  0.00    -0.205 F 
ENDBRANCH  13  15
BRANCH   1  26
ATOM     23  C   UNL     1       0.468   4.236  -0.021  0.00  0.00    +0.000 A 
ATOM     24  C   UNL     1       1.633   3.490  -0.059  0.00  0.00    +0.001 A 
ATOM     25  C   UNL     1       1.573   2.112  -0.059  0.00  0.00    +0.011 A 
ATOM     26  C   UNL     1       0.334   1.470  -0.020  0.00  0.00    +0.017 A 
ATOM     27  C   UNL     1      -0.837   2.229   0.012  0.00  0.00    +0.011 A 
ATOM     28  C   UNL     1      -0.763   3.607   0.017  0.00  0.00    +0.001 A 
ENDBRANCH   1  26
TORSDOF 2
