REMARK  Name = ZINC16461060
REMARK  9 active torsions:
REMARK  status: ('A' for Active; 'I' for Inactive)
REMARK    1  A    between atoms: C_5  and  N_7
REMARK    2  A    between atoms: C_8  and  C_28
REMARK    3  A    between atoms: C_11  and  S_12
REMARK    4  A    between atoms: S_12  and  C_13
REMARK    5  A    between atoms: C_13  and  C_14
REMARK    6  A    between atoms: C_16  and  C_19
REMARK    7  A    between atoms: N_21  and  C_22
REMARK    8  A    between atoms: C_22  and  C_23
REMARK    9  A    between atoms: C_23  and  N_59
REMARK                            x       y       z     vdW  Elec       q    Type
REMARK                         _______ _______ _______ _____ _____    ______ ____
ROOT
ATOM      1  S   UNL     1       3.034  -5.622   0.347  0.00  0.00    -0.079 S 
ENDROOT
BRANCH   1   6
ATOM      2  N   UNL     1       2.438  -2.889   0.244  0.00  0.00    -0.267 N 
ATOM      3  C   UNL     1       1.322  -2.127  -0.022  0.00  0.00    +0.171 A 
ATOM      4  N   UNL     1       0.343  -2.959  -0.292  0.00  0.00    -0.128 NA
ATOM      5  N   UNL     1       0.761  -4.171  -0.209  0.00  0.00    -0.122 NA
ATOM      6  C   UNL     1       2.034  -4.190   0.119  0.00  0.00    +0.197 A 
BRANCH   2  11
ATOM      7  C   UNL     1       5.327  -1.769   2.231  0.00  0.00    +0.002 A 
ATOM      8  C   UNL     1       6.252  -1.519   1.233  0.00  0.00    +0.003 A 
ATOM      9  C   UNL     1       5.916  -1.723  -0.092  0.00  0.00    +0.040 A 
ATOM     10  C   UNL     1       4.654  -2.182  -0.424  0.00  0.00    +0.147 A 
ATOM     11  C   UNL     1       3.721  -2.428   0.577  0.00  0.00    +0.086 A 
ATOM     12  C   UNL     1       4.063  -2.223   1.906  0.00  0.00    +0.029 A 
ATOM     13  F   UNL     1       4.327  -2.385  -1.719  0.00  0.00    -0.203 F 
ENDBRANCH   2  11
BRANCH   3  14
ATOM     14  C   UNL     1       1.244  -0.651  -0.013  0.00  0.00    +0.038 A 
ATOM     15  C   UNL     1       0.002  -0.004   0.002  0.00  0.00    +0.014 A 
ATOM     16  C   UNL     1      -0.017   1.379   0.010  0.00  0.00    +0.020 A 
ATOM     17  C   UNL     1       1.180   2.073   0.002  0.00  0.00    +0.111 A 
ATOM     18  N   UNL     1       2.336   1.437  -0.013  0.00  0.00    -0.263 NA
ATOM     19  C   UNL     1       2.406   0.122  -0.020  0.00  0.00    +0.122 A 
ENDBRANCH   3  14
ENDBRANCH   1   6
BRANCH   1  20
ATOM     20  C   UNL     1       1.813  -6.915   0.007  0.00  0.00    +0.140 C 
BRANCH  20  21
ATOM     21  C   UNL     1       2.463  -8.268   0.146  0.00  0.00    +0.089 A 
ATOM     22  N   UNL     1       2.564  -9.018   1.213  0.00  0.00    -0.239 NA
ATOM     23  C   UNL     1       3.177 -10.201   1.139  0.00  0.00    +0.133 A 
ATOM     24  C   UNL     1       3.692 -10.574  -0.076  0.00  0.00    +0.080 A 
ATOM     25  S   UNL     1       3.267  -9.213  -1.065  0.00  0.00    -0.079 S 
BRANCH  23  26
ATOM     26  C   UNL     1       3.302 -11.071   2.321  0.00  0.00    +0.263 C 
ATOM     27  O   UNL     1       3.869 -12.143   2.229  0.00  0.00    -0.269 OA
ATOM     28  N   UNL     1       2.786 -10.680   3.503  0.00  0.00    -0.312 N 
ATOM     29  H   UNL     1       2.333  -9.825   3.576  0.00  0.00    +0.149 HD
BRANCH  28  30
ATOM     30  C   UNL     1       2.910 -11.546   4.678  0.00  0.00    +0.086 C 
BRANCH  30  31
ATOM     31  C   UNL     1       2.246 -10.871   5.881  0.00  0.00    -0.060 C 
BRANCH  31  36
ATOM     32  C   UNL     1       3.784 -12.139   7.279  0.00  0.00    -0.079 C 
ATOM     33  C   UNL     1       3.804 -12.564   8.769  0.00  0.00    -0.020 C 
ATOM     34  C   UNL     1       2.848 -11.546   9.432  0.00  0.00    -0.020 C 
ATOM     35  C   UNL     1       1.956 -11.028   8.288  0.00  0.00    -0.079 C 
ATOM     36  N   UNL     1       2.379 -11.746   7.085  0.00  0.00    +0.381 N 
ATOM     37  H   UNL     1       1.799 -12.583   6.958  0.00  0.00    -0.082 HD
ENDBRANCH  31  36
ENDBRANCH  30  31
ENDBRANCH  28  30
ENDBRANCH  23  26
ENDBRANCH  20  21
ENDBRANCH   1  20
TORSDOF 9
