REMARK  Name = ZINC39635886
REMARK  5 active torsions:
REMARK  status: ('A' for Active; 'I' for Inactive)
REMARK    1  A    between atoms: C_1  and  C_2
REMARK    2  A    between atoms: C_8  and  N_10
REMARK    3  A    between atoms: C_11  and  C_13
REMARK    4  A    between atoms: C_24  and  C_26
REMARK    5  A    between atoms: C_26  and  C_32
REMARK                            x       y       z     vdW  Elec       q    Type
REMARK                         _______ _______ _______ _____ _____    ______ ____
ROOT
ATOM      1  C   UNL     1       4.258   0.810   2.376  0.00  0.00    +0.100 C 
ATOM      2  C   UNL     1       5.155  -0.253   1.703  0.00  0.00    +0.121 C 
ATOM      3  N   UNL     1       6.412  -0.235   2.488  0.00  0.00    -0.300 N 
ATOM      4  C   UNL     1       5.966  -0.073   3.893  0.00  0.00    +0.115 C 
ATOM      5  C   UNL     1       4.793   0.924   3.813  0.00  0.00    -0.004 C 
ATOM      6  C   UNL     1       3.707   0.541   4.814  0.00  0.00    -0.010 C 
ATOM      7  C   UNL     1       4.243   0.720   6.237  0.00  0.00    -0.082 C 
ATOM      8  N   UNL     1       4.651   2.116   6.437  0.00  0.00    +0.379 N 
ATOM      9  C   UNL     1       5.760   2.448   5.534  0.00  0.00    -0.082 C 
ATOM     10  C   UNL     1       5.287   2.343   4.082  0.00  0.00    -0.010 C 
ATOM     11  C   UNL     1       7.675  -0.341   2.029  0.00  0.00    +0.222 C 
ATOM     12  O   UNL     1       8.600  -0.409   2.811  0.00  0.00    -0.275 OA
ATOM     13  H   UNL     1       3.869   2.724   6.245  0.00  0.00    -0.086 HD
ATOM     14  H   UNL     1       4.947   2.244   7.393  0.00  0.00    -0.086 HD
ENDROOT
BRANCH  11  15
ATOM     15  C   UNL     1       7.937  -0.377   0.546  0.00  0.00    +0.044 C 
ATOM     16  C   UNL     1       7.466   0.935  -0.086  0.00  0.00    +0.016 C 
ATOM     17  C   UNL     1       8.228   2.105   0.538  0.00  0.00    +0.001 C 
ATOM     18  C   UNL     1       9.727   1.928   0.289  0.00  0.00    +0.000 C 
ATOM     19  C   UNL     1      10.198   0.617   0.922  0.00  0.00    +0.001 C 
ATOM     20  C   UNL     1       9.436  -0.553   0.297  0.00  0.00    +0.016 C 
ATOM     21  C   UNL     1       7.174  -1.547  -0.079  0.00  0.00    +0.021 C 
ENDBRANCH  11  15
BRANCH   1  23
ATOM     22  N   UNL     1       1.827   1.263   2.355  0.00  0.00    -0.312 N 
ATOM     23  C   UNL     1       2.822   0.354   2.385  0.00  0.00    +0.218 C 
ATOM     24  O   UNL     1       2.561  -0.829   2.420  0.00  0.00    -0.275 OA
ATOM     25  H   UNL     1       2.036   2.210   2.327  0.00  0.00    +0.149 HD
BRANCH  22  32
ATOM     26  C   UNL     1      -0.009   2.248   4.367  0.00  0.00    +0.009 C 
ATOM     27  C   UNL     1      -0.453   1.931   2.938  0.00  0.00    +0.006 C 
ATOM     28  C   UNL     1      -0.321   3.186   2.073  0.00  0.00    +0.005 C 
ATOM     29  C   UNL     1      -0.765   2.869   0.643  0.00  0.00    +0.000 C 
ATOM     30  C   UNL     1       0.118   1.759   0.070  0.00  0.00    +0.002 C 
ATOM     31  C   UNL     1      -0.013   0.504   0.935  0.00  0.00    +0.022 C 
ATOM     32  C   UNL     1       0.430   0.821   2.364  0.00  0.00    +0.076 C 
ENDBRANCH  22  32
ENDBRANCH   1  23
TORSDOF 3
