REMARK  Name = ZINC19791535
REMARK  6 active torsions:
REMARK  status: ('A' for Active; 'I' for Inactive)
REMARK    1  A    between atoms: C_1  and  C_2
REMARK    2  A    between atoms: N_8  and  C_9
REMARK    3  A    between atoms: C_9  and  C_10
REMARK    4  A    between atoms: C_11  and  O_31
REMARK    5  A    between atoms: C_17  and  C_27
REMARK    6  A    between atoms: C_18  and  C_21
REMARK                            x       y       z     vdW  Elec       q    Type
REMARK                         _______ _______ _______ _____ _____    ______ ____
ROOT
ATOM      1  C   UNL     1       4.455  -0.158  -1.951  0.00  0.00    +0.020 A 
ATOM      2  C   UNL     1       5.044   1.033  -2.343  0.00  0.00    +0.122 A 
ATOM      3  C   UNL     1       6.381   1.293  -2.050  0.00  0.00    +0.046 A 
ATOM      4  C   UNL     1       7.133   0.368  -1.383  0.00  0.00    +0.019 A 
ATOM      5  C   UNL     1       6.556  -0.839  -0.987  0.00  0.00    +0.065 A 
ATOM      6  C   UNL     1       5.205  -1.108  -1.272  0.00  0.00    +0.144 A 
ATOM      7  O   UNL     1       4.649  -2.274  -0.888  0.00  0.00    -0.450 OA
ATOM      8  C   UNL     1       5.319  -3.225  -0.232  0.00  0.00    +0.219 A 
ATOM      9  C   UNL     1       6.628  -3.096   0.106  0.00  0.00    +0.076 A 
ATOM     10  C   UNL     1       7.336  -1.859  -0.264  0.00  0.00    +0.201 A 
ATOM     11  O   UNL     1       8.511  -1.688   0.013  0.00  0.00    -0.286 OA
ENDROOT
BRANCH   9  12
ATOM     12  C   UNL     1       7.330  -4.180   0.836  0.00  0.00    -0.011 A 
ATOM     13  C   UNL     1       6.947  -4.512   2.134  0.00  0.00    +0.009 A 
ATOM     14  C   UNL     1       7.601  -5.525   2.806  0.00  0.00    +0.001 A 
ATOM     15  C   UNL     1       8.642  -6.202   2.198  0.00  0.00    +0.000 A 
ATOM     16  C   UNL     1       9.030  -5.873   0.911  0.00  0.00    +0.001 A 
ATOM     17  C   UNL     1       8.380  -4.866   0.228  0.00  0.00    +0.009 A 
ENDBRANCH   9  12
BRANCH   8  18
ATOM     18  C   UNL     1       4.594  -4.491   0.147  0.00  0.00    +0.451 C 
ATOM     19  F   UNL     1       4.019  -4.338   1.413  0.00  0.00    -0.163 F 
ATOM     20  F   UNL     1       3.591  -4.753  -0.793  0.00  0.00    -0.163 F 
ATOM     21  F   UNL     1       5.500  -5.557   0.172  0.00  0.00    -0.163 F 
ENDBRANCH   8  18
BRANCH   2  22
ATOM     22  O   UNL     1       4.310   1.958  -3.012  0.00  0.00    -0.506 OA
ATOM     23  H   UNL     1       4.773   2.905  -3.325  0.00  0.00    +0.292 HD
ENDBRANCH   2  22
BRANCH   1  24
ATOM     24  C   UNL     1       3.006  -0.424  -2.267  0.00  0.00    -0.035 C 
BRANCH  24  31
ATOM     25  C   UNL     1       0.664  -1.825  -1.583  0.00  0.00    -0.013 C 
ATOM     26  C   UNL     1       0.762  -0.313  -1.367  0.00  0.00    -0.071 C 
ATOM     27  C   UNL     1      -0.056   0.080  -0.134  0.00  0.00    -0.016 C 
ATOM     28  C   UNL     1       0.062   1.590   0.091  0.00  0.00    -0.003 C 
ATOM     29  C   UNL     1       1.539   1.961   0.251  0.00  0.00    -0.019 C 
ATOM     30  C   UNL     1       2.310   1.513  -0.993  0.00  0.00    -0.078 C 
ATOM     31  N   UNL     1       2.167   0.062  -1.164  0.00  0.00    +0.384 N 
ATOM     32  H   UNL     1       2.512  -0.420  -0.237  0.00  0.00    -0.081 HD
ENDBRANCH  24  31
ENDBRANCH   1  24
TORSDOF 5
