REMARK  Name = ZINC40904047
REMARK  14 active torsions:
REMARK  status: ('A' for Active; 'I' for Inactive)
REMARK    1  A    between atoms: C_1  and  C_2
REMARK    2  A    between atoms: C_2  and  N_3
REMARK    3  A    between atoms: N_3  and  C_4
REMARK    4  A    between atoms: N_3  and  C_6
REMARK    5  A    between atoms: C_4  and  C_5
REMARK    6  A    between atoms: C_6  and  C_7
REMARK    7  A    between atoms: C_7  and  C_8
REMARK    8  A    between atoms: C_8  and  N_9
REMARK    9  A    between atoms: C_10  and  C_12
REMARK   10  A    between atoms: N_15  and  C_18
REMARK   11  A    between atoms: C_21  and  C_25
REMARK   12  A    between atoms: C_27  and  C_30
REMARK   13  A    between atoms: C_30  and  C_31
REMARK   14  A    between atoms: C_30  and  C_32
REMARK                            x       y       z     vdW  Elec       q    Type
REMARK                         _______ _______ _______ _____ _____    ______ ____
ROOT
ATOM      1  C   UNL     1       4.424  -5.286  -3.099  0.00  0.00    +0.078 C 
ATOM      2  C   UNL     1       3.637  -4.845  -4.335  0.00  0.00    +0.031 C 
ATOM      3  C   UNL     1       4.502  -5.043  -5.584  0.00  0.00    +0.106 C 
ATOM      4  N   UNL     1       4.959  -6.438  -5.626  0.00  0.00    -0.328 N 
ATOM      5  C   UNL     1       5.648  -6.992  -4.452  0.00  0.00    +0.106 C 
ATOM      6  C   UNL     1       4.770  -6.772  -3.216  0.00  0.00    +0.031 C 
ENDROOT
BRANCH   4   7
ATOM      7  C   UNL     1       4.743  -7.224  -6.759  0.00  0.00    +0.065 A 
ATOM      8  C   UNL     1       5.695  -7.259  -7.771  0.00  0.00    +0.027 A 
ATOM      9  C   UNL     1       5.484  -8.034  -8.892  0.00  0.00    +0.013 A 
ATOM     10  C   UNL     1       4.315  -8.784  -9.010  0.00  0.00    +0.025 A 
ATOM     11  C   UNL     1       3.360  -8.749  -7.994  0.00  0.00    +0.052 A 
ATOM     12  C   UNL     1       3.577  -7.976  -6.872  0.00  0.00    +0.145 A 
ATOM     13  F   UNL     1       2.655  -7.945  -5.885  0.00  0.00    -0.204 F 
BRANCH  10  14
ATOM     14  C   UNL     1       4.086  -9.617 -10.215  0.00  0.00    +0.202 A 
ATOM     15  N   UNL     1       3.002 -10.379 -10.449  0.00  0.00    -0.191 NA
ATOM     16  C   UNL     1       3.119 -10.980 -11.598  0.00  0.00    +0.230 A 
ATOM     17  O   UNL     1       4.288 -10.626 -12.147  0.00  0.00    -0.337 OA
ATOM     18  N   UNL     1       4.905  -9.732 -11.232  0.00  0.00    -0.056 NA
BRANCH  16  19
ATOM     19  C   UNL     1       2.108 -11.918 -12.208  0.00  0.00    +0.072 C 
ATOM     20  C   UNL     1       1.637 -11.356 -13.551  0.00  0.00    +0.017 C 
ATOM     21  C   UNL     1       2.752 -13.289 -12.426  0.00  0.00    +0.017 C 
ENDBRANCH  16  19
ENDBRANCH  10  14
ENDBRANCH   4   7
BRANCH   1  23
ATOM     22  N   UNL     1       3.163  -3.820  -1.556  0.00  0.00    -0.315 N 
ATOM     23  C   UNL     1       3.588  -5.061  -1.865  0.00  0.00    +0.216 C 
ATOM     24  O   UNL     1       3.298  -5.997  -1.150  0.00  0.00    -0.276 OA
ATOM     25  H   UNL     1       3.395  -3.071  -2.128  0.00  0.00    +0.149 HD
BRANCH  22  26
ATOM     26  C   UNL     1       2.351  -3.601  -0.357  0.00  0.00    +0.102 C 
BRANCH  26  27
ATOM     27  C   UNL     1       2.004  -2.115  -0.240  0.00  0.00    +0.000 C 
BRANCH  27  28
ATOM     28  C   UNL     1       1.156  -1.887   1.013  0.00  0.00    -0.077 C 
BRANCH  28  29
ATOM     29  N   UNL     1       0.823  -0.461   1.126  0.00  0.00    +0.379 N 
ATOM     30  H   UNL     1       1.671   0.085   1.109  0.00  0.00    -0.082 HD
BRANCH  29  32
ATOM     31  C   UNL     1      -0.264   1.445   0.037  0.00  0.00    -0.017 C 
ATOM     32  C   UNL     1      -0.034  -0.067  -0.001  0.00  0.00    -0.082 C 
ENDBRANCH  29  32
BRANCH  29  33
ATOM     33  C   UNL     1       0.111  -0.222   2.389  0.00  0.00    -0.082 C 
ATOM     34  C   UNL     1       1.053  -0.495   3.563  0.00  0.00    -0.017 C 
ENDBRANCH  29  33
ENDBRANCH  28  29
ENDBRANCH  27  28
ENDBRANCH  26  27
ENDBRANCH  22  26
ENDBRANCH   1  23
TORSDOF 10
