REMARK  Name = ZINC49185148
REMARK  5 active torsions:
REMARK  status: ('A' for Active; 'I' for Inactive)
REMARK    1  A    between atoms: C_1  and  C_2
REMARK    2  A    between atoms: C_2  and  C_4
REMARK    3  A    between atoms: C_2  and  N_10
REMARK    4  A    between atoms: C_4  and  C_5
REMARK    5  A    between atoms: C_11  and  C_13
REMARK                            x       y       z     vdW  Elec       q    Type
REMARK                         _______ _______ _______ _____ _____    ______ ____
ROOT
ATOM      1  N   UNL     1       0.688  -0.476  -1.203  0.00  0.00    -0.314 N 
ATOM      2  C   UNL     1       2.031  -0.587  -1.215  0.00  0.00    +0.199 C 
ATOM      3  O   UNL     1       2.672  -0.295  -0.228  0.00  0.00    -0.278 OA
ATOM      4  H   UNL     1       0.175  -0.710  -1.993  0.00  0.00    +0.149 HD
ENDROOT
BRANCH   2   5
ATOM      5  C   UNL     1       2.736  -1.073  -2.455  0.00  0.00    +0.017 C 
ATOM      6  C   UNL     1       2.477  -0.098  -3.626  0.00  0.00    -0.005 C 
ATOM      7  C   UNL     1       3.843  -0.111  -4.381  0.00  0.00    -0.026 C 
ATOM      8  C   UNL     1       3.890  -1.415  -5.179  0.00  0.00    +0.002 C 
ATOM      9  C   UNL     1       5.319  -1.728  -5.616  0.00  0.00    +0.000 C 
ATOM     10  C   UNL     1       6.186  -1.914  -4.366  0.00  0.00    -0.002 C 
ATOM     11  C   UNL     1       6.209  -0.597  -3.591  0.00  0.00    -0.015 C 
ATOM     12  C   UNL     1       4.813  -0.159  -3.183  0.00  0.00    -0.068 C 
ATOM     13  N   UNL     1       4.199  -1.097  -2.228  0.00  0.00    +0.389 N 
ATOM     14  H   UNL     1       4.403  -0.806  -1.284  0.00  0.00    -0.084 HD
ATOM     15  H   UNL     1       4.554  -2.028  -2.385  0.00  0.00    -0.084 HD
ENDBRANCH   2   5
BRANCH   1  17
ATOM     16  C   UNL     1      -0.019   1.526   0.010  0.00  0.00    +0.028 C 
ATOM     17  C   UNL     1       0.002  -0.004   0.002  0.00  0.00    +0.074 C 
BRANCH  17  18
ATOM     18  C   UNL     1      -1.433  -0.534   0.013  0.00  0.00    +0.057 C 
BRANCH  18  19
ATOM     19  C   UNL     1      -1.414  -2.036   0.129  0.00  0.00    -0.039 A 
ATOM     20  C   UNL     1      -1.375  -2.826  -1.005  0.00  0.00    +0.011 A 
ATOM     21  C   UNL     1      -1.358  -4.175  -0.866  0.00  0.00    +0.045 A 
ATOM     22  S   UNL     1      -1.397  -4.363   0.909  0.00  0.00    -0.105 S 
ATOM     23  C   UNL     1      -1.428  -2.633   1.345  0.00  0.00    +0.049 A 
ENDBRANCH  18  19
ENDBRANCH  17  18
ENDBRANCH   1  17
TORSDOF 4
