REMARK  Name = ZINC62122577
REMARK  10 active torsions:
REMARK  status: ('A' for Active; 'I' for Inactive)
REMARK    1  A    between atoms: C_1  and  C_2
REMARK    2  A    between atoms: C_2  and  C_3
REMARK    3  A    between atoms: C_6  and  C_9
REMARK    4  A    between atoms: C_9  and  C_11
REMARK    5  A    between atoms: C_9  and  N_28
REMARK    6  A    between atoms: C_11  and  N_12
REMARK    7  A    between atoms: N_12  and  S_13
REMARK    8  A    between atoms: S_13  and  C_16
REMARK    9  A    between atoms: N_28  and  C_29
REMARK   10  A    between atoms: N_28  and  C_30
REMARK                            x       y       z     vdW  Elec       q    Type
REMARK                         _______ _______ _______ _____ _____    ______ ____
ROOT
ATOM      1  N   UNL     1       1.682  -0.382  -6.263  0.00  0.00    -0.191 NA
ATOM      2  H   UNL     1       0.878  -0.922  -6.227  0.00  0.00    +0.148 HD
ENDROOT
BRANCH   1   3
ATOM      3  S   UNL     1       1.647   1.107  -6.987  0.00  0.00    +0.058 S 
ATOM      4  O   UNL     1       0.324   1.292  -7.473  0.00  0.00    -0.153 OA
ATOM      5  O   UNL     1       2.259   2.014  -6.080  0.00  0.00    -0.153 OA
BRANCH   3   6
ATOM      6  C   UNL     1       2.696   1.025  -8.401  0.00  0.00    +0.107 A 
ATOM      7  C   UNL     1       4.040   1.335  -8.281  0.00  0.00    +0.030 A 
ATOM      8  C   UNL     1       4.869   1.273  -9.383  0.00  0.00    +0.030 A 
ATOM      9  C   UNL     1       4.354   0.898 -10.615  0.00  0.00    +0.067 A 
ATOM     10  C   UNL     1       2.999   0.585 -10.735  0.00  0.00    +0.069 A 
ATOM     11  C   UNL     1       2.175   0.645  -9.622  0.00  0.00    +0.056 A 
ATOM     12  N   UNL     1       2.780   0.250 -12.070  0.00  0.00    -0.306 N 
ATOM     13  H   UNL     1       1.931  -0.013 -12.457  0.00  0.00    +0.170 HD
ATOM     14  C   UNL     1       3.949   0.355 -12.730  0.00  0.00    +0.325 A 
ATOM     15  O   UNL     1       4.106   0.132 -13.916  0.00  0.00    -0.247 OA
ATOM     16  N   UNL     1       4.917   0.744 -11.879  0.00  0.00    -0.306 N 
ATOM     17  H   UNL     1       5.848   0.892 -12.108  0.00  0.00    +0.170 HD
ENDBRANCH   3   6
ENDBRANCH   1   3
BRANCH   1  18
ATOM     18  C   UNL     1       2.928  -0.882  -5.678  0.00  0.00    +0.095 C 
BRANCH  18  19
ATOM     19  C   UNL     1       2.616  -2.037  -4.724  0.00  0.00    -0.023 C 
BRANCH  19  23
ATOM     20  C   UNL     1       0.304  -0.587  -1.438  0.00  0.00    -0.048 A 
ATOM     21  C   UNL     1      -0.318  -1.238  -2.487  0.00  0.00    +0.004 A 
ATOM     22  C   UNL     1       0.430  -1.707  -3.550  0.00  0.00    +0.002 A 
ATOM     23  C   UNL     1       1.800  -1.525  -3.565  0.00  0.00    -0.060 A 
ATOM     24  C   UNL     1       2.423  -0.873  -2.517  0.00  0.00    +0.002 A 
ATOM     25  C   UNL     1       1.674  -0.400  -1.455  0.00  0.00    +0.004 A 
BRANCH  20  27
ATOM     26  C   UNL     1      -0.967   1.356  -0.568  0.00  0.00    +0.009 C 
ATOM     27  C   UNL     1      -0.511  -0.075  -0.278  0.00  0.00    +0.032 C 
ENDBRANCH  20  27
ENDBRANCH  19  23
BRANCH  19  28
ATOM     28  N   UNL     1       3.872  -2.612  -4.223  0.00  0.00    +0.381 N 
ATOM     29  C   UNL     1       3.572  -3.690  -3.272  0.00  0.00    -0.096 C 
ATOM     30  C   UNL     1       4.646  -3.153  -5.348  0.00  0.00    -0.096 C 
ATOM     31  H   UNL     1       4.409  -1.894  -3.760  0.00  0.00    -0.082 HD
ENDBRANCH  19  28
ENDBRANCH  18  19
ENDBRANCH   1  18
TORSDOF 7
