REMARK  Name = ZINC39686714
REMARK  9 active torsions:
REMARK  status: ('A' for Active; 'I' for Inactive)
REMARK    1  A    between atoms: C_1  and  C_2
REMARK    2  A    between atoms: C_2  and  C_4
REMARK    3  A    between atoms: C_2  and  N_13
REMARK    4  A    between atoms: C_4  and  C_5
REMARK    5  A    between atoms: C_10  and  O_11
REMARK    6  A    between atoms: O_11  and  C_12
REMARK    7  A    between atoms: C_14  and  C_16
REMARK    8  A    between atoms: C_27  and  C_29
REMARK    9  A    between atoms: C_32  and  C_34
REMARK                            x       y       z     vdW  Elec       q    Type
REMARK                         _______ _______ _______ _____ _____    ______ ____
ROOT
ATOM      1  C   UNL     1       0.780  -1.133   3.576  0.00  0.00    +0.100 C 
ATOM      2  C   UNL     1       1.189  -2.611   3.392  0.00  0.00    +0.121 C 
ATOM      3  N   UNL     1       1.007  -3.220   4.731  0.00  0.00    -0.294 N 
ATOM      4  C   UNL     1      -0.237  -2.602   5.250  0.00  0.00    +0.115 C 
ATOM      5  C   UNL     1      -0.156  -1.131   4.797  0.00  0.00    -0.004 C 
ATOM      6  C   UNL     1       0.429  -0.267   5.910  0.00  0.00    -0.010 C 
ATOM      7  C   UNL     1      -0.546  -0.235   7.090  0.00  0.00    -0.082 C 
ATOM      8  N   UNL     1      -1.836   0.308   6.647  0.00  0.00    +0.379 N 
ATOM      9  C   UNL     1      -2.435  -0.578   5.643  0.00  0.00    -0.082 C 
ATOM     10  C   UNL     1      -1.540  -0.625   4.401  0.00  0.00    -0.010 C 
ATOM     11  C   UNL     1       1.794  -4.130   5.338  0.00  0.00    +0.282 C 
ATOM     12  O   UNL     1       1.507  -4.537   6.449  0.00  0.00    -0.267 OA
ATOM     13  H   UNL     1      -2.457   0.385   7.439  0.00  0.00    -0.086 HD
ATOM     14  H   UNL     1      -1.694   1.223   6.245  0.00  0.00    -0.086 HD
ENDROOT
BRANCH  11  15
ATOM     15  C   UNL     1       2.994  -4.629   4.662  0.00  0.00    +0.190 A 
ATOM     16  C   UNL     1       3.878  -5.559   5.164  0.00  0.00    +0.055 A 
ATOM     17  C   UNL     1       4.869  -5.739   4.193  0.00  0.00    +0.050 A 
ATOM     18  C   UNL     1       4.557  -4.921   3.145  0.00  0.00    +0.136 A 
ATOM     19  O   UNL     1       3.423  -4.262   3.436  0.00  0.00    -0.450 OA
BRANCH  18  20
ATOM     20  C   UNL     1       5.334  -4.788   1.896  0.00  0.00    +0.017 A 
ATOM     21  C   UNL     1       6.495  -5.541   1.709  0.00  0.00    +0.011 A 
ATOM     22  C   UNL     1       7.216  -5.412   0.540  0.00  0.00    +0.001 A 
ATOM     23  C   UNL     1       6.791  -4.540  -0.446  0.00  0.00    +0.000 A 
ATOM     24  C   UNL     1       5.641  -3.790  -0.267  0.00  0.00    +0.001 A 
ATOM     25  C   UNL     1       4.908  -3.914   0.895  0.00  0.00    +0.011 A 
ENDBRANCH  18  20
ENDBRANCH  11  15
BRANCH   1  27
ATOM     26  N   UNL     1       0.108   0.671   2.023  0.00  0.00    -0.312 N 
ATOM     27  C   UNL     1       0.051  -0.633   2.355  0.00  0.00    +0.218 C 
ATOM     28  O   UNL     1      -0.587  -1.406   1.672  0.00  0.00    -0.275 OA
ATOM     29  H   UNL     1       0.619   1.289   2.570  0.00  0.00    +0.149 HD
BRANCH  26  31
ATOM     30  C   UNL     1      -2.054   1.464   1.200  0.00  0.00    +0.028 C 
ATOM     31  C   UNL     1      -0.600   1.157   0.836  0.00  0.00    +0.074 C 
BRANCH  31  32
ATOM     32  C   UNL     1       0.077   2.429   0.323  0.00  0.00    +0.060 C 
BRANCH  32  33
ATOM     33  C   UNL     1       1.470   2.101  -0.151  0.00  0.00    -0.004 A 
ATOM     34  C   UNL     1       2.545   2.261   0.702  0.00  0.00    +0.007 A 
ATOM     35  C   UNL     1       3.823   1.961   0.268  0.00  0.00    +0.000 A 
ATOM     36  C   UNL     1       4.028   1.499  -1.020  0.00  0.00    +0.004 A 
ATOM     37  C   UNL     1       2.956   1.337  -1.875  0.00  0.00    +0.046 A 
ATOM     38  C   UNL     1       1.672   1.632  -1.440  0.00  0.00    +0.123 A 
BRANCH  38  39
ATOM     39  O   UNL     1       0.615   1.468  -2.279  0.00  0.00    -0.495 OA
ATOM     40  C   UNL     1       0.898   0.982  -3.592  0.00  0.00    +0.277 C 
ENDBRANCH  38  39
ENDBRANCH  32  33
ENDBRANCH  31  32
ENDBRANCH  26  31
ENDBRANCH   1  27
TORSDOF 7
