REMARK  Name = ZINC24286163
REMARK  8 active torsions:
REMARK  status: ('A' for Active; 'I' for Inactive)
REMARK    1  A    between atoms: C_1  and  C_2
REMARK    2  A    between atoms: C_2  and  C_3
REMARK    3  A    between atoms: C_4  and  C_21
REMARK    4  A    between atoms: C_6  and  C_8
REMARK    5  A    between atoms: N_10  and  N_11
REMARK    6  A    between atoms: C_12  and  C_14
REMARK    7  A    between atoms: C_16  and  C_20
REMARK    8  A    between atoms: C_17  and  C_19
REMARK                            x       y       z     vdW  Elec       q    Type
REMARK                         _______ _______ _______ _____ _____    ______ ____
ROOT
ATOM      1  C   UNL     1      -2.580   1.276   0.021  0.00  0.00    +0.267 C 
ATOM      2  O   UNL     1      -2.786   0.076   0.015  0.00  0.00    -0.268 OA
ATOM      3  N   UNL     1      -3.616   2.137   0.030  0.00  0.00    -0.230 N 
ATOM      4  H   UNL     1      -3.430   3.221   0.035  0.00  0.00    +0.173 HD
ENDROOT
BRANCH   1   8
ATOM      5  C   UNL     1       1.077   3.165   0.009  0.00  0.00    -0.007 A 
ATOM      6  C   UNL     1       1.149   1.808   0.001  0.00  0.00    -0.040 A 
ATOM      7  C   UNL     1      -0.013   1.076   0.008  0.00  0.00    +0.024 A 
ATOM      8  C   UNL     1      -1.205   1.783   0.017  0.00  0.00    +0.076 A 
ATOM      9  S   UNL     1      -0.629   3.471   0.027  0.00  0.00    -0.088 S 
ATOM     10  C   UNL     1       2.487   1.115  -0.015  0.00  0.00    +0.044 C 
BRANCH   5  12
ATOM     11  C   UNL     1       2.576   4.507  -1.441  0.00  0.00    +0.009 C 
ATOM     12  C   UNL     1       2.207   4.162   0.003  0.00  0.00    +0.039 C 
ENDBRANCH   5  12
ENDBRANCH   1   8
BRANCH   3  13
ATOM     13  N   UNL     1      -4.931   1.652   0.034  0.00  0.00    -0.230 N 
ATOM     14  C   UNL     1      -5.967   2.514   0.043  0.00  0.00    +0.267 C 
ATOM     15  O   UNL     1      -5.761   3.714   0.049  0.00  0.00    -0.268 OA
ATOM     16  H   UNL     1      -5.117   0.568   0.029  0.00  0.00    +0.173 HD
BRANCH  14  17
ATOM     17  C   UNL     1      -7.342   2.007   0.047  0.00  0.00    +0.076 A 
ATOM     18  C   UNL     1      -8.534   2.714   0.056  0.00  0.00    +0.024 A 
ATOM     19  C   UNL     1      -9.695   1.982   0.057  0.00  0.00    -0.040 A 
ATOM     20  C   UNL     1      -9.624   0.625   0.050  0.00  0.00    -0.010 A 
ATOM     21  S   UNL     1      -7.918   0.318   0.032  0.00  0.00    -0.089 S 
ATOM     22  C   UNL     1     -10.754  -0.372   0.049  0.00  0.00    +0.052 C 
ATOM     23  C   UNL     1     -11.033   2.675   0.068  0.00  0.00    +0.044 C 
ENDBRANCH  14  17
ENDBRANCH   3  13
TORSDOF 4
