REMARK  Name = ZINC38180196
REMARK  13 active torsions:
REMARK  status: ('A' for Active; 'I' for Inactive)
REMARK    1  A    between atoms: C_1  and  C_2
REMARK    2  A    between atoms: C_2  and  N_3
REMARK    3  A    between atoms: C_7  and  C_38
REMARK    4  A    between atoms: N_11  and  N_12
REMARK    5  A    between atoms: C_13  and  C_15
REMARK    6  A    between atoms: C_15  and  C_16
REMARK    7  A    between atoms: C_16  and  C_17
REMARK    8  A    between atoms: C_17  and  C_18
REMARK    9  A    between atoms: C_18  and  C_19
REMARK   10  A    between atoms: N_21  and  N_22
REMARK   11  A    between atoms: C_26  and  C_35
REMARK   12  A    between atoms: N_30  and  C_33
REMARK   13  A    between atoms: C_33  and  C_34
REMARK                            x       y       z     vdW  Elec       q    Type
REMARK                         _______ _______ _______ _____ _____    ______ ____
ROOT
ATOM      1  C   UNL     1      -8.760  -3.676  -2.137  0.00  0.00    +0.010 C 
ENDROOT
BRANCH   1   2
ATOM      2  C   UNL     1      -7.808  -3.222  -1.030  0.00  0.00    +0.097 C 
BRANCH   2   4
ATOM      3  N   UNL     1      -5.575  -2.170  -0.857  0.00  0.00    -0.206 N 
ATOM      4  C   UNL     1      -6.562  -2.639  -1.646  0.00  0.00    +0.232 C 
ATOM      5  O   UNL     1      -6.447  -2.592  -2.852  0.00  0.00    -0.274 OA
ATOM      6  H   UNL     1      -5.667  -2.208   0.108  0.00  0.00    +0.177 HD
BRANCH   3  15
ATOM      7  N   UNL     1      -1.409  -0.427   0.022  0.00  0.00    -0.266 N 
ATOM      8  C   UNL     1      -2.021  -0.963   1.149  0.00  0.00    +0.046 A 
ATOM      9  C   UNL     1      -1.613  -1.032   2.477  0.00  0.00    +0.024 A 
ATOM     10  C   UNL     1      -2.424  -1.629   3.421  0.00  0.00    +0.005 A 
ATOM     11  C   UNL     1      -3.648  -2.167   3.061  0.00  0.00    -0.050 A 
ATOM     12  C   UNL     1      -4.070  -2.108   1.747  0.00  0.00    +0.015 A 
ATOM     13  C   UNL     1      -3.260  -1.507   0.790  0.00  0.00    +0.029 A 
ATOM     14  C   UNL     1      -3.409  -1.283  -0.667  0.00  0.00    +0.153 C 
ATOM     15  N   UNL     1      -4.417  -1.629  -1.430  0.00  0.00    -0.175 NA
ATOM     16  C   UNL     1      -2.175  -0.578  -1.072  0.00  0.00    +0.271 C 
ATOM     17  O   UNL     1      -1.900  -0.203  -2.197  0.00  0.00    -0.268 OA
ATOM     18  C   UNL     1      -4.521  -2.816   4.103  0.00  0.00    +0.044 C 
BRANCH   7  20
ATOM     19  C   UNL     1      -0.274   1.722   0.295  0.00  0.00    +0.025 C 
ATOM     20  C   UNL     1      -0.098   0.226   0.026  0.00  0.00    +0.111 C 
ENDBRANCH   7  20
ENDBRANCH   3  15
ENDBRANCH   2   4
ENDBRANCH   1   2
BRANCH   1  21
ATOM     21  C   UNL     1     -10.025  -4.268  -1.511  0.00  0.00    +0.010 C 
BRANCH  21  22
ATOM     22  C   UNL     1     -10.977  -4.722  -2.619  0.00  0.00    +0.097 C 
BRANCH  22  23
ATOM     23  C   UNL     1     -12.223  -5.305  -2.002  0.00  0.00    +0.232 C 
ATOM     24  O   UNL     1     -12.338  -5.352  -0.796  0.00  0.00    -0.274 OA
ATOM     25  N   UNL     1     -13.210  -5.774  -2.792  0.00  0.00    -0.206 N 
ATOM     26  H   UNL     1     -13.118  -5.736  -3.757  0.00  0.00    +0.177 HD
BRANCH  25  27
ATOM     27  N   UNL     1     -14.368  -6.315  -2.219  0.00  0.00    -0.175 NA
ATOM     28  C   UNL     1     -15.327  -6.771  -2.986  0.00  0.00    +0.153 C 
ATOM     29  C   UNL     1     -16.615  -7.368  -2.562  0.00  0.00    +0.029 A 
ATOM     30  C   UNL     1     -17.184  -7.622  -1.319  0.00  0.00    +0.015 A 
ATOM     31  C   UNL     1     -18.433  -8.204  -1.243  0.00  0.00    -0.050 A 
ATOM     32  C   UNL     1     -19.116  -8.534  -2.402  0.00  0.00    +0.005 A 
ATOM     33  C   UNL     1     -18.560  -8.287  -3.640  0.00  0.00    +0.024 A 
ATOM     34  C   UNL     1     -17.303  -7.700  -3.737  0.00  0.00    +0.046 A 
ATOM     35  N   UNL     1     -16.529  -7.350  -4.838  0.00  0.00    -0.266 N 
ATOM     36  C   UNL     1     -15.363  -6.796  -4.463  0.00  0.00    +0.271 C 
ATOM     37  O   UNL     1     -14.491  -6.390  -5.207  0.00  0.00    -0.268 OA
ATOM     38  C   UNL     1     -19.054  -8.481   0.102  0.00  0.00    +0.044 C 
BRANCH  35  39
ATOM     39  C   UNL     1     -16.936  -7.553  -6.230  0.00  0.00    +0.111 C 
ATOM     40  C   UNL     1     -17.687  -6.317  -6.728  0.00  0.00    +0.025 C 
ENDBRANCH  35  39
ENDBRANCH  25  27
ENDBRANCH  22  23
ENDBRANCH  21  22
ENDBRANCH   1  21
TORSDOF 9
