REMARK  Name = ZINC10699652
REMARK  13 active torsions:
REMARK  status: ('A' for Active; 'I' for Inactive)
REMARK    1  A    between atoms: C_1  and  C_2
REMARK    2  A    between atoms: C_2  and  O_3
REMARK    3  A    between atoms: O_3  and  C_4
REMARK    4  A    between atoms: N_13  and  C_14
REMARK    5  A    between atoms: C_14  and  C_15
REMARK    6  A    between atoms: C_15  and  N_61
REMARK    7  A    between atoms: C_16  and  N_61
REMARK    8  A    between atoms: C_17  and  N_61
REMARK    9  A    between atoms: C_18  and  C_20
REMARK   10  A    between atoms: C_20  and  C_21
REMARK   11  A    between atoms: C_22  and  C_29
REMARK   12  A    between atoms: C_24  and  C_28
REMARK   13  A    between atoms: C_26  and  C_27
REMARK                            x       y       z     vdW  Elec       q    Type
REMARK                         _______ _______ _______ _____ _____    ______ ____
ROOT
ATOM      1  C   UNL     1      -6.239   5.935  -7.442  0.00  0.00    +0.122 A 
ATOM      2  C   UNL     1      -7.197   6.471  -6.587  0.00  0.00    +0.048 A 
ATOM      3  C   UNL     1      -7.063   6.395  -5.226  0.00  0.00    +0.032 A 
ATOM      4  C   UNL     1      -5.939   5.766  -4.643  0.00  0.00    +0.081 A 
ATOM      5  C   UNL     1      -4.986   5.232  -5.539  0.00  0.00    +0.044 A 
ATOM      6  C   UNL     1      -5.124   5.311  -6.902  0.00  0.00    +0.063 A 
ATOM      7  S   UNL     1      -3.767   4.557  -4.437  0.00  0.00    -0.052 S 
ATOM      8  C   UNL     1      -4.577   5.001  -2.907  0.00  0.00    +0.168 A 
ATOM      9  N   UNL     1      -5.660   5.608  -3.329  0.00  0.00    -0.224 NA
ATOM     10  N   UNL     1      -4.162   4.769  -1.605  0.00  0.00    -0.252 N 
ATOM     11  C   UNL     1      -3.003   4.121  -1.372  0.00  0.00    +0.226 C 
ATOM     12  O   UNL     1      -2.324   3.741  -2.301  0.00  0.00    -0.275 OA
ENDROOT
BRANCH   1  13
ATOM     13  O   UNL     1      -6.393   6.023  -8.790  0.00  0.00    -0.492 OA
BRANCH  13  15
ATOM     14  C   UNL     1      -7.567   6.682 -10.797  0.00  0.00    +0.048 C 
ATOM     15  C   UNL     1      -7.569   6.681  -9.267  0.00  0.00    +0.225 C 
ENDBRANCH  13  15
ENDBRANCH   1  13
BRANCH  10  16
ATOM     16  C   UNL     1      -4.983   5.228  -0.482  0.00  0.00    +0.097 C 
BRANCH  16  17
ATOM     17  C   UNL     1      -4.565   6.647  -0.090  0.00  0.00    -0.060 C 
BRANCH  17  20
ATOM     18  C   UNL     1      -5.117   6.317   2.244  0.00  0.00    -0.097 C 
ATOM     19  C   UNL     1      -5.183   8.540   1.287  0.00  0.00    -0.097 C 
ATOM     20  N   UNL     1      -5.416   7.103   1.029  0.00  0.00    +0.377 N 
ATOM     21  H   UNL     1      -6.401   6.965   0.776  0.00  0.00    -0.083 HD
ENDBRANCH  17  20
ENDBRANCH  16  17
ENDBRANCH  10  16
BRANCH  11  22
ATOM     22  C   UNL     1      -2.553   3.869   0.044  0.00  0.00    +0.132 C 
BRANCH  22  23
ATOM     23  C   UNL     1      -1.238   3.133   0.029  0.00  0.00    -0.033 A 
ATOM     24  C   UNL     1      -1.219   1.751   0.017  0.00  0.00    -0.046 A 
ATOM     25  C   UNL     1      -0.013   1.076   0.008  0.00  0.00    +0.007 A 
ATOM     26  C   UNL     1       1.175   1.783   0.000  0.00  0.00    -0.050 A 
ATOM     27  C   UNL     1       1.156   3.165   0.008  0.00  0.00    +0.007 A 
ATOM     28  C   UNL     1      -0.050   3.840   0.022  0.00  0.00    -0.046 A 
ATOM     29  C   UNL     1      -0.070   5.347   0.030  0.00  0.00    +0.044 C 
ATOM     30  C   UNL     1       2.490   1.048  -0.016  0.00  0.00    +0.044 C 
ATOM     31  C   UNL     1      -2.514   0.980   0.019  0.00  0.00    +0.044 C 
ENDBRANCH  22  23
ENDBRANCH  11  22
TORSDOF 7
