REMARK  Name = ZINC15670977
REMARK  4 active torsions:
REMARK  status: ('A' for Active; 'I' for Inactive)
REMARK    1  A    between atoms: C_1  and  N_2
REMARK    2  A    between atoms: N_2  and  C_3
REMARK    3  A    between atoms: C_9  and  C_11
REMARK    4  A    between atoms: C_12  and  N_28
REMARK                            x       y       z     vdW  Elec       q    Type
REMARK                         _______ _______ _______ _____ _____    ______ ____
ROOT
ATOM      1  C   UNL     1      -6.454   0.538  -1.220  0.00  0.00    +0.097 A 
ATOM      2  C   UNL     1      -5.120   0.809  -1.441  0.00  0.00    +0.054 A 
ATOM      3  C   UNL     1      -4.417   1.641  -0.478  0.00  0.00    +0.031 A 
ATOM      4  C   UNL     1      -3.053   2.049  -0.497  0.00  0.00    -0.030 A 
ATOM      5  C   UNL     1      -2.581   2.836   0.499  0.00  0.00    -0.005 A 
ATOM      6  C   UNL     1      -3.436   3.235   1.540  0.00  0.00    +0.103 A 
ATOM      7  C   UNL     1      -5.197   2.092   0.607  0.00  0.00    +0.089 A 
ATOM      8  S   UNL     1      -6.803   1.401   0.300  0.00  0.00    -0.064 S 
ATOM      9  N   UNL     1      -2.946   4.037   2.560  0.00  0.00    -0.316 N 
ATOM     10  C   UNL     1      -2.496   5.351   2.034  0.00  0.00    +0.106 C 
ATOM     11  C   UNL     1      -2.497   6.255   3.292  0.00  0.00    +0.020 C 
ATOM     12  C   UNL     1      -3.739   5.765   4.069  0.00  0.00    +0.020 C 
ATOM     13  C   UNL     1      -4.002   4.339   3.550  0.00  0.00    +0.106 C 
ATOM     14  C   UNL     1      -1.154   3.324   0.542  0.00  0.00    +0.039 C 
ATOM     15  C   UNL     1      -0.272   2.479  -0.375  0.00  0.00    +0.005 C 
ATOM     16  C   UNL     1      -0.933   2.413  -1.757  0.00  0.00    +0.005 C 
ATOM     17  C   UNL     1      -2.203   1.570  -1.642  0.00  0.00    +0.036 C 
ATOM     18  N   UNL     1      -4.746   2.876   1.616  0.00  0.00    -0.337 N 
ATOM     19  H   UNL     1      -5.352   3.178   2.388  0.00  0.00    +0.168 HD
ENDROOT
BRANCH   1  22
ATOM     20  C   UNL     1      -8.988  -0.073  -0.228  0.00  0.00    +0.138 C 
ATOM     21  N   UNL     1      -8.573  -0.521  -1.560  0.00  0.00    -0.270 N 
ATOM     22  C   UNL     1      -7.335  -0.237  -2.011  0.00  0.00    +0.259 C 
ATOM     23  O   UNL     1      -6.974  -0.649  -3.099  0.00  0.00    -0.269 OA
BRANCH  21  24
ATOM     24  C   UNL     1      -9.461  -1.243  -2.362  0.00  0.00    +0.036 A 
ATOM     25  C   UNL     1      -9.147  -1.501  -3.691  0.00  0.00    +0.023 A 
ATOM     26  C   UNL     1     -10.024  -2.219  -4.479  0.00  0.00    +0.002 A 
ATOM     27  C   UNL     1     -11.220  -2.671  -3.951  0.00  0.00    +0.000 A 
ATOM     28  C   UNL     1     -11.538  -2.412  -2.631  0.00  0.00    +0.002 A 
ATOM     29  C   UNL     1     -10.663  -1.700  -1.835  0.00  0.00    +0.023 A 
ENDBRANCH  21  24
ENDBRANCH   1  22
BRANCH   2  30
ATOM     30  N   UNL     1      -4.466   0.300  -2.554  0.00  0.00    -0.356 N 
ATOM     31  H   UNL     1      -3.508   0.149  -2.527  0.00  0.00    +0.142 HD
ATOM     32  H   UNL     1      -4.966   0.097  -3.360  0.00  0.00    +0.142 HD
ENDBRANCH   2  30
TORSDOF 3
