REMARK  Name = ZINC27528479
REMARK  5 active torsions:
REMARK  status: ('A' for Active; 'I' for Inactive)
REMARK    1  A    between atoms: C_1  and  C_2
REMARK    2  A    between atoms: C_4  and  N_33
REMARK    3  A    between atoms: C_7  and  N_8
REMARK    4  A    between atoms: C_17  and  C_31
REMARK    5  A    between atoms: C_31  and  O_32
REMARK                            x       y       z     vdW  Elec       q    Type
REMARK                         _______ _______ _______ _____ _____    ______ ____
ROOT
ATOM      1  N   UNL     1       0.026  -0.013   2.419  0.00  0.00    -0.210 N 
ATOM      2  C   UNL     1      -1.114   0.337   3.084  0.00  0.00    +0.231 C 
ATOM      3  O   UNL     1      -2.244   0.345   2.644  0.00  0.00    -0.274 OA
ATOM      4  C   UNL     1      -0.676   0.716   4.495  0.00  0.00    +0.101 C 
ATOM      5  C   UNL     1       0.675   1.333   4.042  0.00  0.00    +0.106 C 
ATOM      6  C   UNL     1       1.179   0.376   3.066  0.00  0.00    +0.231 C 
ATOM      7  O   UNL     1       2.320   0.015   2.870  0.00  0.00    -0.274 OA
ATOM      8  C   UNL     1       1.301   2.295   5.005  0.00  0.00    +0.056 C 
ATOM      9  C   UNL     1       0.437   3.511   4.557  0.00  0.00    -0.030 A 
ATOM     10  C   UNL     1       0.950   4.727   4.238  0.00  0.00    +0.005 A 
ATOM     11  C   UNL     1       0.077   5.707   3.775  0.00  0.00    +0.000 A 
ATOM     12  C   UNL     1      -1.269   5.423   3.643  0.00  0.00    +0.000 A 
ATOM     13  C   UNL     1      -1.778   4.183   3.999  0.00  0.00    +0.004 A 
ATOM     14  C   UNL     1      -0.920   3.228   4.495  0.00  0.00    -0.035 A 
ATOM     15  C   UNL     1      -1.448   1.924   5.104  0.00  0.00    +0.062 C 
ATOM     16  C   UNL     1      -0.717   1.938   6.465  0.00  0.00    -0.035 A 
ATOM     17  C   UNL     1       0.677   2.061   6.394  0.00  0.00    -0.030 A 
ATOM     18  C   UNL     1       1.440   1.998   7.532  0.00  0.00    +0.005 A 
ATOM     19  C   UNL     1       0.802   1.840   8.755  0.00  0.00    +0.000 A 
ATOM     20  C   UNL     1      -0.576   1.752   8.827  0.00  0.00    +0.000 A 
ATOM     21  C   UNL     1      -1.357   1.800   7.662  0.00  0.00    +0.004 A 
ENDROOT
BRANCH   1  28
ATOM     22  C   UNL     1      -0.018   1.503   0.010  0.00  0.00    +0.046 C 
ATOM     23  C   UNL     1       0.002  -0.004   0.002  0.00  0.00    -0.026 A 
ATOM     24  C   UNL     1       0.006  -0.689  -1.198  0.00  0.00    +0.038 A 
ATOM     25  C   UNL     1       0.024  -2.071  -1.206  0.00  0.00    +0.127 A 
ATOM     26  C   UNL     1       0.040  -2.773  -0.014  0.00  0.00    +0.034 A 
ATOM     27  C   UNL     1       0.035  -2.094   1.188  0.00  0.00    +0.026 A 
ATOM     28  C   UNL     1       0.023  -0.705   1.200  0.00  0.00    +0.047 A 
BRANCH  25  29
ATOM     29  N   UNL     1       0.028  -2.802  -2.493  0.00  0.00    +0.056 N 
ATOM     30  O   UNL     1       0.014  -2.190  -3.536  0.00  0.00    -0.126 OA
ATOM     31  O   UNL     1       0.044  -4.011  -2.502  0.00  0.00    -0.126 OA
ENDBRANCH  25  29
ENDBRANCH   1  28
BRANCH   8  32
ATOM     32  C   UNL     1       2.825   2.421   4.955  0.00  0.00    +0.172 C 
BRANCH  32  33
ATOM     33  O   UNL     1       3.256   3.372   5.931  0.00  0.00    -0.394 OA
ATOM     34  H   UNL     1       4.214   3.503   5.956  0.00  0.00    +0.209 HD
ENDBRANCH  32  33
ENDBRANCH   8  32
TORSDOF 4
