REMARK  Name = ZINC39006696
REMARK  6 active torsions:
REMARK  status: ('A' for Active; 'I' for Inactive)
REMARK    1  A    between atoms: C_1  and  C_2
REMARK    2  A    between atoms: C_2  and  C_3
REMARK    3  A    between atoms: C_2  and  C_4
REMARK    4  A    between atoms: C_4  and  N_5
REMARK    5  A    between atoms: C_12  and  O_31
REMARK    6  A    between atoms: C_14  and  C_18
REMARK                            x       y       z     vdW  Elec       q    Type
REMARK                         _______ _______ _______ _____ _____    ______ ____
ROOT
ATOM      1  N   UNL     1      -1.416  -1.993  -0.116  0.00  0.00    -0.270 N 
ATOM      2  C   UNL     1      -1.451  -2.579  -1.385  0.00  0.00    +0.042 A 
ATOM      3  C   UNL     1      -1.118  -1.833  -2.507  0.00  0.00    +0.024 A 
ATOM      4  C   UNL     1      -1.153  -2.418  -3.758  0.00  0.00    +0.002 A 
ATOM      5  C   UNL     1      -1.520  -3.744  -3.893  0.00  0.00    +0.000 A 
ATOM      6  C   UNL     1      -1.852  -4.490  -2.776  0.00  0.00    +0.008 A 
ATOM      7  C   UNL     1      -1.818  -3.910  -1.523  0.00  0.00    +0.003 A 
ATOM      8  C   UNL     1      -2.179  -4.720  -0.305  0.00  0.00    +0.167 C 
ATOM      9  C   UNL     1      -1.332  -4.261   0.882  0.00  0.00    +0.194 C 
ATOM     10  C   UNL     1      -1.362  -2.760   0.989  0.00  0.00    +0.235 C 
ATOM     11  O   UNL     1      -1.343  -2.236   2.082  0.00  0.00    -0.274 OA
ENDROOT
BRANCH   9  12
ATOM     12  C   UNL     1      -1.879  -4.864   2.151  0.00  0.00    +0.233 C 
ATOM     13  O   UNL     1      -2.850  -5.589   2.107  0.00  0.00    -0.274 OA
ATOM     14  N   UNL     1      -1.289  -4.598   3.333  0.00  0.00    -0.264 N 
ATOM     15  C   UNL     1      -1.792  -5.153   4.498  0.00  0.00    +0.165 A 
ATOM     16  N   UNL     1      -2.818  -5.956   4.652  0.00  0.00    -0.225 NA
ATOM     17  C   UNL     1      -3.199  -6.425   5.860  0.00  0.00    +0.080 A 
ATOM     18  C   UNL     1      -4.278  -7.289   6.161  0.00  0.00    +0.032 A 
ATOM     19  C   UNL     1      -4.531  -7.672   7.452  0.00  0.00    +0.040 A 
ATOM     20  C   UNL     1      -3.743  -7.229   8.507  0.00  0.00    +0.125 A 
ATOM     21  C   UNL     1      -2.679  -6.381   8.249  0.00  0.00    +0.055 A 
ATOM     22  C   UNL     1      -2.420  -5.994   6.958  0.00  0.00    +0.043 A 
ATOM     23  S   UNL     1      -1.202  -4.963   6.175  0.00  0.00    -0.052 S 
ATOM     24  F   UNL     1      -4.014  -7.619   9.772  0.00  0.00    -0.205 F 
ATOM     25  H   UNL     1      -0.512  -4.019   3.367  0.00  0.00    +0.157 HD
ENDBRANCH   9  12
BRANCH   8  26
ATOM     26  O   UNL     1      -3.563  -4.533  -0.002  0.00  0.00    -0.386 OA
ATOM     27  H   UNL     1      -4.161  -4.804  -0.712  0.00  0.00    +0.210 HD
ENDBRANCH   8  26
BRANCH   1  28
ATOM     28  C   UNL     1      -1.433  -0.534   0.013  0.00  0.00    +0.116 C 
BRANCH  28  30
ATOM     29  C   UNL     1      -0.019   1.526   0.010  0.00  0.00    +0.009 C 
ATOM     30  C   UNL     1       0.002  -0.004   0.002  0.00  0.00    +0.001 C 
ATOM     31  C   UNL     1       0.742  -0.511   1.242  0.00  0.00    +0.009 C 
ENDBRANCH  28  30
ENDBRANCH   1  28
TORSDOF 4
