REMARK  Name = ZINC28429663
REMARK  7 active torsions:
REMARK  status: ('A' for Active; 'I' for Inactive)
REMARK    1  A    between atoms: C_1  and  C_2
REMARK    2  A    between atoms: C_2  and  C_3
REMARK    3  A    between atoms: C_2  and  C_4
REMARK    4  A    between atoms: C_12  and  C_17
REMARK    5  A    between atoms: C_17  and  C_18
REMARK    6  A    between atoms: C_17  and  C_19
REMARK    7  A    between atoms: C_17  and  C_20
REMARK                            x       y       z     vdW  Elec       q    Type
REMARK                         _______ _______ _______ _____ _____    ______ ____
ROOT
ATOM      1  C   UNL     1      -4.000  -4.263   1.849  0.00  0.00    +0.155 A 
ATOM      2  N   UNL     1      -3.011  -3.857   2.642  0.00  0.00    -0.205 NA
ATOM      3  C   UNL     1      -2.758  -2.599   2.405  0.00  0.00    +0.196 A 
ATOM      4  N   UNL     1      -3.589  -2.140   1.433  0.00  0.00    -0.210 N 
ATOM      5  N   UNL     1      -4.386  -3.266   1.098  0.00  0.00    -0.149 NA
ATOM      6  C   UNL     1      -3.473  -0.817   1.039  0.00  0.00    +0.058 A 
ATOM      7  C   UNL     1      -2.543  -0.058   1.640  0.00  0.00    +0.032 A 
ATOM      8  S   UNL     1      -1.781  -1.166   2.795  0.00  0.00    -0.051 S 
ATOM      9  C   UNL     1      -2.242   1.381   1.377  0.00  0.00    +0.098 C 
ATOM     10  N   UNL     1      -2.888   1.764   0.107  0.00  0.00    -0.308 NA
ATOM     11  C   UNL     1      -4.290   1.320   0.089  0.00  0.00    +0.087 C 
ATOM     12  C   UNL     1      -4.359  -0.203  -0.042  0.00  0.00    +0.071 C 
ATOM     13  H   UNL     1      -2.858   2.857  -0.004  0.00  0.00    +0.123 HD
ENDROOT
BRANCH   9  14
ATOM     14  C   UNL     1      -0.729   1.579   1.267  0.00  0.00    -0.018 C 
ATOM     15  C   UNL     1      -0.162   0.610   0.228  0.00  0.00    +0.012 C 
ATOM     16  C   UNL     1      -0.078   1.309   2.625  0.00  0.00    +0.012 C 
ATOM     17  C   UNL     1      -0.433   3.018   0.837  0.00  0.00    +0.012 C 
ENDBRANCH   9  14
BRANCH   1  19
ATOM     18  C   UNL     1      -3.485  -6.657   1.460  0.00  0.00    +0.015 C 
ATOM     19  C   UNL     1      -4.582  -5.653   1.821  0.00  0.00    +0.053 C 
ATOM     20  C   UNL     1      -5.154  -5.995   3.198  0.00  0.00    +0.015 C 
ENDBRANCH   1  19
TORSDOF 2
