REMARK  Name = ZINC20433430
REMARK  4 active torsions:
REMARK  status: ('A' for Active; 'I' for Inactive)
REMARK    1  A    between atoms: C_6  and  C_7
REMARK    2  A    between atoms: C_7  and  C_9
REMARK    3  A    between atoms: C_7  and  O_20
REMARK    4  A    between atoms: C_15  and  C_17
REMARK                            x       y       z     vdW  Elec       q    Type
REMARK                         _______ _______ _______ _____ _____    ______ ____
ROOT
ATOM      1  C   UNL     1      -3.735   5.736  -1.556  0.00  0.00    +0.008 A 
ATOM      2  C   UNL     1      -4.433   6.037  -2.710  0.00  0.00    +0.028 A 
ATOM      3  C   UNL     1      -3.749   6.212  -3.903  0.00  0.00    +0.067 A 
ATOM      4  C   UNL     1      -2.358   6.090  -3.932  0.00  0.00    +0.067 A 
ATOM      5  C   UNL     1      -1.667   5.793  -2.768  0.00  0.00    +0.034 A 
ATOM      6  C   UNL     1      -2.356   5.620  -1.584  0.00  0.00    -0.017 A 
ATOM      7  N   UNL     1      -1.962   6.317  -5.248  0.00  0.00    -0.306 N 
ATOM      8  H   UNL     1      -0.896   6.272  -5.517  0.00  0.00    +0.170 HD
ATOM      9  C   UNL     1      -3.061   6.566  -5.985  0.00  0.00    +0.325 A 
ATOM     10  O   UNL     1      -3.065   6.805  -7.178  0.00  0.00    -0.247 OA
ATOM     11  N   UNL     1      -4.154   6.510  -5.202  0.00  0.00    -0.306 N 
ATOM     12  H   UNL     1      -5.222   6.653  -5.426  0.00  0.00    +0.170 HD
ENDROOT
BRANCH   6  13
ATOM     13  C   UNL     1      -1.605   5.297  -0.318  0.00  0.00    +0.148 C 
BRANCH  13  14
ATOM     14  C   UNL     1      -1.589   3.782  -0.107  0.00  0.00    +0.036 C 
ATOM     15  C   UNL     1      -0.945   3.462   1.244  0.00  0.00    +0.007 C 
ATOM     16  C   UNL     1      -0.929   1.947   1.455  0.00  0.00    +0.000 C 
ATOM     17  C   UNL     1      -0.123   1.284   0.336  0.00  0.00    +0.001 C 
ATOM     18  C   UNL     1      -0.767   1.604  -1.015  0.00  0.00    +0.015 C 
ATOM     19  C   UNL     1      -0.783   3.120  -1.226  0.00  0.00    +0.108 C 
BRANCH  19  20
ATOM     20  C   UNL     1       0.630   3.644  -1.206  0.00  0.00    +0.359 C 
ATOM     21  O   UNL     1       0.979   4.406  -0.335  0.00  0.00    -0.246 OA
ATOM     22  O   UNL     1       1.500   3.266  -2.155  0.00  0.00    -0.246 OA
ENDBRANCH  19  20
ENDBRANCH  13  14
BRANCH  13  23
ATOM     23  O   UNL     1      -2.249   5.926   0.792  0.00  0.00    -0.387 OA
ATOM     24  H   UNL     1      -1.841   5.804   1.806  0.00  0.00    +0.210 HD
ENDBRANCH  13  23
ENDBRANCH   6  13
TORSDOF 4
