REMARK  Name = ZINC32104089
REMARK  9 active torsions:
REMARK  status: ('A' for Active; 'I' for Inactive)
REMARK    1  A    between atoms: C_1  and  C_2
REMARK    2  A    between atoms: C_2  and  CA_3
REMARK    3  A    between atoms: CA_3  and  C_5
REMARK    4  A    between atoms: CA_3  and  N_7
REMARK    5  A    between atoms: C_5  and  O_6
REMARK    6  A    between atoms: C_12  and  C_16
REMARK    7  A    between atoms: C_13  and  C_15
REMARK    8  A    between atoms: C_20  and  C_22
REMARK    9  A    between atoms: C_22  and  C_23
REMARK                            x       y       z     vdW  Elec       q    Type
REMARK                         _______ _______ _______ _____ _____    ______ ____
ROOT
ATOM      1  N   UNL     1       0.530   3.511   1.268  0.00  0.00    -0.308 N 
ATOM      2  C   UNL     1       0.753   4.782   1.747  0.00  0.00    +0.220 A 
ATOM      3  N   UNL     1       1.522   5.600   1.067  0.00  0.00    -0.207 NA
ATOM      4  C   UNL     1       1.769   6.839   1.475  0.00  0.00    +0.116 A 
ATOM      5  C   UNL     1       1.232   7.352   2.669  0.00  0.00    +0.055 A 
ATOM      6  C   UNL     1       1.604   8.721   2.972  0.00  0.00    -0.028 A 
ATOM      7  C   UNL     1       2.407   9.385   2.125  0.00  0.00    -0.008 A 
ATOM      8  S   UNL     1       2.724   8.192   0.838  0.00  0.00    -0.073 S 
ATOM      9  C   UNL     1       2.919  10.798   2.236  0.00  0.00    +0.052 C 
ATOM     10  C   UNL     1       1.095   9.390   4.223  0.00  0.00    +0.045 C 
ATOM     11  C   UNL     1       0.375   6.418   3.424  0.00  0.00    +0.170 A 
ATOM     12  N   UNL     1       0.173   5.164   2.923  0.00  0.00    -0.181 N 
ATOM     13  N   UNL     1      -0.668   4.515   3.838  0.00  0.00    -0.147 NA
ATOM     14  C   UNL     1      -0.921   5.367   4.801  0.00  0.00    +0.156 A 
ATOM     15  N   UNL     1      -0.295   6.515   4.556  0.00  0.00    -0.210 NA
ATOM     16  H   UNL     1      -0.108   2.814   1.831  0.00  0.00    +0.149 HD
ENDROOT
BRANCH   1  17
ATOM     17  CA  UNL     1       1.145   3.085   0.008  0.00  0.00    +0.098 C 
BRANCH  17  19
ATOM     18  C   UNL     1       0.222   5.051  -1.228  0.00  0.00    +0.006 C 
ATOM     19  C   UNL     1       0.263   3.523  -1.163  0.00  0.00    +0.021 C 
ENDBRANCH  17  19
BRANCH  17  20
ATOM     20  C   UNL     1       1.286   1.562  -0.002  0.00  0.00    +0.178 C 
BRANCH  20  21
ATOM     21  O   UNL     1      -0.011   0.963   0.007  0.00  0.00    -0.393 OA
ATOM     22  H   UNL     1      -0.111  -0.133   0.002  0.00  0.00    +0.209 HD
ENDBRANCH  20  21
ENDBRANCH  17  20
ENDBRANCH   1  17
BRANCH  14  23
ATOM     23  C   UNL     1      -1.787   5.089   6.002  0.00  0.00    +0.113 C 
BRANCH  23  24
ATOM     24  C   UNL     1      -3.213   5.464   5.690  0.00  0.00    -0.040 A 
ATOM     25  C   UNL     1      -3.665   6.744   5.956  0.00  0.00    +0.004 A 
ATOM     26  C   UNL     1      -4.972   7.089   5.665  0.00  0.00    +0.000 A 
ATOM     27  C   UNL     1      -5.829   6.152   5.119  0.00  0.00    +0.000 A 
ATOM     28  C   UNL     1      -5.379   4.872   4.859  0.00  0.00    +0.000 A 
ATOM     29  C   UNL     1      -4.071   4.528   5.144  0.00  0.00    +0.004 A 
ENDBRANCH  23  24
ENDBRANCH  14  23
TORSDOF 6
