REMARK  Name = ZINC03011993
REMARK  6 active torsions:
REMARK  status: ('A' for Active; 'I' for Inactive)
REMARK    1  A    between atoms: C_1  and  C_2
REMARK    2  A    between atoms: C_6  and  N_9
REMARK    3  A    between atoms: C_7  and  C_8
REMARK    4  A    between atoms: C_10  and  C_12
REMARK    5  A    between atoms: C_17  and  C_30
REMARK    6  A    between atoms: C_20  and  C_23
REMARK                            x       y       z     vdW  Elec       q    Type
REMARK                         _______ _______ _______ _____ _____    ______ ____
ROOT
ATOM      1  C   UNL     1      -0.129  -4.883   3.659  0.00  0.00    +0.149 A 
ATOM      2  C   UNL     1      -0.217  -6.287   3.797  0.00  0.00    +0.078 A 
ATOM      3  C   UNL     1      -0.286  -6.562   5.115  0.00  0.00    +0.119 A 
ATOM      4  N   UNL     1      -0.246  -5.381   5.799  0.00  0.00    -0.238 N 
ATOM      5  N   UNL     1      -0.141  -4.349   4.867  0.00  0.00    -0.164 NA
ATOM      6  C   UNL     1      -0.304  -5.285   7.261  0.00  0.00    +0.215 C 
ATOM      7  C   UNL     1      -0.886  -6.588   7.820  0.00  0.00    +0.063 C 
ATOM      8  C   UNL     1      -0.150  -7.790   7.217  0.00  0.00    +0.104 C 
ATOM      9  N   UNL     1      -0.381  -7.799   5.759  0.00  0.00    -0.322 N 
ATOM     10  H   UNL     1      -0.588  -8.615   5.277  0.00  0.00    +0.148 HD
ENDROOT
BRANCH   8  11
ATOM     11  C   UNL     1       1.326  -7.673   7.499  0.00  0.00    -0.027 A 
ATOM     12  C   UNL     1       2.113  -6.841   6.724  0.00  0.00    +0.007 A 
ATOM     13  C   UNL     1       3.467  -6.734   6.982  0.00  0.00    +0.020 A 
ATOM     14  C   UNL     1       4.034  -7.458   8.015  0.00  0.00    +0.041 A 
ATOM     15  C   UNL     1       3.245  -8.290   8.790  0.00  0.00    +0.020 A 
ATOM     16  C   UNL     1       1.891  -8.393   8.535  0.00  0.00    +0.007 A 
ATOM     17 CL   UNL     1       5.734  -7.324   8.339  0.00  0.00    -0.084 Cl
ENDBRANCH   8  11
BRANCH   1  19
ATOM     18  N   UNL     1       0.051  -2.797   2.392  0.00  0.00    -0.280 N 
ATOM     19  C   UNL     1      -0.033  -4.142   2.385  0.00  0.00    +0.268 C 
ATOM     20  O   UNL     1      -0.030  -4.746   1.329  0.00  0.00    -0.268 OA
ATOM     21  H   UNL     1       0.130  -2.321   3.233  0.00  0.00    +0.155 HD
BRANCH  18  27
ATOM     22  C   UNL     1       1.207   1.235  -0.171  0.00  0.00    +0.044 C 
ATOM     23  C   UNL     1       0.578  -0.131  -0.084  0.00  0.00    -0.046 A 
ATOM     24  C   UNL     1      -0.027  -0.686  -1.198  0.00  0.00    +0.004 A 
ATOM     25  C   UNL     1      -0.605  -1.939  -1.122  0.00  0.00    +0.002 A 
ATOM     26  C   UNL     1      -0.581  -2.642   0.067  0.00  0.00    +0.023 A 
ATOM     27  C   UNL     1       0.025  -2.088   1.187  0.00  0.00    +0.037 A 
ATOM     28  C   UNL     1       0.610  -0.831   1.106  0.00  0.00    -0.026 A 
ATOM     29  C   UNL     1       1.275  -0.229   2.317  0.00  0.00    +0.046 C 
ENDBRANCH  18  27
ENDBRANCH   1  19
BRANCH   6  30
ATOM     30  C   UNL     1      -1.196  -4.109   7.662  0.00  0.00    +0.412 C 
ATOM     31  F   UNL     1      -2.485  -4.307   7.157  0.00  0.00    -0.168 F 
ATOM     32  F   UNL     1      -1.250  -4.020   9.057  0.00  0.00    -0.168 F 
ATOM     33  F   UNL     1      -0.667  -2.924   7.139  0.00  0.00    -0.168 F 
ENDBRANCH   6  30
TORSDOF 4
