REMARK  Name = ZINC20591101
REMARK  5 active torsions:
REMARK  status: ('A' for Active; 'I' for Inactive)
REMARK    1  A    between atoms: C_1  and  C_2
REMARK    2  A    between atoms: C_2  and  C_3
REMARK    3  A    between atoms: C_3  and  C_4
REMARK    4  A    between atoms: C_13  and  C_23
REMARK    5  A    between atoms: C_16  and  C_18
REMARK                            x       y       z     vdW  Elec       q    Type
REMARK                         _______ _______ _______ _____ _____    ______ ____
ROOT
ATOM      1  C   UNL     1      -1.273   8.887  -6.029  0.00  0.00    +0.216 C 
ATOM      2  O   UNL     1      -1.665  10.004  -5.765  0.00  0.00    -0.276 OA
ATOM      3  N   UNL     1      -1.731   7.830  -5.330  0.00  0.00    -0.298 N 
ATOM      4  C   UNL     1      -2.706   8.008  -4.243  0.00  0.00    +0.126 C 
ATOM      5  C   UNL     1      -2.180   7.292  -2.994  0.00  0.00    +0.125 C 
ATOM      6  N   UNL     1      -1.872   5.895  -3.329  0.00  0.00    -0.311 N 
ATOM      7  C   UNL     1      -0.800   5.811  -4.330  0.00  0.00    +0.125 C 
ATOM      8  C   UNL     1      -1.269   6.467  -5.633  0.00  0.00    +0.126 C 
ATOM      9  C   UNL     1      -1.549   5.173  -2.193  0.00  0.00    +0.139 A 
ATOM     10  C   UNL     1      -2.344   4.082  -1.806  0.00  0.00    +0.095 A 
ATOM     11  C   UNL     1      -1.997   3.363  -0.652  0.00  0.00    -0.022 A 
ATOM     12  C   UNL     1      -0.884   3.756   0.056  0.00  0.00    -0.022 A 
ATOM     13  C   UNL     1      -0.149   4.848  -0.390  0.00  0.00    +0.044 A 
ATOM     14  N   UNL     1      -0.490   5.511  -1.474  0.00  0.00    -0.236 NA
ATOM     15  C   UNL     1       1.067   5.282   0.387  0.00  0.00    +0.066 C 
ATOM     16  C   UNL     1      -0.423   3.042   1.298  0.00  0.00    +0.037 C 
ATOM     17  C   UNL     1      -1.544   2.177   1.869  0.00  0.00    +0.005 C 
ATOM     18  C   UNL     1      -2.108   1.303   0.743  0.00  0.00    +0.005 C 
ATOM     19  C   UNL     1      -2.856   2.200  -0.243  0.00  0.00    +0.037 C 
ENDROOT
BRANCH  10  20
ATOM     20  C   UNL     1      -3.492   3.709  -2.577  0.00  0.00    +0.103 C 
ATOM     21  N   UNL     1      -4.403   3.414  -3.189  0.00  0.00    -0.191 NA
ENDBRANCH  10  20
BRANCH   1  22
ATOM     22  C   UNL     1      -0.275   8.681  -7.138  0.00  0.00    +0.096 C 
BRANCH  22  24
ATOM     23  C   UNL     1       1.092   9.822  -8.891  0.00  0.00    +0.004 C 
ATOM     24  C   UNL     1       0.078  10.031  -7.765  0.00  0.00    +0.006 C 
ENDBRANCH  22  24
ENDBRANCH   1  22
TORSDOF 3
