REMARK  Name = ZINC12833252
REMARK  9 active torsions:
REMARK  status: ('A' for Active; 'I' for Inactive)
REMARK    1  A    between atoms: C_1  and  C_2
REMARK    2  A    between atoms: C_4  and  C_37
REMARK    3  A    between atoms: C_7  and  C_14
REMARK    4  A    between atoms: C_14  and  N_69
REMARK    5  A    between atoms: C_15  and  C_16
REMARK    6  A    between atoms: C_15  and  N_69
REMARK    7  A    between atoms: C_25  and  C_26
REMARK    8  A    between atoms: C_25  and  N_69
REMARK    9  A    between atoms: N_30  and  C_31
REMARK                            x       y       z     vdW  Elec       q    Type
REMARK                         _______ _______ _______ _____ _____    ______ ____
ROOT
ATOM      1  N   UNL     1      -0.882  -2.815  -2.118  0.00  0.00    +0.390 N 
ATOM      2  H   UNL     1      -1.639  -3.490  -1.960  0.00  0.00    -0.080 HD
ENDROOT
BRANCH   1   3
ATOM      3  C   UNL     1      -0.233  -3.117  -3.412  0.00  0.00    -0.036 C 
BRANCH   3  10
ATOM      4  C   UNL     1      -5.826  -3.886  -9.046  0.00  0.00    +0.044 C 
ATOM      5  C   UNL     1      -4.757  -3.518  -8.050  0.00  0.00    -0.048 A 
ATOM      6  C   UNL     1      -4.272  -2.218  -8.012  0.00  0.00    +0.007 A 
ATOM      7  C   UNL     1      -3.303  -1.863  -7.117  0.00  0.00    -0.041 A 
ATOM      8  C   UNL     1      -2.795  -2.818  -6.230  0.00  0.00    +0.002 A 
ATOM      9  C   UNL     1      -1.760  -2.471  -5.255  0.00  0.00    +0.017 A 
ATOM     10  C   UNL     1      -1.301  -3.440  -4.424  0.00  0.00    +0.001 A 
ATOM     11  C   UNL     1      -1.825  -4.748  -4.501  0.00  0.00    +0.251 A 
ATOM     12  O   UNL     1      -1.403  -5.603  -3.742  0.00  0.00    -0.268 OA
ATOM     13  N   UNL     1      -2.780  -5.075  -5.390  0.00  0.00    -0.322 N 
ATOM     14  H   UNL     1      -3.118  -5.984  -5.416  0.00  0.00    +0.169 HD
ATOM     15  C   UNL     1      -3.284  -4.138  -6.266  0.00  0.00    +0.050 A 
ATOM     16  C   UNL     1      -4.271  -4.475  -7.186  0.00  0.00    +0.029 A 
ATOM     17  C   UNL     1      -2.785  -0.448  -7.084  0.00  0.00    +0.044 C 
ENDBRANCH   3  10
ENDBRANCH   1   3
BRANCH   1  18
ATOM     18  C   UNL     1       0.101  -2.930  -1.021  0.00  0.00    -0.042 C 
BRANCH  18  19
ATOM     19  C   UNL     1       0.375  -4.390  -0.767  0.00  0.00    -0.060 A 
ATOM     20  C   UNL     1      -0.447  -5.109   0.081  0.00  0.00    +0.005 A 
ATOM     21  C   UNL     1      -0.203  -6.450   0.312  0.00  0.00    +0.050 A 
ATOM     22  C   UNL     1       0.873  -7.074  -0.297  0.00  0.00    +0.166 A 
ATOM     23  C   UNL     1       1.704  -6.349  -1.147  0.00  0.00    +0.166 A 
ATOM     24  C   UNL     1       1.450  -5.006  -1.379  0.00  0.00    +0.051 A 
ATOM     25  O   UNL     1       2.680  -7.179  -1.617  0.00  0.00    -0.453 OA
ATOM     26  C   UNL     1       2.680  -8.313  -0.729  0.00  0.00    +0.466 C 
ATOM     27  O   UNL     1       1.329  -8.359  -0.234  0.00  0.00    -0.453 OA
ENDBRANCH  18  19
ENDBRANCH   1  18
BRANCH   1  28
ATOM     28  C   UNL     1      -1.452  -1.451  -2.146  0.00  0.00    +0.001 C 
BRANCH  28  29
ATOM     29  C   UNL     1      -2.381  -1.291  -0.970  0.00  0.00    +0.135 A 
ATOM     30  N   UNL     1      -3.634  -1.668  -0.906  0.00  0.00    -0.115 NA
ATOM     31  N   UNL     1      -4.084  -1.358   0.261  0.00  0.00    -0.023 NA
ATOM     32  N   UNL     1      -3.148  -0.798   0.945  0.00  0.00    -0.044 NA
ATOM     33  N   UNL     1      -2.084  -0.733   0.218  0.00  0.00    -0.228 N 
BRANCH  33  34
ATOM     34  C   UNL     1      -0.793  -0.165   0.615  0.00  0.00    +0.111 C 
ATOM     35  C   UNL     1      -0.938   1.346   0.806  0.00  0.00    +0.027 C 
ATOM     36  C   UNL     1       0.410   1.940   1.220  0.00  0.00    +0.002 C 
ATOM     37  C   UNL     1       0.867   1.301   2.533  0.00  0.00    +0.000 C 
ATOM     38  C   UNL     1       1.012  -0.210   2.342  0.00  0.00    +0.002 C 
ATOM     39  C   UNL     1      -0.337  -0.803   1.928  0.00  0.00    +0.027 C 
ENDBRANCH  33  34
ENDBRANCH  28  29
ENDBRANCH   1  28
TORSDOF 7
