REMARK  Name = ZINC59341776
REMARK  7 active torsions:
REMARK  status: ('A' for Active; 'I' for Inactive)
REMARK    1  A    between atoms: C_1  and  C_2
REMARK    2  A    between atoms: C_2  and  C_3
REMARK    3  A    between atoms: C_3  and  C_5
REMARK    4  A    between atoms: C_3  and  S_6
REMARK    5  A    between atoms: S_6  and  C_7
REMARK    6  A    between atoms: C_13  and  C_15
REMARK    7  A    between atoms: C_20  and  N_21
REMARK                            x       y       z     vdW  Elec       q    Type
REMARK                         _______ _______ _______ _____ _____    ______ ____
ROOT
ATOM      1  C   UNL     1      -4.099  -0.306   0.292  0.00  0.00    +0.160 A 
ATOM      2  N   UNL     1      -4.725  -1.222   1.017  0.00  0.00    -0.133 NA
ATOM      3  N   UNL     1      -5.909  -1.576   0.767  0.00  0.00    -0.125 NA
ATOM      4  C   UNL     1      -6.601  -1.054  -0.233  0.00  0.00    +0.189 A 
ATOM      5  S   UNL     1      -5.389   0.091  -0.885  0.00  0.00    -0.024 S 
ATOM      6  N   UNL     1      -7.901  -1.317  -0.654  0.00  0.00    -0.259 N 
ATOM      7  C   UNL     1      -8.649  -2.229  -0.003  0.00  0.00    +0.252 C 
ATOM      8  O   UNL     1      -8.188  -2.823   0.953  0.00  0.00    -0.270 OA
ATOM      9  H   UNL     1      -8.268  -0.843  -1.417  0.00  0.00    +0.157 HD
ENDROOT
BRANCH   7  10
ATOM     10  C   UNL     1     -10.029  -2.508  -0.450  0.00  0.00    +0.067 A 
ATOM     11  C   UNL     1     -10.951  -1.465  -0.572  0.00  0.00    +0.017 A 
ATOM     12  C   UNL     1     -12.237  -1.732  -0.990  0.00  0.00    +0.021 A 
ATOM     13  C   UNL     1     -12.616  -3.030  -1.290  0.00  0.00    +0.043 A 
ATOM     14  C   UNL     1     -11.707  -4.068  -1.171  0.00  0.00    +0.053 A 
ATOM     15  C   UNL     1     -10.416  -3.813  -0.759  0.00  0.00    +0.140 A 
ATOM     16 CL   UNL     1     -14.238  -3.358  -1.815  0.00  0.00    -0.083 Cl
BRANCH  15  17
ATOM     17  N   UNL     1      -9.443  -4.923  -0.639  0.00  0.00    +0.057 N 
ATOM     18  O   UNL     1      -9.809  -6.066  -0.786  0.00  0.00    -0.126 OA
ATOM     19  O   UNL     1      -8.283  -4.686  -0.394  0.00  0.00    -0.126 OA
ENDBRANCH  15  17
ENDBRANCH   7  10
BRANCH   1  20
ATOM     20  S   UNL     1      -2.468   0.342   0.448  0.00  0.00    -0.094 S 
BRANCH  20  21
ATOM     21  C   UNL     1      -1.775  -0.549   1.867  0.00  0.00    +0.050 C 
ATOM     22  C   UNL     1      -1.657  -2.037   1.527  0.00  0.00    +0.019 C 
BRANCH  21  24
ATOM     23  C   UNL     1      -0.521   1.463   2.654  0.00  0.00    +0.005 C 
ATOM     24  C   UNL     1      -0.389   0.010   2.194  0.00  0.00    +0.011 C 
ENDBRANCH  21  24
ENDBRANCH  20  21
ENDBRANCH   1  20
TORSDOF 5
