REMARK  Name = ZINC09949831
REMARK  9 active torsions:
REMARK  status: ('A' for Active; 'I' for Inactive)
REMARK    1  A    between atoms: C_1  and  C_2
REMARK    2  A    between atoms: C_2  and  C_4
REMARK    3  A    between atoms: C_2  and  N_57
REMARK    4  A    between atoms: C_7  and  S_16
REMARK    5  A    between atoms: N_8  and  C_9
REMARK    6  A    between atoms: S_16  and  C_17
REMARK    7  A    between atoms: C_17  and  C_18
REMARK    8  A    between atoms: N_20  and  C_21
REMARK    9  A    between atoms: C_21  and  C_22
REMARK                            x       y       z     vdW  Elec       q    Type
REMARK                         _______ _______ _______ _____ _____    ______ ____
ROOT
ATOM      1  C   UNL     1       0.715   0.346  -4.708  0.00  0.00    +0.125 A 
ATOM      2  N   UNL     1       1.311  -0.129  -3.651  0.00  0.00    -0.135 NA
ATOM      3  N   UNL     1       0.623   0.136  -2.598  0.00  0.00    -0.122 NA
ATOM      4  C   UNL     1      -0.460   0.801  -2.928  0.00  0.00    +0.197 A 
ATOM      5  N   UNL     1      -0.439   0.952  -4.287  0.00  0.00    -0.275 N 
ENDROOT
BRANCH   5   6
ATOM      6  C   UNL     1      -1.398   1.596  -5.083  0.00  0.00    +0.050 A 
ATOM      7  C   UNL     1      -2.134   0.870  -6.009  0.00  0.00    +0.029 A 
ATOM      8  C   UNL     1      -3.081   1.504  -6.788  0.00  0.00    +0.040 A 
ATOM      9  C   UNL     1      -3.289   2.867  -6.654  0.00  0.00    +0.124 A 
ATOM     10  C   UNL     1      -2.551   3.595  -5.735  0.00  0.00    +0.040 A 
ATOM     11  C   UNL     1      -1.607   2.962  -4.951  0.00  0.00    +0.029 A 
ATOM     12  F   UNL     1      -4.212   3.487  -7.421  0.00  0.00    -0.205 F 
ENDBRANCH   5   6
BRANCH   1  14
ATOM     13  C   UNL     1       2.381   1.196  -6.337  0.00  0.00    -0.005 C 
ATOM     14  C   UNL     1       1.202   0.242  -6.130  0.00  0.00    -0.002 C 
BRANCH  14  20
ATOM     15  C   UNL     1       2.087  -1.281  -7.790  0.00  0.00    -0.078 C 
ATOM     16  C   UNL     1       2.663  -2.684  -7.995  0.00  0.00    -0.019 C 
ATOM     17  C   UNL     1       1.585  -3.724  -7.679  0.00  0.00    -0.004 C 
ATOM     18  C   UNL     1       1.094  -3.520  -6.243  0.00  0.00    -0.019 C 
ATOM     19  C   UNL     1       0.564  -2.093  -6.089  0.00  0.00    -0.078 C 
ATOM     20  N   UNL     1       1.656  -1.141  -6.383  0.00  0.00    +0.386 N 
ATOM     21  H   UNL     1       2.452  -1.347  -5.768  0.00  0.00    -0.081 HD
ENDBRANCH  14  20
ENDBRANCH   1  14
BRANCH   4  22
ATOM     22  S   UNL     1      -1.708   1.382  -1.828  0.00  0.00    -0.076 S 
BRANCH  22  23
ATOM     23  C   UNL     1      -1.035   0.798  -0.252  0.00  0.00    +0.173 C 
BRANCH  23  24
ATOM     24  C   UNL     1      -1.963   1.193   0.868  0.00  0.00    +0.224 C 
ATOM     25  O   UNL     1      -2.980   1.808   0.624  0.00  0.00    -0.275 OA
ATOM     26  N   UNL     1      -1.664   0.862   2.139  0.00  0.00    -0.308 N 
ATOM     27  H   UNL     1      -0.851   0.370   2.334  0.00  0.00    +0.149 HD
BRANCH  26  28
ATOM     28  C   UNL     1      -2.566   1.246   3.228  0.00  0.00    +0.178 C 
BRANCH  28  29
ATOM     29  C   UNL     1      -2.006   0.759   4.540  0.00  0.00    +0.122 A 
ATOM     30  C   UNL     1      -1.173   1.446   5.342  0.00  0.00    +0.046 A 
ATOM     31  C   UNL     1      -0.903   0.619   6.456  0.00  0.00    +0.041 A 
ATOM     32  C   UNL     1      -1.588  -0.523   6.269  0.00  0.00    +0.195 A 
ATOM     33  O   UNL     1      -2.259  -0.430   5.109  0.00  0.00    -0.466 OA
ENDBRANCH  28  29
ENDBRANCH  26  28
ENDBRANCH  23  24
ENDBRANCH  22  23
ENDBRANCH   4  22
TORSDOF 8
