REMARK  Name = ZINC60390407
REMARK  10 active torsions:
REMARK  status: ('A' for Active; 'I' for Inactive)
REMARK    1  A    between atoms: C_1  and  C_2
REMARK    2  A    between atoms: C_2  and  C_4
REMARK    3  A    between atoms: C_2  and  O_17
REMARK    4  A    between atoms: N_6  and  C_7
REMARK    5  A    between atoms: C_10  and  S_13
REMARK    6  A    between atoms: S_13  and  N_16
REMARK    7  A    between atoms: O_17  and  C_18
REMARK    8  A    between atoms: C_18  and  C_20
REMARK    9  A    between atoms: C_23  and  N_27
REMARK   10  A    between atoms: C_25  and  N_26
REMARK                            x       y       z     vdW  Elec       q    Type
REMARK                         _______ _______ _______ _____ _____    ______ ____
ROOT
ATOM      1  C   UNL     1       0.680   1.483   0.341  0.00  0.00    +0.062 C 
ATOM      2  C   UNL     1       0.699  -0.045   0.266  0.00  0.00    +0.259 C 
ENDROOT
BRANCH   2   3
ATOM      3  C   UNL     1       1.572  -0.591   1.366  0.00  0.00    +0.258 C 
ATOM      4  O   UNL     1       2.592  -1.187   1.091  0.00  0.00    -0.271 OA
ATOM      5  N   UNL     1       1.220  -0.418   2.655  0.00  0.00    -0.282 N 
ATOM      6  H   UNL     1       0.439   0.113   2.877  0.00  0.00    +0.155 HD
BRANCH   5   7
ATOM      7  C   UNL     1       1.980  -1.003   3.674  0.00  0.00    +0.034 A 
ATOM      8  C   UNL     1       1.358  -1.484   4.819  0.00  0.00    +0.025 A 
ATOM      9  C   UNL     1       2.112  -2.061   5.822  0.00  0.00    +0.030 A 
ATOM     10  C   UNL     1       3.484  -2.161   5.687  0.00  0.00    +0.105 A 
ATOM     11  C   UNL     1       4.107  -1.683   4.548  0.00  0.00    +0.030 A 
ATOM     12  C   UNL     1       3.358  -1.111   3.539  0.00  0.00    +0.025 A 
BRANCH  10  13
ATOM     13  S   UNL     1       4.442  -2.898   6.969  0.00  0.00    +0.056 S 
ATOM     14  O   UNL     1       5.759  -2.379   6.842  0.00  0.00    -0.153 OA
ATOM     15  O   UNL     1       3.686  -2.771   8.165  0.00  0.00    -0.153 OA
BRANCH  13  16
ATOM     16  N   UNL     1       4.537  -4.518   6.639  0.00  0.00    -0.204 NA
ATOM     17  H   UNL     1       4.103  -4.879   5.851  0.00  0.00    +0.144 HD
ATOM     18  H   UNL     1       5.029  -5.106   7.234  0.00  0.00    +0.144 HD
ENDBRANCH  13  16
ENDBRANCH  10  13
ENDBRANCH   5   7
ENDBRANCH   2   3
BRANCH   2  19
ATOM     19  O   UNL     1       1.218  -0.454  -1.001  0.00  0.00    -0.449 OA
BRANCH  19  20
ATOM     20  C   UNL     1       0.330  -0.620  -2.001  0.00  0.00    +0.342 C 
ATOM     21  O   UNL     1      -0.853  -0.424  -1.802  0.00  0.00    -0.245 OA
BRANCH  20  22
ATOM     22  C   UNL     1       0.792  -1.040  -3.335  0.00  0.00    +0.080 A 
ATOM     23  C   UNL     1       2.134  -1.376  -3.541  0.00  0.00    +0.019 A 
ATOM     24  C   UNL     1       2.560  -1.768  -4.790  0.00  0.00    +0.033 A 
ATOM     25  C   UNL     1       1.665  -1.831  -5.848  0.00  0.00    +0.128 A 
ATOM     26  C   UNL     1       0.339  -1.503  -5.661  0.00  0.00    +0.056 A 
ATOM     27  C   UNL     1      -0.112  -1.111  -4.407  0.00  0.00    +0.041 A 
BRANCH  27  28
ATOM     28  N   UNL     1      -1.448  -0.786  -4.215  0.00  0.00    -0.357 N 
ATOM     29  H   UNL     1      -1.775  -0.584  -3.324  0.00  0.00    +0.142 HD
ATOM     30  H   UNL     1      -2.055  -0.762  -4.971  0.00  0.00    +0.142 HD
ENDBRANCH  27  28
BRANCH  25  31
ATOM     31  N   UNL     1       2.137  -2.254  -7.185  0.00  0.00    +0.056 N 
ATOM     32  O   UNL     1       3.299  -2.542  -7.353  0.00  0.00    -0.126 OA
ATOM     33  O   UNL     1       1.361  -2.311  -8.110  0.00  0.00    -0.126 OA
ENDBRANCH  25  31
ENDBRANCH  20  22
ENDBRANCH  19  20
ENDBRANCH   2  19
TORSDOF 9
