REMARK  Name = ZINC13640564
REMARK  6 active torsions:
REMARK  status: ('A' for Active; 'I' for Inactive)
REMARK    1  A    between atoms: C_1  and  C_2
REMARK    2  A    between atoms: N_6  and  C_7
REMARK    3  A    between atoms: C_10  and  N_13
REMARK    4  A    between atoms: C_14  and  C_16
REMARK    5  A    between atoms: C_22  and  C_31
REMARK    6  A    between atoms: C_25  and  C_27
REMARK                            x       y       z     vdW  Elec       q    Type
REMARK                         _______ _______ _______ _____ _____    ______ ____
ROOT
ATOM      1  C   UNL     1      -0.944   0.945   8.638  0.00  0.00    +0.096 A 
ATOM      2  C   UNL     1      -0.093   1.927   9.206  0.00  0.00    +0.149 A 
ATOM      3  N   UNL     1      -0.463   2.124  10.443  0.00  0.00    -0.177 NA
ATOM      4  N   UNL     1      -1.548   1.298  10.733  0.00  0.00    -0.238 N 
ATOM      5  C   UNL     1      -1.844   0.582   9.623  0.00  0.00    +0.130 A 
ATOM      6  N   UNL     1      -2.882  -0.332   9.572  0.00  0.00    -0.321 N 
ATOM      7  C   UNL     1      -3.843  -0.290  10.691  0.00  0.00    +0.111 C 
ATOM      8  C   UNL     1      -3.058  -0.139  12.000  0.00  0.00    +0.063 C 
ATOM      9  C   UNL     1      -2.284   1.182  11.996  0.00  0.00    +0.215 C 
ATOM     10  H   UNL     1      -2.973  -0.965   8.842  0.00  0.00    +0.148 HD
ENDROOT
BRANCH   7  11
ATOM     11  C   UNL     1      -4.774   0.882  10.516  0.00  0.00    +0.010 A 
ATOM     12  C   UNL     1      -6.106   0.957  10.753  0.00  0.00    +0.013 A 
ATOM     13  C   UNL     1      -6.763   2.151  10.518  0.00  0.00    +0.008 A 
ATOM     14  C   UNL     1      -6.055   3.211  10.057  0.00  0.00    +0.045 A 
ATOM     15  S   UNL     1      -4.406   2.534   9.948  0.00  0.00    -0.100 S 
ENDBRANCH   7  11
BRANCH   1  17
ATOM     16  N   UNL     1       0.054   0.874   6.414  0.00  0.00    -0.281 N 
ATOM     17  C   UNL     1      -0.885   0.421   7.269  0.00  0.00    +0.253 C 
ATOM     18  O   UNL     1      -1.684  -0.421   6.905  0.00  0.00    -0.270 OA
ATOM     19  H   UNL     1       0.737   1.488   6.725  0.00  0.00    +0.155 HD
BRANCH  16  23
ATOM     20  C   UNL     1       0.020  -0.365   2.434  0.00  0.00    +0.048 A 
ATOM     21  C   UNL     1      -1.176  -0.209   3.122  0.00  0.00    +0.028 A 
ATOM     22  C   UNL     1      -1.165   0.201   4.440  0.00  0.00    +0.025 A 
ATOM     23  C   UNL     1       0.042   0.457   5.078  0.00  0.00    +0.034 A 
ATOM     24  C   UNL     1       1.238   0.301   4.389  0.00  0.00    +0.025 A 
ATOM     25  C   UNL     1       1.227  -0.114   3.072  0.00  0.00    +0.028 A 
BRANCH  20  31
ATOM     26  C   UNL     1      -1.536  -2.792   1.370  0.00  0.00    +0.086 C 
ATOM     27  C   UNL     1      -0.665  -1.846   0.585  0.00  0.00    +0.111 A 
ATOM     28  N   UNL     1      -0.435  -1.908  -0.698  0.00  0.00    -0.241 NA
ATOM     29  C   UNL     1       0.384  -0.907  -1.052  0.00  0.00    +0.131 A 
ATOM     30  C   UNL     1       0.676  -0.193   0.052  0.00  0.00    +0.112 A 
ATOM     31  N   UNL     1       0.008  -0.781   1.094  0.00  0.00    -0.304 N 
ENDBRANCH  20  31
ENDBRANCH  16  23
ENDBRANCH   1  17
BRANCH   9  32
ATOM     32  C   UNL     1      -1.301   1.215  13.168  0.00  0.00    +0.412 C 
ATOM     33  F   UNL     1      -0.596   2.423  13.150  0.00  0.00    -0.168 F 
ATOM     34  F   UNL     1      -2.006   1.104  14.371  0.00  0.00    -0.168 F 
ATOM     35  F   UNL     1      -0.403   0.149  13.053  0.00  0.00    -0.168 F 
ENDBRANCH   9  32
TORSDOF 5
