REMARK  Name = ZINC44879396
REMARK  10 active torsions:
REMARK  status: ('A' for Active; 'I' for Inactive)
REMARK    1  A    between atoms: C_1  and  C_2
REMARK    2  A    between atoms: N_7  and  C_9
REMARK    3  A    between atoms: C_9  and  C_10
REMARK    4  A    between atoms: C_13  and  C_16
REMARK    5  A    between atoms: C_16  and  N_17
REMARK    6  A    between atoms: N_17  and  S_18
REMARK    7  A    between atoms: S_18  and  C_21
REMARK    8  A    between atoms: C_24  and  S_35
REMARK    9  A    between atoms: C_25  and  C_27
REMARK   10  A    between atoms: S_35  and  C_36
REMARK                            x       y       z     vdW  Elec       q    Type
REMARK                         _______ _______ _______ _____ _____    ______ ____
ROOT
ATOM      1  S   UNL     1       0.409 -10.312   1.058  0.00  0.00    +0.059 S 
ATOM      2  O   UNL     1      -0.381 -10.499  -0.108  0.00  0.00    -0.153 OA
ATOM      3  O   UNL     1       1.783 -10.668   1.113  0.00  0.00    -0.153 OA
ENDROOT
BRANCH   1   4
ATOM      4  C   UNL     1      -0.392 -11.195   2.356  0.00  0.00    +0.106 A 
ATOM      5  C   UNL     1       0.339 -11.618   3.455  0.00  0.00    +0.029 A 
ATOM      6  C   UNL     1      -0.275 -12.310   4.478  0.00  0.00    +0.017 A 
ATOM      7  C   UNL     1      -1.635 -12.589   4.412  0.00  0.00    +0.020 A 
ATOM      8  C   UNL     1      -2.378 -12.162   3.299  0.00  0.00    +0.052 A 
ATOM      9  C   UNL     1      -1.742 -11.458   2.274  0.00  0.00    +0.042 A 
BRANCH   8  10
ATOM     10  C   UNL     1      -3.821 -12.452   3.215  0.00  0.00    +0.248 C 
ATOM     11  O   UNL     1      -4.560 -12.128   4.125  0.00  0.00    -0.270 OA
ATOM     12  N   UNL     1      -4.322 -13.075   2.130  0.00  0.00    -0.297 N 
ATOM     13  C   UNL     1      -3.428 -13.590   1.084  0.00  0.00    +0.108 C 
ATOM     14  C   UNL     1      -3.745 -15.070   0.849  0.00  0.00    +0.019 C 
ATOM     15  C   UNL     1      -5.234 -15.225   0.535  0.00  0.00    +0.003 C 
ATOM     16  C   UNL     1      -6.062 -14.737   1.727  0.00  0.00    +0.019 C 
ATOM     17  C   UNL     1      -5.771 -13.259   1.974  0.00  0.00    +0.108 C 
ENDBRANCH   8  10
BRANCH   7  18
ATOM     18  S   UNL     1      -2.423 -13.475   5.716  0.00  0.00    -0.128 S 
ATOM     19  C   UNL     1      -1.084 -13.800   6.896  0.00  0.00    +0.090 C 
ENDBRANCH   7  18
ENDBRANCH   1   4
BRANCH   1  20
ATOM     20  N   UNL     1       0.322  -8.702   1.436  0.00  0.00    -0.186 NA
ATOM     21  H   UNL     1      -0.191  -8.099   0.875  0.00  0.00    +0.148 HD
BRANCH  20  22
ATOM     22  C   UNL     1       1.018  -8.188   2.618  0.00  0.00    +0.141 C 
BRANCH  22  26
ATOM     23  C   UNL     1       1.240  -3.928   2.403  0.00  0.00    -0.064 A 
ATOM     24  C   UNL     1       0.159  -4.533   3.016  0.00  0.00    +0.002 A 
ATOM     25  C   UNL     1       0.087  -5.912   3.086  0.00  0.00    +0.005 A 
ATOM     26  C   UNL     1       1.096  -6.685   2.541  0.00  0.00    -0.032 A 
ATOM     27  C   UNL     1       2.176  -6.079   1.927  0.00  0.00    +0.005 A 
ATOM     28  C   UNL     1       2.246  -4.700   1.854  0.00  0.00    +0.002 A 
BRANCH  23  29
ATOM     29  C   UNL     1       1.318  -2.424   2.327  0.00  0.00    -0.043 C 
BRANCH  29  35
ATOM     30  C   UNL     1      -0.158   1.521  -0.167  0.00  0.00    +0.005 C 
ATOM     31  C   UNL     1      -0.123  -0.008  -0.157  0.00  0.00    -0.031 C 
ATOM     32  C   UNL     1       0.597  -0.511  -1.412  0.00  0.00    -0.001 C 
ATOM     33  C   UNL     1       0.696  -2.039  -1.354  0.00  0.00    -0.018 C 
ATOM     34  C   UNL     1       1.416  -2.449  -0.068  0.00  0.00    -0.078 C 
ATOM     35  N   UNL     1       0.665  -1.962   1.095  0.00  0.00    +0.383 N 
ATOM     36  C   UNL     1       0.627  -0.494   1.085  0.00  0.00    -0.075 C 
ATOM     37  H   UNL     1      -0.277  -2.321   1.061  0.00  0.00    -0.081 HD
ENDBRANCH  29  35
ENDBRANCH  23  29
ENDBRANCH  22  26
ENDBRANCH  20  22
ENDBRANCH   1  20
TORSDOF 8
