REMARK  Name = ZINC09086418
REMARK  8 active torsions:
REMARK  status: ('A' for Active; 'I' for Inactive)
REMARK    1  A    between atoms: C_1  and  C_2
REMARK    2  A    between atoms: C_2  and  C_4
REMARK    3  A    between atoms: C_6  and  C_29
REMARK    4  A    between atoms: C_29  and  C_31
REMARK    5  A    between atoms: C_34  and  O_39
REMARK    6  A    between atoms: C_35  and  O_37
REMARK    7  A    between atoms: O_37  and  C_38
REMARK    8  A    between atoms: O_39  and  C_40
REMARK                            x       y       z     vdW  Elec       q    Type
REMARK                         _______ _______ _______ _____ _____    ______ ____
ROOT
ATOM      1  C   UNL     1       2.219   3.953   0.491  0.00  0.00    +0.152 C 
ATOM      2  C   UNL     1       1.760   2.671   1.242  0.00  0.00    +0.109 C 
ATOM      3  C   UNL     1       1.453   1.655   0.122  0.00  0.00    +0.108 C 
ATOM      4  C   UNL     1       0.066   1.120   0.232  0.00  0.00    -0.008 A 
ATOM      5  C   UNL     1      -1.165   1.739   0.204  0.00  0.00    +0.006 A 
ATOM      6  C   UNL     1      -2.286   0.925   0.334  0.00  0.00    +0.000 A 
ATOM      7  C   UNL     1      -2.168  -0.440   0.493  0.00  0.00    +0.002 A 
ATOM      8  C   UNL     1      -0.934  -1.071   0.528  0.00  0.00    +0.023 A 
ATOM      9  C   UNL     1       0.199  -0.266   0.394  0.00  0.00    +0.038 A 
ATOM     10  N   UNL     1       1.536  -0.625   0.394  0.00  0.00    -0.284 N 
ATOM     11  C   UNL     1       2.347   0.446   0.240  0.00  0.00    +0.231 C 
ATOM     12  O   UNL     1       3.559   0.436   0.204  0.00  0.00    -0.274 OA
ATOM     13  C   UNL     1       1.692   2.412  -1.175  0.00  0.00    +0.117 C 
ATOM     14  N   UNL     1       2.701   3.441  -0.797  0.00  0.00    -0.311 N 
ATOM     15  C   UNL     1       2.867   4.320  -1.840  0.00  0.00    +0.038 A 
ATOM     16  C   UNL     1       2.946   5.690  -1.681  0.00  0.00    +0.024 A 
ATOM     17  C   UNL     1       3.108   6.504  -2.788  0.00  0.00    +0.002 A 
ATOM     18  C   UNL     1       3.191   5.956  -4.057  0.00  0.00    +0.001 A 
ATOM     19  C   UNL     1       3.116   4.588  -4.235  0.00  0.00    +0.010 A 
ATOM     20  C   UNL     1       2.956   3.759  -3.133  0.00  0.00    -0.004 A 
ATOM     21  C   UNL     1       2.883   2.285  -3.273  0.00  0.00    +0.007 C 
ATOM     22  C   UNL     1       2.251   1.599  -2.302  0.00  0.00    -0.003 C 
ATOM     23  H   UNL     1       1.854  -1.536   0.493  0.00  0.00    +0.155 HD
ENDROOT
BRANCH   1  25
ATOM     24  C   UNL     1       0.672   5.857   1.382  0.00  0.00    +0.088 C 
ATOM     25  C   UNL     1       1.062   4.897   0.288  0.00  0.00    +0.151 C 
ATOM     26  O   UNL     1       0.448   4.884  -0.751  0.00  0.00    -0.296 OA
ENDBRANCH   1  25
BRANCH   2  27
ATOM     27  C   UNL     1       0.520   2.951   2.051  0.00  0.00    +0.170 C 
ATOM     28  O   UNL     1      -0.368   3.633   1.584  0.00  0.00    -0.292 OA
BRANCH  27  29
ATOM     29  C   UNL     1       0.387   2.399   3.406  0.00  0.00    +0.021 A 
ATOM     30  C   UNL     1       1.411   1.613   3.947  0.00  0.00    +0.015 A 
ATOM     31  C   UNL     1       1.284   1.096   5.217  0.00  0.00    +0.050 A 
ATOM     32  C   UNL     1       0.142   1.354   5.964  0.00  0.00    +0.162 A 
ATOM     33  C   UNL     1      -0.882   2.138   5.433  0.00  0.00    +0.162 A 
ATOM     34  C   UNL     1      -0.761   2.664   4.162  0.00  0.00    +0.060 A 
BRANCH  33  35
ATOM     35  O   UNL     1      -1.998   2.388   6.168  0.00  0.00    -0.491 OA
ATOM     36  C   UNL     1      -3.007   3.198   5.562  0.00  0.00    +0.277 C 
ENDBRANCH  33  35
BRANCH  32  37
ATOM     37  O   UNL     1       0.022   0.843   7.216  0.00  0.00    -0.491 OA
ATOM     38  C   UNL     1       1.109   0.050   7.699  0.00  0.00    +0.277 C 
ENDBRANCH  32  37
ENDBRANCH  27  29
ENDBRANCH   2  27
TORSDOF 5
