REMARK  Name = ZINC38489133
REMARK  6 active torsions:
REMARK  status: ('A' for Active; 'I' for Inactive)
REMARK    1  A    between atoms: C_1  and  C_2
REMARK    2  A    between atoms: C_5  and  C_8
REMARK    3  A    between atoms: C_8  and  N_9
REMARK    4  A    between atoms: C_10  and  C_12
REMARK    5  A    between atoms: C_12  and  N_13
REMARK    6  A    between atoms: C_18  and  C_20
REMARK                            x       y       z     vdW  Elec       q    Type
REMARK                         _______ _______ _______ _____ _____    ______ ____
ROOT
ATOM      1  N   UNL     1       3.156  -8.016  -0.059  0.00  0.00    -0.218 N 
ATOM      2  C   UNL     1       3.163  -8.654  -1.240  0.00  0.00    +0.294 A 
ATOM      3  O   UNL     1       3.154  -8.013  -2.278  0.00  0.00    -0.264 OA
ATOM      4  C   UNL     1       3.183 -10.130  -1.284  0.00  0.00    +0.148 A 
ATOM      5  C   UNL     1       3.192 -10.764  -0.029  0.00  0.00    +0.077 A 
ATOM      6  C   UNL     1       3.182 -10.011   1.203  0.00  0.00    +0.142 A 
ATOM      7  N   UNL     1       3.172  -8.693   1.162  0.00  0.00    -0.163 NA
ATOM      8  S   UNL     1       3.215 -12.483  -0.470  0.00  0.00    -0.050 S 
ATOM      9  C   UNL     1       3.211 -12.256  -2.244  0.00  0.00    +0.162 A 
ATOM     10  N   UNL     1       3.193 -10.945  -2.355  0.00  0.00    -0.219 NA
ATOM     11  N   UNL     1       3.223 -13.212  -3.241  0.00  0.00    -0.310 N 
ATOM     12  C   UNL     1       3.237 -14.642  -2.907  0.00  0.00    +0.107 C 
ATOM     13  C   UNL     1       2.079 -15.330  -3.636  0.00  0.00    +0.019 C 
ATOM     14  C   UNL     1       2.176 -15.034  -5.134  0.00  0.00    +0.003 C 
ATOM     15  C   UNL     1       2.065 -13.525  -5.366  0.00  0.00    +0.019 C 
ATOM     16  C   UNL     1       3.217 -12.817  -4.656  0.00  0.00    +0.107 C 
ENDROOT
BRANCH   6  17
ATOM     17  C   UNL     1       3.192 -10.713   2.502  0.00  0.00    +0.156 A 
ATOM     18  C   UNL     1       3.179 -10.125   3.728  0.00  0.00    +0.051 A 
ATOM     19  C   UNL     1       3.196 -11.165   4.678  0.00  0.00    +0.042 A 
ATOM     20  C   UNL     1       3.219 -12.325   3.992  0.00  0.00    +0.196 A 
ATOM     21  O   UNL     1       3.210 -12.049   2.678  0.00  0.00    -0.461 OA
ENDBRANCH   6  17
BRANCH   1  22
ATOM     22  C   UNL     1       3.137  -6.551  -0.051  0.00  0.00    +0.243 C 
BRANCH  22  24
ATOM     23  N   UNL     1       1.447  -4.746  -0.032  0.00  0.00    -0.310 N 
ATOM     24  C   UNL     1       1.710  -6.067  -0.040  0.00  0.00    +0.235 C 
ATOM     25  O   UNL     1       0.799  -6.867  -0.040  0.00  0.00    -0.274 OA
ATOM     26  H   UNL     1       2.176  -4.106  -0.032  0.00  0.00    +0.149 HD
BRANCH  23  27
ATOM     27  C   UNL     1       0.059  -4.275  -0.021  0.00  0.00    +0.139 C 
BRANCH  27  32
ATOM     28  C   UNL     1      -0.018   1.503   0.010  0.00  0.00    +0.044 C 
ATOM     29  C   UNL     1       0.002  -0.004   0.002  0.00  0.00    -0.050 A 
ATOM     30  C   UNL     1       0.006  -0.689  -1.199  0.00  0.00    +0.003 A 
ATOM     31  C   UNL     1       0.025  -2.071  -1.206  0.00  0.00    +0.005 A 
ATOM     32  C   UNL     1       0.040  -2.768  -0.013  0.00  0.00    -0.030 A 
ATOM     33  C   UNL     1       0.037  -2.084   1.188  0.00  0.00    +0.005 A 
ATOM     34  C   UNL     1       0.023  -0.702   1.195  0.00  0.00    +0.003 A 
ENDBRANCH  27  32
ENDBRANCH  23  27
ENDBRANCH  22  24
ENDBRANCH   1  22
TORSDOF 5
