REMARK  Name = ZINC65428171
REMARK  5 active torsions:
REMARK  status: ('A' for Active; 'I' for Inactive)
REMARK    1  A    between atoms: C_1  and  C_2
REMARK    2  A    between atoms: C_7  and  O_8
REMARK    3  A    between atoms: C_13  and  C_15
REMARK    4  A    between atoms: C_16  and  C_26
REMARK    5  A    between atoms: C_18  and  C_20
REMARK                            x       y       z     vdW  Elec       q    Type
REMARK                         _______ _______ _______ _____ _____    ______ ____
ROOT
ATOM      1  C   UNL     1      -0.018   1.503   0.010  0.00  0.00    +0.047 C 
ATOM      2  C   UNL     1       0.002  -0.004   0.002  0.00  0.00    -0.009 A 
ATOM      3  C   UNL     1       0.006  -0.688  -1.199  0.00  0.00    +0.013 A 
ATOM      4  C   UNL     1       0.025  -2.068  -1.210  0.00  0.00    -0.016 A 
ATOM      5  C   UNL     1       0.040  -2.774  -0.014  0.00  0.00    +0.041 A 
ATOM      6  C   UNL     1       0.036  -2.090   1.193  0.00  0.00    +0.069 A 
ATOM      7  C   UNL     1       0.023  -0.703   1.200  0.00  0.00    +0.122 A 
ATOM      8  N   UNL     1       0.059  -4.172  -0.028  0.00  0.00    -0.285 N 
ATOM      9  C   UNL     1       0.432  -4.838  -1.137  0.00  0.00    +0.218 C 
ATOM     10  O   UNL     1       0.429  -6.051  -1.137  0.00  0.00    -0.275 OA
ATOM     11  C   UNL     1       0.851  -4.095  -2.376  0.00  0.00    +0.110 C 
ATOM     12  C   UNL     1       0.029  -2.814  -2.520  0.00  0.00    +0.082 C 
ATOM     13  H   UNL     1      -0.197  -4.665   0.767  0.00  0.00    +0.155 HD
ENDROOT
BRANCH  12  14
ATOM     14  C   UNL     1      -1.386  -3.167  -2.901  0.00  0.00    +0.091 A 
ATOM     15  C   UNL     1      -2.025  -2.783  -4.021  0.00  0.00    +0.126 A 
ATOM     16  O   UNL     1      -3.264  -3.309  -3.976  0.00  0.00    -0.440 OA
ATOM     17  C   UNL     1      -3.370  -4.009  -2.832  0.00  0.00    +0.228 A 
ATOM     18  N   UNL     1      -2.231  -3.926  -2.186  0.00  0.00    -0.213 NA
ATOM     19  C   UNL     1      -1.459  -1.922  -5.121  0.00  0.00    +0.088 C 
BRANCH  17  20
ATOM     20  C   UNL     1      -4.566  -4.750  -2.381  0.00  0.00    +0.037 A 
ATOM     21  C   UNL     1      -4.550  -5.434  -1.165  0.00  0.00    +0.013 A 
ATOM     22  C   UNL     1      -5.670  -6.124  -0.750  0.00  0.00    +0.001 A 
ATOM     23  C   UNL     1      -6.808  -6.139  -1.536  0.00  0.00    +0.000 A 
ATOM     24  C   UNL     1      -6.831  -5.463  -2.743  0.00  0.00    +0.001 A 
ATOM     25  C   UNL     1      -5.720  -4.765  -3.168  0.00  0.00    +0.013 A 
ENDBRANCH  17  20
ENDBRANCH  12  14
BRANCH   7  26
ATOM     26  O   UNL     1       0.024  -0.030   2.381  0.00  0.00    -0.506 OA
ATOM     27  H   UNL     1      -0.858   0.153   2.730  0.00  0.00    +0.292 HD
ENDBRANCH   7  26
TORSDOF 3
