REMARK  Name = ZINC10499609
REMARK  11 active torsions:
REMARK  status: ('A' for Active; 'I' for Inactive)
REMARK    1  A    between atoms: C_1  and  C_2
REMARK    2  A    between atoms: C_2  and  O_3
REMARK    3  A    between atoms: O_3  and  C_4
REMARK    4  A    between atoms: C_4  and  C_6
REMARK    5  A    between atoms: C_7  and  N_17
REMARK    6  A    between atoms: C_9  and  C_11
REMARK    7  A    between atoms: C_18  and  C_20
REMARK    8  A    between atoms: C_20  and  N_21
REMARK    9  A    between atoms: C_24  and  C_28
REMARK   10  A    between atoms: C_24  and  C_29
REMARK   11  A    between atoms: C_32  and  C_35
REMARK                            x       y       z     vdW  Elec       q    Type
REMARK                         _______ _______ _______ _____ _____    ______ ____
ROOT
ATOM      1  N   UNL     1       4.924  -5.631  -2.808  0.00  0.00    -0.283 N 
ATOM      2  C   UNL     1       3.919  -5.224  -2.008  0.00  0.00    +0.235 C 
ATOM      3  O   UNL     1       3.913  -4.094  -1.570  0.00  0.00    -0.274 OA
ATOM      4  H   UNL     1       4.963  -6.553  -3.107  0.00  0.00    +0.155 HD
ENDROOT
BRANCH   1   6
ATOM      5  C   UNL     1       6.497  -4.819  -4.470  0.00  0.00    +0.118 A 
ATOM      6  C   UNL     1       5.909  -4.726  -3.207  0.00  0.00    +0.055 A 
ATOM      7  C   UNL     1       6.328  -3.725  -2.366  0.00  0.00    +0.040 A 
ATOM      8  C   UNL     1       7.306  -2.852  -2.805  0.00  0.00    +0.022 A 
ATOM      9  S   UNL     1       7.647  -3.455  -4.449  0.00  0.00    -0.080 S 
BRANCH   8  10
ATOM     10  C   UNL     1       7.914  -1.709  -2.092  0.00  0.00    -0.011 A 
ATOM     11  C   UNL     1       7.503  -1.391  -0.797  0.00  0.00    +0.009 A 
ATOM     12  C   UNL     1       8.079  -0.326  -0.135  0.00  0.00    +0.001 A 
ATOM     13  C   UNL     1       9.054   0.433  -0.757  0.00  0.00    +0.000 A 
ATOM     14  C   UNL     1       9.462   0.127  -2.043  0.00  0.00    +0.001 A 
ATOM     15  C   UNL     1       8.899  -0.939  -2.714  0.00  0.00    +0.009 A 
ENDBRANCH   8  10
BRANCH   5  16
ATOM     16  C   UNL     1       6.244  -5.753  -5.501  0.00  0.00    +0.348 C 
ATOM     17  O   UNL     1       5.412  -6.627  -5.340  0.00  0.00    -0.244 OA
BRANCH  16  18
ATOM     18  O   UNL     1       6.925  -5.675  -6.664  0.00  0.00    -0.461 OA
BRANCH  18  20
ATOM     19  C   UNL     1       7.483  -6.404  -8.900  0.00  0.00    +0.048 C 
ATOM     20  C   UNL     1       6.618  -6.651  -7.662  0.00  0.00    +0.229 C 
ENDBRANCH  18  20
ENDBRANCH  16  18
ENDBRANCH   5  16
ENDBRANCH   1   6
BRANCH   2  21
ATOM     21  C   UNL     1       2.803  -6.175  -1.657  0.00  0.00    +0.214 C 
BRANCH  21  22
ATOM     22  N   UNL     1       1.843  -5.498  -0.782  0.00  0.00    -0.215 N 
ATOM     23  C   UNL     1       0.774  -4.806  -1.223  0.00  0.00    +0.251 C 
ATOM     24  O   UNL     1       0.438  -4.632  -2.375  0.00  0.00    -0.272 OA
ATOM     25  C   UNL     1       0.079  -4.289   0.021  0.00  0.00    +0.135 C 
ATOM     26  N   UNL     1       0.915  -4.798   1.122  0.00  0.00    -0.281 N 
ATOM     27  C   UNL     1       1.919  -5.491   0.554  0.00  0.00    +0.310 C 
ATOM     28  O   UNL     1       2.797  -6.048   1.183  0.00  0.00    -0.252 OA
ATOM     29  C   UNL     1      -1.341  -4.849   0.116  0.00  0.00    +0.047 C 
ATOM     30  H   UNL     1       0.771  -4.660   2.071  0.00  0.00    +0.152 HD
BRANCH  25  31
ATOM     31  C   UNL     1       0.054  -2.782   0.028  0.00  0.00    -0.015 A 
ATOM     32  C   UNL     1       0.065  -2.096   1.228  0.00  0.00    +0.006 A 
ATOM     33  C   UNL     1       0.042  -0.714   1.234  0.00  0.00    +0.004 A 
ATOM     34  C   UNL     1       0.008  -0.018   0.040  0.00  0.00    -0.050 A 
ATOM     35  C   UNL     1      -0.008  -0.704  -1.160  0.00  0.00    +0.004 A 
ATOM     36  C   UNL     1       0.020  -2.086  -1.166  0.00  0.00    +0.006 A 
ATOM     37  C   UNL     1      -0.018   1.489   0.046  0.00  0.00    +0.044 C 
ENDBRANCH  25  31
ENDBRANCH  21  22
ENDBRANCH   2  21
TORSDOF 8
