REMARK  Name = ZINC16757322
REMARK  4 active torsions:
REMARK  status: ('A' for Active; 'I' for Inactive)
REMARK    1  A    between atoms: C_1  and  C_2
REMARK    2  A    between atoms: C_2  and  C_3
REMARK    3  A    between atoms: C_6  and  C_9
REMARK    4  A    between atoms: C_13  and  C_25
REMARK                            x       y       z     vdW  Elec       q    Type
REMARK                         _______ _______ _______ _____ _____    ______ ____
ROOT
ATOM      1  C   UNL     1       1.271  -0.819  -0.017  0.00  0.00    +0.065 C 
ATOM      2  C   UNL     1       2.424   0.109  -0.423  0.00  0.00    +0.094 C 
ATOM      3  N   UNL     1       2.374   1.334   0.387  0.00  0.00    -0.303 NA
ATOM      4  C   UNL     1       1.239   2.188   0.002  0.00  0.00    +0.138 C 
ATOM      5  C   UNL     1      -0.016   1.348   0.009  0.00  0.00    +0.043 A 
ATOM      6  C   UNL     1       0.002  -0.004   0.002  0.00  0.00    -0.009 A 
ATOM      7  C   UNL     1      -1.373  -0.450   0.014  0.00  0.00    +0.004 A 
ATOM      8  C   UNL     1      -1.961  -1.719   0.014  0.00  0.00    +0.010 A 
ATOM      9  C   UNL     1      -3.333  -1.768   0.026  0.00  0.00    +0.001 A 
ATOM     10  C   UNL     1      -4.110  -0.622   0.039  0.00  0.00    +0.002 A 
ATOM     11  C   UNL     1      -3.556   0.647   0.040  0.00  0.00    +0.026 A 
ATOM     12  C   UNL     1      -2.165   0.728   0.027  0.00  0.00    +0.047 A 
ATOM     13  N   UNL     1      -1.310   1.793   0.018  0.00  0.00    -0.356 N 
ATOM     14  H   UNL     1      -1.521   2.873   0.018  0.00  0.00    +0.166 HD
ATOM     15  H   UNL     1       2.266   1.068   1.449  0.00  0.00    +0.123 HD
ENDROOT
BRANCH   1  19
ATOM     16  C   UNL     1       2.013  -2.427   3.870  0.00  0.00    -0.048 A 
ATOM     17  C   UNL     1       1.844  -3.275   2.792  0.00  0.00    +0.004 A 
ATOM     18  C   UNL     1       1.604  -2.755   1.534  0.00  0.00    +0.004 A 
ATOM     19  C   UNL     1       1.533  -1.386   1.355  0.00  0.00    -0.039 A 
ATOM     20  C   UNL     1       1.707  -0.537   2.432  0.00  0.00    +0.004 A 
ATOM     21  C   UNL     1       1.943  -1.058   3.690  0.00  0.00    +0.004 A 
BRANCH  16  23
ATOM     22  C   UNL     1       3.782  -3.147   5.452  0.00  0.00    +0.009 C 
ATOM     23  C   UNL     1       2.274  -2.994   5.242  0.00  0.00    +0.032 C 
ENDBRANCH  16  23
ENDBRANCH   1  19
BRANCH   4  24
ATOM     24  C   UNL     1       1.098   3.318   0.989  0.00  0.00    +0.013 A 
ATOM     25  C   UNL     1       0.781   4.616   0.760  0.00  0.00    +0.013 A 
ATOM     26  C   UNL     1       0.707   5.487   1.832  0.00  0.00    +0.008 A 
ATOM     27  C   UNL     1       0.954   5.017   3.079  0.00  0.00    +0.045 A 
ATOM     28  S   UNL     1       1.298   3.294   2.763  0.00  0.00    -0.100 S 
ENDBRANCH   4  24
TORSDOF 3
