REMARK  Name = ZINC17156955
REMARK  4 active torsions:
REMARK  status: ('A' for Active; 'I' for Inactive)
REMARK    1  A    between atoms: C_1  and  C_2
REMARK    2  A    between atoms: C_14  and  C_15
REMARK    3  A    between atoms: N_17  and  N_18
REMARK    4  A    between atoms: C_19  and  C_21
REMARK                            x       y       z     vdW  Elec       q    Type
REMARK                         _______ _______ _______ _____ _____    ______ ____
ROOT
ATOM      1  C   UNL     1       1.128   8.693   0.035  0.00  0.00    +0.296 C 
ATOM      2  O   UNL     1       0.527   9.751   0.046  0.00  0.00    -0.265 OA
ATOM      3  N   UNL     1       2.475   8.683   0.023  0.00  0.00    -0.228 N 
ATOM      4  H   UNL     1       3.018   7.726   0.013  0.00  0.00    +0.173 HD
ENDROOT
BRANCH   1  18
ATOM      5  C   UNL     1      -1.969   8.438   0.065  0.00  0.00    +0.048 C 
ATOM      6  C   UNL     1      -0.970   7.309   0.049  0.00  0.00    +0.008 A 
ATOM      7  C   UNL     1      -1.263   5.922   0.045  0.00  0.00    +0.024 A 
ATOM      8  C   UNL     1      -2.468   5.190   0.053  0.00  0.00    +0.012 A 
ATOM      9  C   UNL     1      -2.456   3.837   0.045  0.00  0.00    +0.009 A 
ATOM     10  C   UNL     1      -1.232   3.135   0.031  0.00  0.00    -0.014 A 
ATOM     11  C   UNL     1      -1.207   1.731   0.017  0.00  0.00    +0.008 A 
ATOM     12  C   UNL     1      -0.013   1.076   0.008  0.00  0.00    +0.001 A 
ATOM     13  C   UNL     1       1.189   1.778   0.000  0.00  0.00    +0.001 A 
ATOM     14  C   UNL     1       1.202   3.141   0.007  0.00  0.00    +0.012 A 
ATOM     15  C   UNL     1      -0.009   3.848   0.023  0.00  0.00    +0.025 A 
ATOM     16  C   UNL     1      -0.031   5.260   0.030  0.00  0.00    +0.144 A 
ATOM     17  O   UNL     1       0.937   6.195   0.025  0.00  0.00    -0.449 OA
ATOM     18  C   UNL     1       0.384   7.426   0.037  0.00  0.00    +0.195 A 
ENDBRANCH   1  18
BRANCH   3  19
ATOM     19  N   UNL     1       3.185   9.891   0.021  0.00  0.00    -0.234 N 
ATOM     20  C   UNL     1       4.533   9.881   0.009  0.00  0.00    +0.235 C 
ATOM     21  O   UNL     1       5.131   8.826  -0.002  0.00  0.00    -0.274 OA
ATOM     22  H   UNL     1       2.642  10.847   0.031  0.00  0.00    +0.173 HD
BRANCH  20  23
ATOM     23  C   UNL     1       5.296  11.180   0.007  0.00  0.00    +0.049 C 
ATOM     24  C   UNL     1       4.921  11.990  -1.235  0.00  0.00    +0.019 C 
ATOM     25  C   UNL     1       5.696  13.310  -1.237  0.00  0.00    -0.009 C 
ATOM     26  C   UNL     1       7.198  13.019  -1.252  0.00  0.00    +0.007 C 
ATOM     27  C   UNL     1       7.573  12.208  -0.010  0.00  0.00    -0.009 C 
ATOM     28  C   UNL     1       6.798  10.889  -0.008  0.00  0.00    +0.019 C 
ATOM     29  C   UNL     1       7.221  13.008   1.246  0.00  0.00    +0.007 C 
ATOM     30  C   UNL     1       5.719  13.299   1.262  0.00  0.00    -0.009 C 
ATOM     31  C   UNL     1       5.344  14.109   0.019  0.00  0.00    +0.007 C 
ATOM     32  C   UNL     1       4.944  11.980   1.263  0.00  0.00    +0.019 C 
ENDBRANCH  20  23
ENDBRANCH   3  19
TORSDOF 3
