REMARK  Name = ZINC43509596
REMARK  7 active torsions:
REMARK  status: ('A' for Active; 'I' for Inactive)
REMARK    1  A    between atoms: C_1  and  C_2
REMARK    2  A    between atoms: C_8  and  C_32
REMARK    3  A    between atoms: C_12  and  O_23
REMARK    4  A    between atoms: C_20  and  O_22
REMARK    5  A    between atoms: C_26  and  O_31
REMARK    6  A    between atoms: C_28  and  C_29
REMARK    7  A    between atoms: C_28  and  C_30
REMARK                            x       y       z     vdW  Elec       q    Type
REMARK                         _______ _______ _______ _____ _____    ______ ____
ROOT
ATOM      1  C   UNL     1      -0.668   1.370  -0.543  0.00  0.00    +0.011 C 
ATOM      2  C   UNL     1      -0.553  -0.148  -0.434  0.00  0.00    +0.031 C 
ATOM      3  C   UNL     1      -1.940  -0.758  -0.239  0.00  0.00    +0.007 C 
ATOM      4  C   UNL     1      -2.405  -0.593   1.212  0.00  0.00    +0.005 C 
ATOM      5  C   UNL     1      -1.394  -1.303   2.111  0.00  0.00    +0.007 C 
ATOM      6  C   UNL     1      -0.054  -0.585   2.043  0.00  0.00    +0.012 C 
ATOM      7  C   UNL     1       0.445  -0.616   0.597  0.00  0.00    +0.123 C 
ATOM      8  C   UNL     1       1.798   0.112   0.481  0.00  0.00    +0.091 C 
ATOM      9  C   UNL     1       2.468  -0.696  -0.620  0.00  0.00    +0.040 A 
ATOM     10  C   UNL     1       3.498  -0.409  -1.493  0.00  0.00    +0.124 A 
ATOM     11  C   UNL     1       3.914  -1.367  -2.408  0.00  0.00    +0.054 A 
ATOM     12  C   UNL     1       3.288  -2.596  -2.441  0.00  0.00    +0.020 A 
ATOM     13  C   UNL     1       2.244  -2.875  -1.577  0.00  0.00    +0.028 A 
ATOM     14  C   UNL     1       1.823  -1.926  -0.653  0.00  0.00    +0.134 A 
ATOM     15  O   UNL     1       0.831  -1.978   0.282  0.00  0.00    -0.484 OA
ATOM     16  C   UNL     1       1.765  -4.275  -1.884  0.00  0.00    +0.202 C 
ATOM     17  O   UNL     1       2.299  -4.600  -3.182  0.00  0.00    -0.343 OA
ATOM     18  C   UNL     1       3.508  -3.828  -3.289  0.00  0.00    +0.280 C 
ATOM     19  C   UNL     1       0.958  -1.333   2.924  0.00  0.00    +0.013 C 
ATOM     20  C   UNL     1       0.445  -1.388   4.361  0.00  0.00    +0.032 C 
ATOM     21  C   UNL     1      -0.861  -2.171   4.418  0.00  0.00    +0.120 C 
ATOM     22  C   UNL     1      -1.929  -1.574   3.499  0.00  0.00    -0.005 C 
ATOM     23  C   UNL     1      -2.546  -0.337   4.149  0.00  0.00    +0.014 C 
ATOM     24  C   UNL     1      -3.050  -2.637   3.388  0.00  0.00    +0.014 C 
ATOM     25  C   UNL     1      -0.132   0.862   2.526  0.00  0.00    +0.015 C 
ENDROOT
BRANCH  18  26
ATOM     26  O   UNL     1       3.740  -3.456  -4.649  0.00  0.00    -0.363 OA
ATOM     27  H   UNL     1       3.888  -4.205  -5.242  0.00  0.00    +0.213 HD
ENDBRANCH  18  26
BRANCH  10  28
ATOM     28  O   UNL     1       4.106   0.806  -1.455  0.00  0.00    -0.506 OA
ATOM     29  H   UNL     1       4.865   0.847  -0.858  0.00  0.00    +0.292 HD
ENDBRANCH  10  28
BRANCH  21  30
ATOM     30  O   UNL     1      -1.352  -2.178   5.763  0.00  0.00    -0.391 OA
ATOM     31  H   UNL     1      -0.747  -2.583   6.400  0.00  0.00    +0.210 HD
ENDBRANCH  21  30
TORSDOF 3
