REMARK  Name = ZINC04404840
REMARK  7 active torsions:
REMARK  status: ('A' for Active; 'I' for Inactive)
REMARK    1  A    between atoms: C_1  and  C_2
REMARK    2  A    between atoms: C_8  and  N_10
REMARK    3  A    between atoms: C_11  and  C_13
REMARK    4  A    between atoms: C_13  and  S_14
REMARK    5  A    between atoms: S_14  and  C_15
REMARK    6  A    between atoms: N_28  and  C_29
REMARK    7  A    between atoms: C_29  and  C_30
REMARK                            x       y       z     vdW  Elec       q    Type
REMARK                         _______ _______ _______ _____ _____    ______ ____
ROOT
ATOM      1  C   UNL     1       0.269   5.341   0.028  0.00  0.00    +0.198 A 
ATOM      2  N   UNL     1       1.575   5.453   0.016  0.00  0.00    -0.120 NA
ATOM      3  N   UNL     1       2.120   4.164   0.004  0.00  0.00    -0.109 NA
ATOM      4  C   UNL     1       1.129   3.301   0.009  0.00  0.00    +0.240 A 
ATOM      5  N   UNL     1      -0.041   4.008   0.024  0.00  0.00    -0.256 N 
ATOM      6  C   UNL     1      -1.268   3.348   0.033  0.00  0.00    +0.064 A 
ATOM      7  C   UNL     1      -2.460   4.056   0.048  0.00  0.00    +0.027 A 
ATOM      8  C   UNL     1      -3.663   3.377   0.057  0.00  0.00    +0.002 A 
ATOM      9  C   UNL     1      -3.690   1.991   0.050  0.00  0.00    +0.001 A 
ATOM     10  C   UNL     1      -2.514   1.271   0.035  0.00  0.00    +0.015 A 
ATOM     11  C   UNL     1      -1.294   1.945   0.019  0.00  0.00    +0.064 A 
ATOM     12  C   UNL     1      -0.014   1.212   0.009  0.00  0.00    +0.263 A 
ATOM     13  O   UNL     1       0.002  -0.004   0.002  0.00  0.00    -0.267 OA
ATOM     14  N   UNL     1       1.137   1.914   0.002  0.00  0.00    -0.273 N 
ENDROOT
BRANCH   1  15
ATOM     15  S   UNL     1      -0.885   6.673   0.045  0.00  0.00    -0.076 S 
BRANCH  15  16
ATOM     16  C   UNL     1       0.159   8.157   0.043  0.00  0.00    +0.173 C 
BRANCH  16  18
ATOM     17  N   UNL     1      -0.154  10.611   0.058  0.00  0.00    -0.312 N 
ATOM     18  C   UNL     1      -0.715   9.385   0.057  0.00  0.00    +0.224 C 
ATOM     19  O   UNL     1      -1.922   9.271   0.068  0.00  0.00    -0.275 OA
ATOM     20  H   UNL     1       0.811  10.703   0.050  0.00  0.00    +0.149 HD
BRANCH  17  27
ATOM     21  C   UNL     1       0.146  12.646  -1.981  0.00  0.00    +0.009 C 
ATOM     22  C   UNL     1      -0.239  12.981  -0.539  0.00  0.00    +0.006 C 
ATOM     23  C   UNL     1       1.027  13.246   0.279  0.00  0.00    +0.005 C 
ATOM     24  C   UNL     1       0.642  13.582   1.721  0.00  0.00    +0.000 C 
ATOM     25  C   UNL     1      -0.122  12.406   2.332  0.00  0.00    +0.002 C 
ATOM     26  C   UNL     1      -1.388  12.140   1.514  0.00  0.00    +0.022 C 
ATOM     27  C   UNL     1      -1.003  11.805   0.072  0.00  0.00    +0.076 C 
ENDBRANCH  17  27
ENDBRANCH  16  18
ENDBRANCH  15  16
ENDBRANCH   1  15
BRANCH  14  28
ATOM     28  C   UNL     1       2.416   1.200  -0.015  0.00  0.00    +0.155 C 
BRANCH  28  29
ATOM     29  C   UNL     1       2.841   0.964  -1.442  0.00  0.00    -0.013 C 
ATOM     30  C   UNL     1       4.016   1.372  -1.851  0.00  0.00    +0.005 C 
ENDBRANCH  28  29
ENDBRANCH  14  28
TORSDOF 6
