REMARK  Name = ZINC63151242
REMARK  11 active torsions:
REMARK  status: ('A' for Active; 'I' for Inactive)
REMARK    1  A    between atoms: C_1  and  O_2
REMARK    2  A    between atoms: O_2  and  C_3
REMARK    3  A    between atoms: C_3  and  C_5
REMARK    4  A    between atoms: C_5  and  C_7
REMARK    5  A    between atoms: C_5  and  N_17
REMARK    6  A    between atoms: C_7  and  C_8
REMARK    7  A    between atoms: N_17  and  S_18
REMARK    8  A    between atoms: S_18  and  C_21
REMARK    9  A    between atoms: C_24  and  C_26
REMARK   10  A    between atoms: C_26  and  N_27
REMARK   11  A    between atoms: C_28  and  C_30
REMARK                            x       y       z     vdW  Elec       q    Type
REMARK                         _______ _______ _______ _____ _____    ______ ____
ROOT
ATOM      1  S   UNL     1       0.488  -2.862  -3.710  0.00  0.00    +0.065 S 
ATOM      2  O   UNL     1       1.435  -3.182  -4.720  0.00  0.00    -0.153 OA
ATOM      3  O   UNL     1      -0.538  -3.762  -3.315  0.00  0.00    -0.153 OA
ENDROOT
BRANCH   1   4
ATOM      4  C   UNL     1      -0.314  -1.379  -4.224  0.00  0.00    +0.143 A 
ATOM      5  C   UNL     1       0.130  -0.418  -5.070  0.00  0.00    +0.037 A 
ATOM      6  C   UNL     1      -0.679   0.672  -5.331  0.00  0.00    +0.015 A 
ATOM      7  C   UNL     1      -1.893   0.747  -4.732  0.00  0.00    +0.009 A 
ATOM      8  S   UNL     1      -1.924  -0.756  -3.769  0.00  0.00    -0.072 S 
BRANCH   7   9
ATOM      9  C   UNL     1      -2.945   1.819  -4.852  0.00  0.00    +0.147 C 
BRANCH   9  10
ATOM     10  N   UNL     1      -3.853   1.491  -5.954  0.00  0.00    -0.307 N 
ATOM     11  C   UNL     1      -4.880   2.314  -6.249  0.00  0.00    +0.244 C 
ATOM     12  O   UNL     1      -5.052   3.327  -5.600  0.00  0.00    -0.270 OA
ATOM     13  H   UNL     1      -3.716   0.683  -6.471  0.00  0.00    +0.149 HD
BRANCH  11  14
ATOM     14  C   UNL     1      -5.796   1.983  -7.361  0.00  0.00    +0.037 A 
ATOM     15  C   UNL     1      -5.604   0.817  -8.104  0.00  0.00    +0.013 A 
ATOM     16  C   UNL     1      -6.463   0.514  -9.140  0.00  0.00    +0.001 A 
ATOM     17  C   UNL     1      -7.512   1.363  -9.444  0.00  0.00    +0.000 A 
ATOM     18  C   UNL     1      -7.708   2.520  -8.711  0.00  0.00    +0.001 A 
ATOM     19  C   UNL     1      -6.860   2.832  -7.669  0.00  0.00    +0.013 A 
ENDBRANCH  11  14
ENDBRANCH   9  10
ENDBRANCH   7   9
ENDBRANCH   1   4
BRANCH   1  20
ATOM     20  N   UNL     1       1.354  -2.503  -2.345  0.00  0.00    -0.175 NA
ATOM     21  H   UNL     1       2.322  -2.557  -2.357  0.00  0.00    +0.149 HD
BRANCH  20  22
ATOM     22  C   UNL     1       0.657  -2.104  -1.120  0.00  0.00    +0.189 C 
BRANCH  22  23
ATOM     23  C   UNL     1       0.598  -0.600  -1.043  0.00  0.00    +0.326 C 
ATOM     24  O   UNL     1       1.088   0.070  -1.921  0.00  0.00    -0.249 OA
BRANCH  23  26
ATOM     25  C   UNL     1      -0.017   1.425   0.010  0.00  0.00    +0.280 C 
ATOM     26  O   UNL     1       0.002  -0.004   0.002  0.00  0.00    -0.467 OA
ENDBRANCH  23  26
ENDBRANCH  22  23
BRANCH  22  27
ATOM     27  C   UNL     1       1.412  -2.647   0.096  0.00  0.00    +0.065 C 
BRANCH  27  28
ATOM     28  C   UNL     1       1.365  -4.153   0.083  0.00  0.00    -0.039 C 
ATOM     29  C   UNL     1       2.303  -4.992  -0.414  0.00  0.00    -0.001 A 
ATOM     30  C   UNL     1       3.596  -4.761  -1.068  0.00  0.00    +0.010 A 
ATOM     31  C   UNL     1       4.329  -5.826  -1.467  0.00  0.00    +0.001 A 
ATOM     32  C   UNL     1       3.884  -7.141  -1.272  0.00  0.00    +0.002 A 
ATOM     33  C   UNL     1       2.707  -7.433  -0.679  0.00  0.00    +0.026 A 
ATOM     34  C   UNL     1       1.856  -6.390  -0.220  0.00  0.00    +0.043 A 
ATOM     35  N   UNL     1       0.688  -6.415   0.375  0.00  0.00    -0.380 N 
ATOM     36  C   UNL     1       0.264  -5.034   0.630  0.00  0.00    +0.144 C 
ATOM     37  H   UNL     1       0.189  -7.213   0.610  0.00  0.00    +0.160 HD
ENDBRANCH  27  28
ENDBRANCH  22  27
ENDBRANCH  20  22
ENDBRANCH   1  20
TORSDOF 10
