REMARK  Name = ZINC39487614
REMARK  10 active torsions:
REMARK  status: ('A' for Active; 'I' for Inactive)
REMARK    1  A    between atoms: C_1  and  C_2
REMARK    2  A    between atoms: C_2  and  C_3
REMARK    3  A    between atoms: C_2  and  C_4
REMARK    4  A    between atoms: C_4  and  C_5
REMARK    5  A    between atoms: C_5  and  C_32
REMARK    6  A    between atoms: N_10  and  C_11
REMARK    7  A    between atoms: C_11  and  C_12
REMARK    8  A    between atoms: C_12  and  C_25
REMARK    9  A    between atoms: N_15  and  C_18
REMARK   10  A    between atoms: C_18  and  C_19
REMARK                            x       y       z     vdW  Elec       q    Type
REMARK                         _______ _______ _______ _____ _____    ______ ____
ROOT
ATOM      1  C   UNL     1       3.750   0.901  -4.743  0.00  0.00    -0.014 C 
ATOM      2  C   UNL     1       3.858   2.007  -3.689  0.00  0.00    -0.010 C 
ATOM      3  C   UNL     1       4.522   1.442  -2.431  0.00  0.00    -0.078 C 
ATOM      4  N   UNL     1       5.864   0.947  -2.762  0.00  0.00    +0.382 N 
ATOM      5  C   UNL     1       5.763  -0.162  -3.718  0.00  0.00    -0.078 C 
ATOM      6  C   UNL     1       5.147   0.341  -5.026  0.00  0.00    -0.010 C 
ATOM      7  H   UNL     1       6.406   1.694  -3.170  0.00  0.00    -0.081 HD
ENDROOT
BRANCH   1   8
ATOM      8  C   UNL     1       3.159   1.476  -6.032  0.00  0.00    -0.003 C 
ATOM      9  C   UNL     1       3.248   0.431  -7.145  0.00  0.00    +0.004 C 
ATOM     10  C   UNL     1       2.657   1.006  -8.433  0.00  0.00    +0.000 C 
ATOM     11  C   UNL     1       3.442   2.253  -8.842  0.00  0.00    +0.000 C 
ATOM     12  C   UNL     1       3.353   3.300  -7.729  0.00  0.00    +0.000 C 
ATOM     13  C   UNL     1       3.944   2.724  -6.440  0.00  0.00    +0.004 C 
ENDBRANCH   1   8
BRANCH   1  14
ATOM     14  C   UNL     1       2.846  -0.217  -4.220  0.00  0.00    +0.117 C 
BRANCH  14  20
ATOM     15  C   UNL     1       0.297   0.166  -4.620  0.00  0.00    +0.053 C 
ATOM     16  C   UNL     1      -0.751   0.946  -3.802  0.00  0.00    +0.148 C 
ATOM     17  N   UNL     1       0.014   1.476  -2.664  0.00  0.00    -0.220 N 
ATOM     18  C   UNL     1       1.292   1.088  -2.773  0.00  0.00    +0.315 C 
ATOM     19  O   UNL     1       2.147   1.389  -1.963  0.00  0.00    -0.252 OA
ATOM     20  N   UNL     1       1.541   0.340  -3.856  0.00  0.00    -0.277 N 
ATOM     21 BR   UNL     1      -0.677   2.515  -1.299  0.00  0.00    +0.040 Br
ATOM     22  C   UNL     1       0.441   0.761  -6.022  0.00  0.00    +0.033 C 
BRANCH  15  23
ATOM     23  C   UNL     1      -0.080  -1.315  -4.702  0.00  0.00    +0.030 C 
BRANCH  23  25
ATOM     24  C   UNL     1      -0.963  -1.384  -2.366  0.00  0.00    +0.007 C 
ATOM     25  C   UNL     1       0.082  -1.960  -3.325  0.00  0.00    -0.015 C 
ATOM     26  C   UNL     1      -0.114  -3.473  -3.443  0.00  0.00    +0.007 C 
ENDBRANCH  23  25
ENDBRANCH  15  23
ENDBRANCH  14  20
ENDBRANCH   1  14
BRANCH   4  27
ATOM     27  C   UNL     1       6.526   0.478  -1.538  0.00  0.00    -0.043 C 
BRANCH  27  28
ATOM     28  C   UNL     1       7.948   0.091  -1.853  0.00  0.00    -0.064 A 
ATOM     29  C   UNL     1       8.243  -1.203  -2.239  0.00  0.00    +0.002 A 
ATOM     30  C   UNL     1       9.548  -1.558  -2.529  0.00  0.00    +0.000 A 
ATOM     31  C   UNL     1      10.557  -0.619  -2.432  0.00  0.00    +0.000 A 
ATOM     32  C   UNL     1      10.262   0.676  -2.047  0.00  0.00    +0.000 A 
ATOM     33  C   UNL     1       8.957   1.032  -1.762  0.00  0.00    +0.002 A 
ENDBRANCH  27  28
ENDBRANCH   4  27
TORSDOF 7
