REMARK  Name = ZINC66870521
REMARK  11 active torsions:
REMARK  status: ('A' for Active; 'I' for Inactive)
REMARK    1  A    between atoms: C_1  and  C_2
REMARK    2  A    between atoms: C_2  and  C_4
REMARK    3  A    between atoms: C_2  and  N_14
REMARK    4  A    between atoms: C_7  and  S_10
REMARK    5  A    between atoms: S_10  and  N_13
REMARK    6  A    between atoms: N_14  and  C_15
REMARK    7  A    between atoms: N_14  and  C_16
REMARK    8  A    between atoms: C_16  and  C_17
REMARK    9  A    between atoms: C_17  and  C_18
REMARK   10  A    between atoms: N_20  and  C_21
REMARK   11  A    between atoms: C_21  and  C_22
REMARK                            x       y       z     vdW  Elec       q    Type
REMARK                         _______ _______ _______ _____ _____    ______ ____
ROOT
ATOM      1  N   UNL     1       0.713  -0.491   1.192  0.00  0.00    +0.383 N 
ATOM      2  C   UNL     1       2.091   0.018   1.182  0.00  0.00    -0.095 C 
ATOM      3  H   UNL     1       0.240  -0.165   2.022  0.00  0.00    -0.081 HD
ENDROOT
BRANCH   1   5
ATOM      4  C   UNL     1      -0.019   1.526   0.010  0.00  0.00    -0.008 C 
ATOM      5  C   UNL     1       0.002  -0.004   0.002  0.00  0.00    -0.041 C 
BRANCH   5   6
ATOM      6  C   UNL     1      -1.412  -0.526   0.013  0.00  0.00    -0.061 A 
ATOM      7  C   UNL     1      -2.123  -0.571   1.197  0.00  0.00    +0.004 A 
ATOM      8  C   UNL     1      -3.420  -1.049   1.207  0.00  0.00    +0.029 A 
ATOM      9  C   UNL     1      -4.006  -1.482   0.032  0.00  0.00    +0.105 A 
ATOM     10  C   UNL     1      -3.295  -1.436  -1.153  0.00  0.00    +0.029 A 
ATOM     11  C   UNL     1      -2.000  -0.954  -1.163  0.00  0.00    +0.004 A 
BRANCH   9  12
ATOM     12  S   UNL     1      -5.658  -2.093   0.045  0.00  0.00    +0.056 S 
ATOM     13  O   UNL     1      -5.785  -2.944  -1.086  0.00  0.00    -0.153 OA
ATOM     14  O   UNL     1      -5.915  -2.542   1.369  0.00  0.00    -0.153 OA
BRANCH  12  15
ATOM     15  N   UNL     1      -6.660  -0.801  -0.219  0.00  0.00    -0.204 NA
ATOM     16  H   UNL     1      -7.510  -0.930  -0.669  0.00  0.00    +0.144 HD
ATOM     17  H   UNL     1      -6.397   0.085   0.076  0.00  0.00    +0.144 HD
ENDBRANCH  12  15
ENDBRANCH   9  12
ENDBRANCH   5   6
ENDBRANCH   1   5
BRANCH   1  18
ATOM     18  C   UNL     1       0.733  -1.960   1.184  0.00  0.00    -0.069 C 
BRANCH  18  19
ATOM     19  C   UNL     1       1.361  -2.468   2.483  0.00  0.00    +0.077 C 
BRANCH  19  20
ATOM     20  C   UNL     1       1.382  -3.975   2.474  0.00  0.00    +0.211 C 
ATOM     21  O   UNL     1       0.937  -4.582   1.524  0.00  0.00    -0.276 OA
ATOM     22  N   UNL     1       1.894  -4.648   3.524  0.00  0.00    -0.315 N 
ATOM     23  H   UNL     1       2.250  -4.162   4.284  0.00  0.00    +0.149 HD
BRANCH  22  24
ATOM     24  C   UNL     1       1.914  -6.113   3.516  0.00  0.00    +0.107 C 
BRANCH  24  25
ATOM     25  C   UNL     1       2.543  -6.621   4.814  0.00  0.00    +0.006 C 
ATOM     26  C   UNL     1       4.012  -6.197   4.870  0.00  0.00    +0.005 C 
ATOM     27  C   UNL     1       4.641  -6.706   6.169  0.00  0.00    +0.000 C 
ATOM     28  C   UNL     1       4.549  -8.232   6.216  0.00  0.00    +0.000 C 
ATOM     29  C   UNL     1       3.080  -8.656   6.161  0.00  0.00    +0.000 C 
ATOM     30  C   UNL     1       2.451  -8.148   4.862  0.00  0.00    +0.005 C 
ENDBRANCH  24  25
ENDBRANCH  22  24
ENDBRANCH  19  20
ENDBRANCH  18  19
ENDBRANCH   1  18
TORSDOF 9
