REMARK  Name = ZINC59147607
REMARK  9 active torsions:
REMARK  status: ('A' for Active; 'I' for Inactive)
REMARK    1  A    between atoms: C_1  and  C_2
REMARK    2  A    between atoms: C_5  and  N_8
REMARK    3  A    between atoms: C_9  and  C_31
REMARK    4  A    between atoms: C_10  and  C_14
REMARK    5  A    between atoms: C_11  and  C_13
REMARK    6  A    between atoms: N_15  and  N_16
REMARK    7  A    between atoms: C_17  and  C_19
REMARK    8  A    between atoms: C_28  and  O_29
REMARK    9  A    between atoms: O_29  and  C_30
REMARK                            x       y       z     vdW  Elec       q    Type
REMARK                         _______ _______ _______ _____ _____    ______ ____
ROOT
ATOM      1  C   UNL     1       0.967  -7.471   1.196  0.00  0.00    +0.142 C 
ATOM      2  N   UNL     1       0.669  -8.650   0.744  0.00  0.00    -0.187 NA
ENDROOT
BRANCH   1   5
ATOM      3  N   UNL     1       0.059  -4.172  -0.021  0.00  0.00    -0.236 N 
ATOM      4  C   UNL     1       0.697  -4.959   0.871  0.00  0.00    +0.051 A 
ATOM      5  C   UNL     1       0.463  -6.268   0.507  0.00  0.00    +0.038 A 
ATOM      6  C   UNL     1      -0.348  -6.242  -0.649  0.00  0.00    +0.069 A 
ATOM      7  N   UNL     1      -0.587  -4.995  -0.951  0.00  0.00    -0.171 NA
ATOM      8  C   UNL     1      -0.854  -7.447  -1.400  0.00  0.00    +0.068 C 
ATOM      9  C   UNL     1       1.515  -4.492   2.048  0.00  0.00    +0.066 C 
BRANCH   3  14
ATOM     10  C   UNL     1      -0.018   1.503   0.010  0.00  0.00    +0.044 C 
ATOM     11  C   UNL     1       0.002  -0.004   0.002  0.00  0.00    -0.050 A 
ATOM     12  C   UNL     1       0.006  -0.688  -1.200  0.00  0.00    +0.005 A 
ATOM     13  C   UNL     1       0.025  -2.068  -1.211  0.00  0.00    +0.028 A 
ATOM     14  C   UNL     1       0.040  -2.771  -0.013  0.00  0.00    +0.066 A 
ATOM     15  C   UNL     1       0.037  -2.082   1.192  0.00  0.00    +0.028 A 
ATOM     16  C   UNL     1       0.023  -0.700   1.196  0.00  0.00    +0.005 A 
ENDBRANCH   3  14
ENDBRANCH   1   5
BRANCH   2  17
ATOM     17  N   UNL     1       1.147  -9.793   1.398  0.00  0.00    -0.203 N 
ATOM     18  C   UNL     1       0.838 -11.018   0.928  0.00  0.00    +0.267 C 
ATOM     19  O   UNL     1       0.143 -11.131  -0.064  0.00  0.00    -0.268 OA
ATOM     20  H   UNL     1       1.701  -9.702   2.189  0.00  0.00    +0.178 HD
BRANCH  18  21
ATOM     21  C   UNL     1       1.341 -12.221   1.618  0.00  0.00    +0.080 A 
ATOM     22  C   UNL     1       2.128 -12.087   2.751  0.00  0.00    +0.025 A 
ATOM     23  C   UNL     1       2.603 -13.234   3.402  0.00  0.00    -0.017 A 
ATOM     24  C   UNL     1       3.403 -13.135   4.555  0.00  0.00    +0.008 A 
ATOM     25  C   UNL     1       3.849 -14.267   5.165  0.00  0.00    +0.001 A 
ATOM     26  C   UNL     1       3.525 -15.527   4.664  0.00  0.00    +0.001 A 
ATOM     27  C   UNL     1       2.754 -15.662   3.550  0.00  0.00    +0.008 A 
ATOM     28  C   UNL     1       2.273 -14.517   2.892  0.00  0.00    -0.014 A 
ATOM     29  C   UNL     1       1.475 -14.626   1.742  0.00  0.00    +0.055 A 
ATOM     30  C   UNL     1       1.015 -13.501   1.122  0.00  0.00    +0.133 A 
BRANCH  30  31
ATOM     31  O   UNL     1       0.239 -13.614   0.014  0.00  0.00    -0.494 OA
ATOM     32  C   UNL     1      -0.056 -14.937  -0.439  0.00  0.00    +0.277 C 
ENDBRANCH  30  31
ENDBRANCH  18  21
ENDBRANCH   2  17
TORSDOF 5
