REMARK  Name = ZINC64079263
REMARK  12 active torsions:
REMARK  status: ('A' for Active; 'I' for Inactive)
REMARK    1  A    between atoms: C_1  and  C_2
REMARK    2  A    between atoms: C_5  and  C_7
REMARK    3  A    between atoms: N_9  and  C_10
REMARK    4  A    between atoms: C_10  and  C_11
REMARK    5  A    between atoms: N_13  and  C_14
REMARK    6  A    between atoms: C_14  and  C_15
REMARK    7  A    between atoms: C_15  and  C_17
REMARK    8  A    between atoms: C_15  and  C_27
REMARK    9  A    between atoms: C_21  and  O_25
REMARK   10  A    between atoms: C_22  and  O_23
REMARK   11  A    between atoms: O_23  and  C_24
REMARK   12  A    between atoms: O_25  and  C_26
REMARK                            x       y       z     vdW  Elec       q    Type
REMARK                         _______ _______ _______ _____ _____    ______ ____
ROOT
ATOM      1  C   UNL     1       5.648  -7.737   3.859  0.00  0.00    +0.068 C 
ENDROOT
BRANCH   1   2
ATOM      2  C   UNL     1       6.173  -8.687   4.904  0.00  0.00    -0.033 C 
ATOM      3  C   UNL     1       5.716  -9.931   5.176  0.00  0.00    -0.000 A 
ATOM      4  C   UNL     1       4.634 -10.740   4.601  0.00  0.00    +0.010 A 
ATOM      5  C   UNL     1       4.410 -11.980   5.094  0.00  0.00    +0.001 A 
ATOM      6  C   UNL     1       5.182 -12.509   6.137  0.00  0.00    +0.002 A 
ATOM      7  C   UNL     1       6.192 -11.826   6.716  0.00  0.00    +0.026 A 
ATOM      8  C   UNL     1       6.517 -10.514   6.276  0.00  0.00    +0.043 A 
ATOM      9  N   UNL     1       7.434  -9.663   6.670  0.00  0.00    -0.380 N 
ATOM     10  C   UNL     1       7.321  -8.445   5.858  0.00  0.00    +0.145 C 
ATOM     11  H   UNL     1       8.081  -9.815   7.376  0.00  0.00    +0.160 HD
ENDBRANCH   1   2
BRANCH   1  12
ATOM     12  C   UNL     1       6.745  -7.414   2.878  0.00  0.00    +0.007 A 
ATOM     13  C   UNL     1       7.872  -6.732   3.300  0.00  0.00    +0.008 A 
ATOM     14  C   UNL     1       8.880  -6.434   2.403  0.00  0.00    +0.004 A 
ATOM     15  C   UNL     1       8.767  -6.816   1.079  0.00  0.00    +0.049 A 
ATOM     16  C   UNL     1       7.641  -7.500   0.649  0.00  0.00    +0.162 A 
ATOM     17  C   UNL     1       6.628  -7.806   1.554  0.00  0.00    +0.165 A 
BRANCH  17  18
ATOM     18  O   UNL     1       5.524  -8.481   1.138  0.00  0.00    -0.491 OA
ATOM     19  C   UNL     1       4.475  -7.710   0.549  0.00  0.00    +0.277 C 
ENDBRANCH  17  18
BRANCH  16  20
ATOM     20  O   UNL     1       7.528  -7.877  -0.653  0.00  0.00    -0.491 OA
ATOM     21  C   UNL     1       8.608  -7.535  -1.523  0.00  0.00    +0.277 C 
ENDBRANCH  16  20
ENDBRANCH   1  12
BRANCH   1  22
ATOM     22  C   UNL     1       5.171  -6.449   4.533  0.00  0.00    +0.117 C 
BRANCH  22  25
ATOM     23  C   UNL     1       3.975  -4.419   3.914  0.00  0.00    +0.230 C 
ATOM     24  O   UNL     1       3.949  -4.112   5.087  0.00  0.00    -0.274 OA
ATOM     25  N   UNL     1       4.563  -5.570   3.532  0.00  0.00    -0.313 N 
ATOM     26  H   UNL     1       4.584  -5.816   2.594  0.00  0.00    +0.149 HD
BRANCH  23  27
ATOM     27  C   UNL     1       3.349  -3.515   2.884  0.00  0.00    +0.200 C 
BRANCH  27  30
ATOM     28  C   UNL     1       2.166  -1.385   2.819  0.00  0.00    +0.217 C 
ATOM     29  O   UNL     1       2.083  -1.502   1.615  0.00  0.00    -0.275 OA
ATOM     30  N   UNL     1       2.781  -2.338   3.547  0.00  0.00    -0.306 N 
ATOM     31  H   UNL     1       2.848  -2.245   4.510  0.00  0.00    +0.149 HD
BRANCH  28  35
ATOM     32  C   UNL     1       1.031   2.338   3.031  0.00  0.00    +0.008 C 
ATOM     33  C   UNL     1       0.897   0.871   2.620  0.00  0.00    -0.002 C 
ATOM     34  C   UNL     1       0.057  -0.041   3.517  0.00  0.00    +0.017 C 
ATOM     35  C   UNL     1       1.582  -0.175   3.501  0.00  0.00    +0.078 C 
ENDBRANCH  28  35
ENDBRANCH  27  30
ENDBRANCH  23  27
ENDBRANCH  22  25
ENDBRANCH   1  22
TORSDOF 9
