REMARK  Name = ZINC39929440
REMARK  4 active torsions:
REMARK  status: ('A' for Active; 'I' for Inactive)
REMARK    1  A    between atoms: C_16  and  C_17
REMARK    2  A    between atoms: C_17  and  C_18
REMARK    3  A    between atoms: C_18  and  N_19
REMARK    4  A    between atoms: C_22  and  N_25
REMARK                            x       y       z     vdW  Elec       q    Type
REMARK                         _______ _______ _______ _____ _____    ______ ____
ROOT
ATOM      1  C   UNL     1       7.119  -0.092   0.682  0.00  0.00    -0.075 C 
ENDROOT
BRANCH   1   2
ATOM      2  N   UNL     1       8.413  -0.780   0.589  0.00  0.00    +0.380 N 
ATOM      3  C   UNL     1       8.495  -1.494  -0.691  0.00  0.00    -0.077 C 
ATOM      4  C   UNL     1       9.807  -2.279  -0.759  0.00  0.00    +0.006 C 
ATOM      5  C   UNL     1      10.984  -1.307  -0.639  0.00  0.00    +0.089 C 
ATOM      6  C   UNL     1      10.848  -0.515   0.665  0.00  0.00    +0.006 C 
ATOM      7  C   UNL     1       9.497   0.205   0.680  0.00  0.00    -0.077 C 
ATOM      8  H   UNL     1       8.497  -1.442   1.347  0.00  0.00    -0.082 HD
BRANCH   5   9
ATOM      9  N   UNL     1      12.241  -2.058  -0.627  0.00  0.00    -0.289 N 
ATOM     10  C   UNL     1      13.278  -1.927  -1.547  0.00  0.00    +0.070 A 
ATOM     11  C   UNL     1      13.462  -1.129  -2.666  0.00  0.00    +0.028 A 
ATOM     12  C   UNL     1      14.630  -1.228  -3.396  0.00  0.00    +0.002 A 
ATOM     13  C   UNL     1      15.618  -2.119  -3.016  0.00  0.00    +0.002 A 
ATOM     14  C   UNL     1      15.444  -2.918  -1.902  0.00  0.00    +0.028 A 
ATOM     15  C   UNL     1      14.275  -2.825  -1.163  0.00  0.00    +0.067 A 
ATOM     16  N   UNL     1      13.812  -3.476  -0.021  0.00  0.00    -0.306 N 
ATOM     17  H   UNL     1      14.289  -4.159   0.476  0.00  0.00    +0.170 HD
ATOM     18  C   UNL     1      12.593  -2.990   0.279  0.00  0.00    +0.328 A 
ATOM     19  O   UNL     1      11.911  -3.343   1.223  0.00  0.00    -0.247 OA
ENDBRANCH   5   9
ENDBRANCH   1   2
BRANCH   1  20
ATOM     20  C   UNL     1       5.992  -1.126   0.714  0.00  0.00    +0.009 C 
BRANCH  20  36
ATOM     21  C   UNL     1      -0.017   1.371   0.010  0.00  0.00    +0.000 A 
ATOM     22  C   UNL     1       1.166   2.089   0.002  0.00  0.00    +0.001 A 
ATOM     23  C   UNL     1       2.364   1.408  -0.025  0.00  0.00    +0.009 A 
ATOM     24  C   UNL     1       2.384   0.013  -0.037  0.00  0.00    -0.014 A 
ATOM     25  C   UNL     1       1.202  -0.720  -0.009  0.00  0.00    -0.039 A 
ATOM     26  C   UNL     1       0.002  -0.004   0.002  0.00  0.00    +0.004 A 
ATOM     27  C   UNL     1       1.038  -2.220   0.043  0.00  0.00    +0.040 C 
ATOM     28  C   UNL     1       2.349  -2.976   0.087  0.00  0.00    +0.040 C 
ATOM     29  C   UNL     1       3.166  -2.775  -1.161  0.00  0.00    -0.039 A 
ATOM     30  C   UNL     1       3.186  -3.675  -2.200  0.00  0.00    +0.004 A 
ATOM     31  C   UNL     1       4.008  -3.419  -3.289  0.00  0.00    +0.000 A 
ATOM     32  C   UNL     1       4.796  -2.282  -3.327  0.00  0.00    +0.001 A 
ATOM     33  C   UNL     1       4.761  -1.370  -2.285  0.00  0.00    +0.009 A 
ATOM     34  C   UNL     1       3.920  -1.626  -1.213  0.00  0.00    -0.014 A 
ATOM     35  C   UNL     1       3.710  -0.664  -0.096  0.00  0.00    -0.014 C 
ATOM     36  C   UNL     1       4.664  -0.420   0.809  0.00  0.00    -0.020 C 
ENDBRANCH  20  36
ENDBRANCH   1  20
TORSDOF 4
