REMARK  Name = ZINC13078396
REMARK  5 active torsions:
REMARK  status: ('A' for Active; 'I' for Inactive)
REMARK    1  A    between atoms: C_3  and  C_24
REMARK    2  A    between atoms: C_4  and  N_11
REMARK    3  A    between atoms: C_6  and  C_7
REMARK    4  A    between atoms: N_11  and  S_12
REMARK    5  A    between atoms: S_12  and  C_15
REMARK                            x       y       z     vdW  Elec       q    Type
REMARK                         _______ _______ _______ _____ _____    ______ ____
ROOT
ATOM      1  N   UNL     1       3.453   1.271  -1.457  0.00  0.00    -0.215 N 
ATOM      2  H   UNL     1       3.947   0.520  -1.823  0.00  0.00    +0.174 HD
ENDROOT
BRANCH   1   6
ATOM      3  C   UNL     1       4.482   5.162  -2.531  0.00  0.00    +0.013 A 
ATOM      4  C   UNL     1       3.973   4.310  -3.487  0.00  0.00    +0.017 A 
ATOM      5  C   UNL     1       3.629   3.001  -3.141  0.00  0.00    +0.085 A 
ATOM      6  C   UNL     1       3.796   2.567  -1.815  0.00  0.00    +0.063 A 
ATOM      7  C   UNL     1       4.310   3.442  -0.866  0.00  0.00    +0.037 A 
ATOM      8  C   UNL     1       4.649   4.730  -1.226  0.00  0.00    +0.057 A 
BRANCH   8   9
ATOM      9  C   UNL     1       5.207   5.674  -0.191  0.00  0.00    +0.417 C 
ATOM     10  F   UNL     1       6.601   5.562  -0.161  0.00  0.00    -0.166 F 
ATOM     11  F   UNL     1       4.850   6.987  -0.516  0.00  0.00    -0.166 F 
ATOM     12  F   UNL     1       4.686   5.347   1.066  0.00  0.00    -0.166 F 
ENDBRANCH   8   9
BRANCH   5  13
ATOM     13  C   UNL     1       3.091   2.082  -4.159  0.00  0.00    +0.388 C 
ATOM     14  O   UNL     1       2.789   0.946  -3.853  0.00  0.00    -0.241 OA
ATOM     15  O   UNL     1       2.933   2.502  -5.430  0.00  0.00    -0.241 OA
ENDBRANCH   5  13
ENDBRANCH   1   6
BRANCH   1  16
ATOM     16  S   UNL     1       2.203   1.006  -0.404  0.00  0.00    +0.075 S 
ATOM     17  O   UNL     1       2.398   1.891   0.690  0.00  0.00    -0.150 OA
ATOM     18  O   UNL     1       2.104  -0.402  -0.237  0.00  0.00    -0.150 OA
BRANCH  16  19
ATOM     19  C   UNL     1       0.724   1.522  -1.212  0.00  0.00    +0.147 A 
ATOM     20  C   UNL     1      -0.253   0.594  -1.524  0.00  0.00    +0.035 A 
ATOM     21  C   UNL     1      -1.411   0.996  -2.161  0.00  0.00    +0.043 A 
ATOM     22  C   UNL     1      -1.601   2.330  -2.479  0.00  0.00    +0.161 A 
ATOM     23  C   UNL     1      -0.623   3.261  -2.167  0.00  0.00    +0.195 A 
ATOM     24  C   UNL     1       0.541   2.856  -1.533  0.00  0.00    +0.188 A 
ATOM     25  F   UNL     1       1.495   3.762  -1.227  0.00  0.00    -0.200 F 
ATOM     26  F   UNL     1      -0.803   4.563  -2.482  0.00  0.00    -0.199 F 
ATOM     27  F   UNL     1      -2.736   2.723  -3.098  0.00  0.00    -0.202 F 
ENDBRANCH  16  19
ENDBRANCH   1  16
TORSDOF 5
