REMARK  Name = ZINC04162317
REMARK  7 active torsions:
REMARK  status: ('A' for Active; 'I' for Inactive)
REMARK    1  A    between atoms: C_1  and  C_2
REMARK    2  A    between atoms: C_3  and  C_19
REMARK    3  A    between atoms: C_9  and  C_12
REMARK    4  A    between atoms: C_19  and  C_21
REMARK    5  A    between atoms: C_19  and  C_27
REMARK    6  A    between atoms: C_27  and  C_29
REMARK    7  A    between atoms: C_27  and  C_31
REMARK                            x       y       z     vdW  Elec       q    Type
REMARK                         _______ _______ _______ _____ _____    ______ ____
ROOT
ATOM      1  C   UNL     1       0.128   1.113   0.014  0.00  0.00    +0.065 C 
ATOM      2  C   UNL     1      -0.649   1.573  -1.192  0.00  0.00    +0.039 A 
ATOM      3  C   UNL     1      -0.915   2.855  -1.517  0.00  0.00    +0.048 A 
ATOM      4  C   UNL     1      -1.664   2.858  -2.716  0.00  0.00    +0.277 A 
ATOM      5  N   UNL     1      -1.837   1.574  -3.093  0.00  0.00    -0.194 N 
ATOM      6  N   UNL     1      -1.198   0.763  -2.146  0.00  0.00    -0.292 N 
ATOM      7  C   UNL     1      -2.519   1.136  -4.220  0.00  0.00    +0.196 A 
ATOM      8  N   UNL     1      -2.729  -0.097  -4.642  0.00  0.00    -0.221 NA
ATOM      9  C   UNL     1      -3.410  -0.337  -5.753  0.00  0.00    +0.080 A 
ATOM     10  C   UNL     1      -3.907   0.712  -6.475  0.00  0.00    +0.077 A 
ATOM     11  S   UNL     1      -3.355   2.091  -5.478  0.00  0.00    -0.056 S 
ATOM     12  O   UNL     1      -2.080   3.841  -3.302  0.00  0.00    -0.265 OA
ATOM     13  H   UNL     1      -1.154  -0.205  -2.163  0.00  0.00    +0.187 HD
ENDROOT
BRANCH   9  14
ATOM     14  C   UNL     1      -3.633  -1.731  -6.208  0.00  0.00    +0.001 A 
ATOM     15  C   UNL     1      -4.345  -1.978  -7.380  0.00  0.00    +0.010 A 
ATOM     16  C   UNL     1      -4.549  -3.277  -7.799  0.00  0.00    +0.001 A 
ATOM     17  C   UNL     1      -4.048  -4.333  -7.058  0.00  0.00    +0.000 A 
ATOM     18  C   UNL     1      -3.341  -4.093  -5.894  0.00  0.00    +0.001 A 
ATOM     19  C   UNL     1      -3.125  -2.798  -5.468  0.00  0.00    +0.010 A 
ENDBRANCH   9  14
BRANCH   3  20
ATOM     20  C   UNL     1      -0.488   4.072  -0.737  0.00  0.00    +0.082 C 
BRANCH  20  21
ATOM     21  C   UNL     1       0.527   4.849  -1.535  0.00  0.00    -0.038 A 
ATOM     22  C   UNL     1       0.152   5.473  -2.710  0.00  0.00    +0.004 A 
ATOM     23  C   UNL     1       1.083   6.186  -3.442  0.00  0.00    +0.000 A 
ATOM     24  C   UNL     1       2.389   6.275  -2.999  0.00  0.00    +0.000 A 
ATOM     25  C   UNL     1       2.764   5.652  -1.823  0.00  0.00    +0.000 A 
ATOM     26  C   UNL     1       1.832   4.943  -1.089  0.00  0.00    +0.004 A 
ENDBRANCH  20  21
BRANCH  20  27
ATOM     27  C   UNL     1      -1.707   4.956  -0.464  0.00  0.00    +0.189 C 
BRANCH  27  28
ATOM     28  C   UNL     1      -1.280   6.173   0.315  0.00  0.00    +0.228 C 
ATOM     29  O   UNL     1      -1.754   6.388   1.411  0.00  0.00    -0.275 OA
ATOM     30  N   UNL     1      -0.372   7.022  -0.205  0.00  0.00    -0.328 N 
ATOM     31  H   UNL     1       0.007   6.850  -1.081  0.00  0.00    +0.145 HD
ATOM     32  H   UNL     1      -0.098   7.806   0.297  0.00  0.00    +0.145 HD
ENDBRANCH  27  28
BRANCH  27  33
ATOM     33  C   UNL     1      -2.699   4.197   0.315  0.00  0.00    +0.076 C 
ATOM     34  N   UNL     1      -3.464   3.611   0.917  0.00  0.00    -0.196 NA
ENDBRANCH  27  33
ENDBRANCH  20  27
ENDBRANCH   3  20
TORSDOF 6
