REMARK  Name = ZINC12434056
REMARK  9 active torsions:
REMARK  status: ('A' for Active; 'I' for Inactive)
REMARK    1  A    between atoms: C_1  and  C_2
REMARK    2  A    between atoms: C_9  and  C_23
REMARK    3  A    between atoms: C_10  and  C_11
REMARK    4  A    between atoms: C_11  and  N_62
REMARK    5  A    between atoms: C_12  and  C_14
REMARK    6  A    between atoms: C_12  and  C_15
REMARK    7  A    between atoms: C_12  and  N_62
REMARK    8  A    between atoms: C_18  and  O_21
REMARK    9  A    between atoms: O_21  and  C_22
REMARK                            x       y       z     vdW  Elec       q    Type
REMARK                         _______ _______ _______ _____ _____    ______ ____
ROOT
ATOM      1  C   UNL     1      -1.776  -3.331  -0.369  0.00  0.00    +0.044 C 
ATOM      2  C   UNL     1      -0.699  -2.289  -0.213  0.00  0.00    -0.046 A 
ATOM      3  C   UNL     1       0.627  -2.678   0.045  0.00  0.00    +0.021 A 
ATOM      4  C   UNL     1       1.595  -1.748   0.186  0.00  0.00    +0.093 A 
ATOM      5  N   UNL     1       1.302  -0.417   0.080  0.00  0.00    -0.305 N 
ATOM      6  C   UNL     1       0.017  -0.007  -0.171  0.00  0.00    +0.139 A 
ATOM      7  C   UNL     1      -1.005  -0.969  -0.321  0.00  0.00    +0.050 A 
ATOM      8  N   UNL     1       0.004   1.314  -0.226  0.00  0.00    -0.223 NA
ATOM      9  C   UNL     1       1.252   1.774  -0.015  0.00  0.00    +0.146 A 
ATOM     10  C   UNL     1       2.074   0.701   0.177  0.00  0.00    +0.039 A 
ENDROOT
BRANCH   9  11
ATOM     11  C   UNL     1       1.660   3.192   0.003  0.00  0.00    +0.267 C 
ATOM     12  O   UNL     1       2.836   3.485   0.097  0.00  0.00    -0.268 OA
ATOM     13  N   UNL     1       0.729   4.163  -0.085  0.00  0.00    -0.296 N 
ATOM     14  C   UNL     1      -0.667   3.787  -0.077  0.00  0.00    +0.108 C 
ATOM     15  C   UNL     1      -1.148   3.518  -1.518  0.00  0.00    +0.019 C 
ATOM     16  C   UNL     1      -1.240   4.780  -2.268  0.00  0.00    +0.002 C 
ATOM     17  C   UNL     1       0.090   5.507  -2.441  0.00  0.00    +0.002 C 
ATOM     18  C   UNL     1       0.356   6.359  -1.225  0.00  0.00    +0.019 C 
ATOM     19  C   UNL     1       1.177   5.565  -0.192  0.00  0.00    +0.108 C 
ENDBRANCH   9  11
BRANCH  10  20
ATOM     20  C   UNL     1       3.556   0.745   0.447  0.00  0.00    -0.025 C 
BRANCH  20  21
ATOM     21  N   UNL     1       4.282   0.706  -0.837  0.00  0.00    +0.387 N 
ATOM     22  H   UNL     1       4.007   1.514  -1.407  0.00  0.00    -0.085 HD
ATOM     23  H   UNL     1       4.044  -0.161  -1.334  0.00  0.00    -0.085 HD
BRANCH  21  24
ATOM     24  C   UNL     1       5.738   0.748  -0.603  0.00  0.00    -0.044 C 
ATOM     25  C   UNL     1       6.191   2.203  -0.464  0.00  0.00    -0.009 C 
BRANCH  24  26
ATOM     26  C   UNL     1       6.445   0.112  -1.772  0.00  0.00    -0.061 A 
ATOM     27  C   UNL     1       5.991   0.335  -3.059  0.00  0.00    +0.005 A 
ATOM     28  C   UNL     1       6.641  -0.242  -4.132  0.00  0.00    +0.046 A 
ATOM     29  C   UNL     1       7.743  -1.057  -3.917  0.00  0.00    +0.120 A 
ATOM     30  C   UNL     1       8.194  -1.284  -2.625  0.00  0.00    +0.046 A 
ATOM     31  C   UNL     1       7.544  -0.699  -1.556  0.00  0.00    +0.005 A 
BRANCH  29  32
ATOM     32  O   UNL     1       8.380  -1.631  -4.971  0.00  0.00    -0.495 OA
ATOM     33  C   UNL     1       7.861  -1.353  -6.273  0.00  0.00    +0.277 C 
ENDBRANCH  29  32
ENDBRANCH  24  26
ENDBRANCH  21  24
ENDBRANCH  20  21
ENDBRANCH  10  20
TORSDOF 6
