REMARK  Name = ZINC21127063
REMARK  9 active torsions:
REMARK  status: ('A' for Active; 'I' for Inactive)
REMARK    1  A    between atoms: C_1  and  C_2
REMARK    2  A    between atoms: C_5  and  C_8
REMARK    3  A    between atoms: C_10  and  C_13
REMARK    4  A    between atoms: C_13  and  S_14
REMARK    5  A    between atoms: S_14  and  C_15
REMARK    6  A    between atoms: C_18  and  C_21
REMARK    7  A    between atoms: N_19  and  N_20
REMARK    8  A    between atoms: C_24  and  O_27
REMARK    9  A    between atoms: O_27  and  C_28
REMARK                            x       y       z     vdW  Elec       q    Type
REMARK                         _______ _______ _______ _____ _____    ______ ____
ROOT
ATOM      1  C   UNL     1      -0.570  -2.106  -0.165  0.00  0.00    +0.209 A 
ATOM      2  N   UNL     1       0.698  -2.008   0.164  0.00  0.00    -0.121 NA
ATOM      3  N   UNL     1       1.035  -0.772   0.262  0.00  0.00    -0.127 NA
ATOM      4  C   UNL     1       0.002  -0.004   0.002  0.00  0.00    +0.182 A 
ATOM      5  N   UNL     1      -1.060  -0.835  -0.273  0.00  0.00    -0.224 N 
ENDROOT
BRANCH   4   6
ATOM      6  C   UNL     1      -0.018   1.474   0.010  0.00  0.00    +0.021 A 
ATOM      7  C   UNL     1      -1.235   2.157   0.020  0.00  0.00    +0.015 A 
ATOM      8  C   UNL     1      -1.250   3.536   0.033  0.00  0.00    +0.046 A 
ATOM      9  C   UNL     1      -0.056   4.245   0.025  0.00  0.00    +0.127 A 
ATOM     10  C   UNL     1       1.157   3.568   0.010  0.00  0.00    +0.046 A 
ATOM     11  C   UNL     1       1.180   2.190   0.003  0.00  0.00    +0.015 A 
BRANCH   9  12
ATOM     12  O   UNL     1      -0.074   5.603   0.033  0.00  0.00    -0.434 OA
BRANCH  12  13
ATOM     13  C   UNL     1      -1.356   6.234   0.048  0.00  0.00    +0.541 C 
ATOM     14  F   UNL     1      -2.077   5.855  -1.089  0.00  0.00    -0.166 F 
ATOM     15  F   UNL     1      -2.054   5.843   1.195  0.00  0.00    -0.166 F 
ENDBRANCH  12  13
ENDBRANCH   9  12
ENDBRANCH   4   6
BRANCH   5  16
ATOM     16  N   UNL     1      -2.336  -0.466  -0.592  0.00  0.00    -0.295 N 
ATOM     17  H   UNL     1      -2.602   0.600  -0.646  0.00  0.00    +0.163 HD
ATOM     18  H   UNL     1      -3.096  -1.234  -0.793  0.00  0.00    +0.163 HD
ENDBRANCH   5  16
BRANCH   1  19
ATOM     19  S   UNL     1      -1.474  -3.598  -0.411  0.00  0.00    -0.078 S 
BRANCH  19  20
ATOM     20  C   UNL     1      -0.172  -4.812  -0.086  0.00  0.00    +0.133 C 
BRANCH  20  23
ATOM     21  C   UNL     1      -1.756  -8.042   0.679  0.00  0.00    +0.109 A 
ATOM     22  N   UNL     1      -1.253  -6.821   0.790  0.00  0.00    -0.243 NA
ATOM     23  C   UNL     1      -0.731  -6.203  -0.242  0.00  0.00    +0.059 A 
ATOM     24  C   UNL     1      -0.689  -6.821  -1.452  0.00  0.00    +0.071 A 
ATOM     25  S   UNL     1      -1.463  -8.383  -1.052  0.00  0.00    -0.075 S 
BRANCH  21  30
ATOM     26  C   UNL     1      -4.207 -11.362   4.690  0.00  0.00    +0.044 C 
ATOM     27  C   UNL     1      -3.566 -10.493   3.640  0.00  0.00    -0.050 A 
ATOM     28  C   UNL     1      -3.436 -10.960   2.344  0.00  0.00    +0.004 A 
ATOM     29  C   UNL     1      -2.850 -10.169   1.378  0.00  0.00    +0.011 A 
ATOM     30  C   UNL     1      -2.386  -8.896   1.710  0.00  0.00    +0.007 A 
ATOM     31  C   UNL     1      -2.514  -8.433   3.020  0.00  0.00    +0.011 A 
ATOM     32  C   UNL     1      -3.108  -9.231   3.976  0.00  0.00    +0.004 A 
ENDBRANCH  21  30
ENDBRANCH  20  23
ENDBRANCH  19  20
ENDBRANCH   1  19
TORSDOF 8
