REMARK  Name = ZINC21365456
REMARK  11 active torsions:
REMARK  status: ('A' for Active; 'I' for Inactive)
REMARK    1  A    between atoms: C_1  and  C_2
REMARK    2  A    between atoms: C_8  and  N_10
REMARK    3  A    between atoms: C_11  and  C_13
REMARK    4  A    between atoms: C_13  and  C_15
REMARK    5  A    between atoms: C_13  and  O_16
REMARK    6  A    between atoms: O_16  and  C_17
REMARK    7  A    between atoms: C_17  and  C_19
REMARK    8  A    between atoms: C_21  and  S_26
REMARK    9  A    between atoms: S_26  and  N_29
REMARK   10  A    between atoms: N_29  and  C_30
REMARK   11  A    between atoms: N_29  and  C_31
REMARK                            x       y       z     vdW  Elec       q    Type
REMARK                         _______ _______ _______ _____ _____    ______ ____
ROOT
ATOM      1  C   UNL     1       6.080   0.405   3.808  0.00  0.00    +0.341 C 
ATOM      2  O   UNL     1       6.762   0.301   2.808  0.00  0.00    -0.245 OA
ENDROOT
BRANCH   1   3
ATOM      3  C   UNL     1       6.708   0.331   5.142  0.00  0.00    +0.079 A 
ATOM      4  C   UNL     1       5.926   0.445   6.293  0.00  0.00    +0.045 A 
ATOM      5  C   UNL     1       6.519   0.375   7.536  0.00  0.00    +0.106 A 
ATOM      6  C   UNL     1       7.887   0.193   7.645  0.00  0.00    +0.030 A 
ATOM      7  C   UNL     1       8.669   0.079   6.510  0.00  0.00    +0.023 A 
ATOM      8  C   UNL     1       8.088   0.141   5.258  0.00  0.00    +0.055 A 
ATOM      9 CL   UNL     1       9.069  -0.009   3.834  0.00  0.00    -0.083 Cl
BRANCH   5  10
ATOM     10  S   UNL     1       5.533   0.519   8.989  0.00  0.00    +0.060 S 
ATOM     11  O   UNL     1       6.398   0.967  10.024  0.00  0.00    -0.153 OA
ATOM     12  O   UNL     1       4.361   1.229   8.616  0.00  0.00    -0.153 OA
BRANCH  10  13
ATOM     13  N   UNL     1       5.049  -1.009   9.406  0.00  0.00    -0.183 NA
ATOM     14  C   UNL     1       5.873  -1.819  10.307  0.00  0.00    +0.131 C 
ATOM     15  C   UNL     1       3.797  -1.551   8.873  0.00  0.00    +0.131 C 
ENDBRANCH  10  13
ENDBRANCH   5  10
ENDBRANCH   1   3
BRANCH   1  16
ATOM     16  O   UNL     1       4.749   0.588   3.699  0.00  0.00    -0.449 OA
BRANCH  16  17
ATOM     17  C   UNL     1       4.209   0.649   2.377  0.00  0.00    +0.259 C 
ATOM     18  C   UNL     1       4.213   2.100   1.892  0.00  0.00    +0.062 C 
BRANCH  17  20
ATOM     19  N   UNL     1       2.116  -0.004   1.231  0.00  0.00    -0.309 N 
ATOM     20  C   UNL     1       2.795   0.128   2.388  0.00  0.00    +0.254 C 
ATOM     21  O   UNL     1       2.268  -0.174   3.438  0.00  0.00    -0.272 OA
ATOM     22  H   UNL     1       2.538   0.237   0.392  0.00  0.00    +0.149 HD
BRANCH  19  29
ATOM     23  C   UNL     1      -0.019   1.526   0.010  0.00  0.00    +0.009 C 
ATOM     24  C   UNL     1       0.002  -0.004   0.002  0.00  0.00    +0.006 C 
ATOM     25  C   UNL     1       0.718  -0.497  -1.257  0.00  0.00    +0.005 C 
ATOM     26  C   UNL     1       0.739  -2.027  -1.265  0.00  0.00    +0.000 C 
ATOM     27  C   UNL     1       1.479  -2.534  -0.026  0.00  0.00    +0.002 C 
ATOM     28  C   UNL     1       0.763  -2.041   1.233  0.00  0.00    +0.022 C 
ATOM     29  C   UNL     1       0.742  -0.511   1.242  0.00  0.00    +0.076 C 
ENDBRANCH  19  29
ENDBRANCH  17  20
ENDBRANCH  16  17
ENDBRANCH   1  16
TORSDOF 7
