REMARK  Name = ZINC21808413
REMARK  4 active torsions:
REMARK  status: ('A' for Active; 'I' for Inactive)
REMARK    1  A    between atoms: C_1  and  C_2
REMARK    2  A    between atoms: C_2  and  C_20
REMARK    3  A    between atoms: N_14  and  C_15
REMARK    4  A    between atoms: N_22  and  C_23
REMARK                            x       y       z     vdW  Elec       q    Type
REMARK                         _______ _______ _______ _____ _____    ______ ____
ROOT
ATOM      1  C   UNL     1      -3.364   1.779  -0.779  0.00  0.00    +0.043 C 
ATOM      2  C   UNL     1      -2.363   0.843  -0.100  0.00  0.00    +0.129 C 
ATOM      3  C   UNL     1      -2.770   0.662   1.363  0.00  0.00    +0.157 C 
ATOM      4  N   UNL     1      -2.015  -0.454   1.936  0.00  0.00    -0.333 N 
ATOM      5  C   UNL     1      -1.627  -0.657   3.248  0.00  0.00    +0.057 A 
ATOM      6  C   UNL     1      -1.722  -0.013   4.490  0.00  0.00    +0.034 A 
ATOM      7  C   UNL     1      -1.183  -0.578   5.591  0.00  0.00    +0.048 A 
ATOM      8  S   UNL     1      -0.485  -2.091   4.952  0.00  0.00    -0.095 S 
ATOM      9  C   UNL     1      -0.949  -1.886   3.252  0.00  0.00    +0.038 A 
ATOM     10  C   UNL     1      -0.926  -2.409   1.964  0.00  0.00    +0.048 A 
ATOM     11  C   UNL     1      -1.577  -1.521   1.159  0.00  0.00    +0.106 A 
ATOM     12  C   UNL     1      -1.833  -1.553  -0.286  0.00  0.00    +0.264 C 
ATOM     13  O   UNL     1      -1.612  -2.545  -0.956  0.00  0.00    -0.268 OA
ATOM     14  N   UNL     1      -2.328  -0.418  -0.833  0.00  0.00    -0.278 N 
ENDROOT
BRANCH  14  15
ATOM     15  C   UNL     1      -2.845  -0.456  -2.203  0.00  0.00    +0.078 C 
ATOM     16  C   UNL     1      -3.956  -1.521  -2.318  0.00  0.00    +0.022 C 
ATOM     17  C   UNL     1      -3.743  -2.139  -3.724  0.00  0.00    +0.002 C 
ATOM     18  C   UNL     1      -2.200  -2.182  -3.849  0.00  0.00    +0.002 C 
ATOM     19  C   UNL     1      -1.730  -0.876  -3.176  0.00  0.00    +0.022 C 
ENDBRANCH  14  15
BRANCH   2  20
ATOM     20  C   UNL     1      -0.996   1.473  -0.150  0.00  0.00    +0.238 C 
ATOM     21  O   UNL     1      -0.886   2.675  -0.267  0.00  0.00    -0.273 OA
ATOM     22  N   UNL     1       0.106   0.701  -0.066  0.00  0.00    -0.311 N 
ATOM     23  H   UNL     1       0.007  -0.389   0.044  0.00  0.00    +0.149 HD
BRANCH  22  24
ATOM     24  C   UNL     1       1.435   1.314  -0.121  0.00  0.00    +0.073 C 
ATOM     25  C   UNL     1       1.850   1.502  -1.582  0.00  0.00    +0.022 C 
ATOM     26  C   UNL     1       3.239   2.141  -1.639  0.00  0.00    +0.002 C 
ATOM     27  C   UNL     1       4.249   1.233  -0.935  0.00  0.00    +0.000 C 
ATOM     28  C   UNL     1       3.834   1.045   0.526  0.00  0.00    +0.002 C 
ATOM     29  C   UNL     1       2.445   0.406   0.583  0.00  0.00    +0.022 C 
ENDBRANCH  22  24
ENDBRANCH   2  20
TORSDOF 3
