REMARK  Name = ZINC59844215
REMARK  11 active torsions:
REMARK  status: ('A' for Active; 'I' for Inactive)
REMARK    1  A    between atoms: C_1  and  C_2
REMARK    2  A    between atoms: C_2  and  C_3
REMARK    3  A    between atoms: C_3  and  C_5
REMARK    4  A    between atoms: C_3  and  S_6
REMARK    5  A    between atoms: S_6  and  C_7
REMARK    6  A    between atoms: C_13  and  C_15
REMARK    7  A    between atoms: C_15  and  S_16
REMARK    8  A    between atoms: S_16  and  C_17
REMARK    9  A    between atoms: N_22  and  N_23
REMARK   10  A    between atoms: C_24  and  C_25
REMARK   11  A    between atoms: C_30  and  N_31
REMARK                            x       y       z     vdW  Elec       q    Type
REMARK                         _______ _______ _______ _____ _____    ______ ____
ROOT
ATOM      1  C   UNL     1       5.827  -3.130 -11.038  0.00  0.00    +0.211 A 
ATOM      2  N   UNL     1       5.592  -3.735 -12.207  0.00  0.00    -0.186 NA
ATOM      3  C   UNL     1       6.699  -3.771 -12.918  0.00  0.00    +0.232 A 
ATOM      4  N   UNL     1       7.676  -3.179 -12.199  0.00  0.00    -0.245 N 
ATOM      5  N   UNL     1       7.088  -2.768 -10.992  0.00  0.00    -0.144 NA
ATOM      6  N   UNL     1       6.837  -4.320 -14.180  0.00  0.00    -0.205 N 
ATOM      7  H   UNL     1       7.698  -4.299 -14.626  0.00  0.00    +0.177 HD
ATOM      8  H   UNL     1       8.601  -3.057 -12.465  0.00  0.00    +0.192 HD
ENDROOT
BRANCH   6   9
ATOM      9  N   UNL     1       5.734  -4.906 -14.814  0.00  0.00    -0.187 NA
ATOM     10  C   UNL     1       5.864  -5.421 -15.998  0.00  0.00    +0.140 C 
BRANCH  10  11
ATOM     11  C   UNL     1       4.702  -6.038 -16.665  0.00  0.00    +0.025 A 
ATOM     12  C   UNL     1       3.493  -6.179 -15.980  0.00  0.00    +0.012 A 
ATOM     13  C   UNL     1       2.410  -6.757 -16.610  0.00  0.00    +0.001 A 
ATOM     14  C   UNL     1       2.521  -7.196 -17.918  0.00  0.00    +0.002 A 
ATOM     15  C   UNL     1       3.715  -7.059 -18.603  0.00  0.00    +0.033 A 
ATOM     16  C   UNL     1       4.804  -6.478 -17.987  0.00  0.00    +0.135 A 
BRANCH  16  17
ATOM     17  N   UNL     1       6.080  -6.327 -18.723  0.00  0.00    +0.057 N 
ATOM     18  O   UNL     1       6.137  -6.607 -19.898  0.00  0.00    -0.126 OA
ATOM     19  O   UNL     1       7.065  -5.924 -18.150  0.00  0.00    -0.126 OA
ENDBRANCH  16  17
ENDBRANCH  10  11
ENDBRANCH   6   9
BRANCH   1  20
ATOM     20  S   UNL     1       4.637  -2.857  -9.768  0.00  0.00    -0.075 S 
BRANCH  20  21
ATOM     21  C   UNL     1       5.569  -1.998  -8.470  0.00  0.00    +0.173 C 
BRANCH  21  28
ATOM     22  C   UNL     1       2.974  -0.107  -2.936  0.00  0.00    +0.160 A 
ATOM     23  N   UNL     1       2.380  -0.737  -3.939  0.00  0.00    -0.133 NA
ATOM     24  N   UNL     1       3.004  -1.059  -4.987  0.00  0.00    -0.125 NA
ATOM     25  C   UNL     1       4.289  -0.788  -5.149  0.00  0.00    +0.189 A 
ATOM     26  S   UNL     1       4.631   0.039  -3.598  0.00  0.00    -0.024 S 
ATOM     27  N   UNL     1       5.133  -1.063  -6.222  0.00  0.00    -0.263 N 
ATOM     28  C   UNL     1       4.655  -1.700  -7.309  0.00  0.00    +0.229 C 
ATOM     29  O   UNL     1       3.490  -2.035  -7.353  0.00  0.00    -0.275 OA
ATOM     30  H   UNL     1       6.065  -0.795  -6.187  0.00  0.00    +0.157 HD
BRANCH  22  31
ATOM     31  S   UNL     1       2.318   0.438  -1.393  0.00  0.00    -0.094 S 
BRANCH  31  32
ATOM     32  C   UNL     1       0.578  -0.071  -1.452  0.00  0.00    +0.050 C 
ATOM     33  C   UNL     1       0.494  -1.599  -1.483  0.00  0.00    +0.019 C 
BRANCH  32  35
ATOM     34  C   UNL     1      -0.174   1.984  -0.246  0.00  0.00    +0.005 C 
ATOM     35  C   UNL     1      -0.149   0.454  -0.213  0.00  0.00    +0.011 C 
ENDBRANCH  32  35
ENDBRANCH  31  32
ENDBRANCH  22  31
ENDBRANCH  21  28
ENDBRANCH  20  21
ENDBRANCH   1  20
TORSDOF 9
