REMARK  Name = ZINC06405526
REMARK  10 active torsions:
REMARK  status: ('A' for Active; 'I' for Inactive)
REMARK    1  A    between atoms: C_1  and  C_2
REMARK    2  A    between atoms: C_5  and  C_39
REMARK    3  A    between atoms: C_9  and  C_14
REMARK    4  A    between atoms: C_14  and  C_16
REMARK    5  A    between atoms: C_14  and  N_71
REMARK    6  A    between atoms: N_20  and  C_21
REMARK    7  A    between atoms: C_26  and  C_27
REMARK    8  A    between atoms: C_26  and  N_71
REMARK    9  A    between atoms: C_32  and  C_33
REMARK   10  A    between atoms: C_32  and  N_71
REMARK                            x       y       z     vdW  Elec       q    Type
REMARK                         _______ _______ _______ _____ _____    ______ ____
ROOT
ATOM      1  C   UNL     1       1.878   3.962   0.377  0.00  0.00    +0.039 C 
ENDROOT
BRANCH   1  10
ATOM      2  C   UNL     1      -3.256   3.650  -0.434  0.00  0.00    +0.044 C 
ATOM      3  C   UNL     1      -2.673   2.293  -0.732  0.00  0.00    -0.041 A 
ATOM      4  C   UNL     1      -3.485   1.270  -1.133  0.00  0.00    +0.004 A 
ATOM      5  C   UNL     1      -2.958   0.016  -1.408  0.00  0.00    +0.005 A 
ATOM      6  C   UNL     1      -1.606  -0.222  -1.283  0.00  0.00    -0.026 A 
ATOM      7  C   UNL     1      -0.759   0.804  -0.877  0.00  0.00    +0.052 A 
ATOM      8  C   UNL     1      -1.298   2.075  -0.598  0.00  0.00    +0.002 A 
ATOM      9  C   UNL     1      -0.399   3.148  -0.172  0.00  0.00    +0.018 A 
ATOM     10  C   UNL     1       0.925   2.879  -0.060  0.00  0.00    +0.011 A 
ATOM     11  C   UNL     1       1.415   1.587  -0.353  0.00  0.00    +0.251 A 
ATOM     12  O   UNL     1       2.609   1.367  -0.246  0.00  0.00    -0.268 OA
ATOM     13  N   UNL     1       0.597   0.595  -0.745  0.00  0.00    -0.322 N 
ATOM     14  H   UNL     1       0.967  -0.281  -0.938  0.00  0.00    +0.169 HD
ATOM     15  C   UNL     1      -1.047  -1.588  -1.586  0.00  0.00    +0.046 C 
ENDBRANCH   1  10
BRANCH   1  16
ATOM     16  C   UNL     1       3.003   4.073  -0.620  0.00  0.00    +0.143 A 
ATOM     17  N   UNL     1       4.110   3.372  -0.632  0.00  0.00    -0.115 NA
ATOM     18  N   UNL     1       4.815   3.758  -1.639  0.00  0.00    -0.023 NA
ATOM     19  N   UNL     1       4.190   4.693  -2.265  0.00  0.00    -0.044 NA
ATOM     20  N   UNL     1       3.068   4.916  -1.667  0.00  0.00    -0.227 N 
BRANCH  20  21
ATOM     21  C   UNL     1       2.057   5.902  -2.055  0.00  0.00    +0.111 C 
ATOM     22  C   UNL     1       1.477   5.547  -3.440  0.00  0.00    +0.027 C 
ATOM     23  C   UNL     1       1.259   6.920  -4.123  0.00  0.00    +0.002 C 
ATOM     24  C   UNL     1       2.490   7.734  -3.654  0.00  0.00    +0.002 C 
ATOM     25  C   UNL     1       2.701   7.293  -2.191  0.00  0.00    +0.027 C 
ENDBRANCH  20  21
ENDBRANCH   1  16
BRANCH   1  26
ATOM     26  N   UNL     1       2.447   3.608   1.694  0.00  0.00    +0.396 N 
ATOM     27  H   UNL     1       3.190   2.913   1.561  0.00  0.00    -0.080 HD
BRANCH  26  28
ATOM     28  C   UNL     1       1.397   3.029   2.559  0.00  0.00    -0.002 C 
BRANCH  28  29
ATOM     29  C   UNL     1       1.392   1.534   2.371  0.00  0.00    +0.089 A 
ATOM     30  C   UNL     1       2.383   0.694   2.721  0.00  0.00    +0.042 A 
ATOM     31  C   UNL     1       1.961  -0.608   2.366  0.00  0.00    +0.041 A 
ATOM     32  C   UNL     1       0.738  -0.485   1.820  0.00  0.00    +0.195 A 
ATOM     33  O   UNL     1       0.396   0.813   1.831  0.00  0.00    -0.470 OA
ENDBRANCH  28  29
ENDBRANCH  26  28
BRANCH  26  34
ATOM     34  C   UNL     1       3.022   4.810   2.335  0.00  0.00    -0.045 C 
BRANCH  34  35
ATOM     35  C   UNL     1       4.394   5.085   1.716  0.00  0.00    +0.102 C 
ATOM     36  C   UNL     1       5.173   6.110   2.568  0.00  0.00    +0.032 C 
ATOM     37  C   UNL     1       5.926   6.970   1.528  0.00  0.00    +0.030 C 
ATOM     38  C   UNL     1       5.512   6.361   0.169  0.00  0.00    +0.160 C 
ATOM     39  O   UNL     1       4.246   5.715   0.425  0.00  0.00    -0.378 OA
ENDBRANCH  34  35
ENDBRANCH  26  34
ENDBRANCH   1  26
TORSDOF 8
