REMARK  Name = ZINC45555279
REMARK  10 active torsions:
REMARK  status: ('A' for Active; 'I' for Inactive)
REMARK    1  A    between atoms: C_1  and  C_2
REMARK    2  A    between atoms: C_2  and  C_4
REMARK    3  A    between atoms: C_2  and  O_16
REMARK    4  A    between atoms: C_4  and  C_6
REMARK    5  A    between atoms: C_9  and  C_11
REMARK    6  A    between atoms: C_11  and  N_12
REMARK    7  A    between atoms: C_13  and  C_15
REMARK    8  A    between atoms: O_16  and  C_17
REMARK    9  A    between atoms: C_17  and  C_19
REMARK   10  A    between atoms: C_25  and  C_27
REMARK                            x       y       z     vdW  Elec       q    Type
REMARK                         _______ _______ _______ _____ _____    ______ ____
ROOT
ATOM      1  C   UNL     1      -0.685  -0.960  -2.173  0.00  0.00    +0.312 C 
ATOM      2  O   UNL     1      -1.862  -0.802  -2.394  0.00  0.00    -0.250 OA
ENDROOT
BRANCH   1   3
ATOM      3  C   UNL     1       0.261  -1.261  -3.307  0.00  0.00    +0.110 C 
ATOM      4  C   UNL     1       1.326  -0.165  -3.387  0.00  0.00    +0.015 C 
ATOM      5  C   UNL     1       2.286  -0.470  -4.539  0.00  0.00    +0.001 C 
ATOM      6  C   UNL     1       1.505  -0.520  -5.854  0.00  0.00    +0.001 C 
ATOM      7  C   UNL     1       0.440  -1.615  -5.774  0.00  0.00    +0.013 C 
ATOM      8  C   UNL     1      -0.520  -1.310  -4.622  0.00  0.00    +0.089 C 
BRANCH   8   9
ATOM      9  C   UNL     1      -1.185   0.021  -4.862  0.00  0.00    +0.224 C 
ATOM     10  O   UNL     1      -0.899   0.975  -4.170  0.00  0.00    -0.275 OA
ATOM     11  N   UNL     1      -2.097   0.150  -5.845  0.00  0.00    -0.271 N 
ATOM     12  C   UNL     1      -2.608  -0.949  -6.668  0.00  0.00    +0.118 C 
ATOM     13  C   UNL     1      -3.613  -0.298  -7.633  0.00  0.00    +0.056 C 
ATOM     14  C   UNL     1      -3.592   1.169  -7.270  0.00  0.00    -0.024 A 
ATOM     15  C   UNL     1      -2.699   1.354  -6.226  0.00  0.00    +0.039 A 
ATOM     16  C   UNL     1      -2.514   2.638  -5.712  0.00  0.00    +0.024 A 
ATOM     17  C   UNL     1      -3.213   3.704  -6.236  0.00  0.00    +0.002 A 
ATOM     18  C   UNL     1      -4.105   3.510  -7.274  0.00  0.00    +0.000 A 
ATOM     19  C   UNL     1      -4.288   2.241  -7.794  0.00  0.00    +0.005 A 
ENDBRANCH   8   9
ENDBRANCH   1   3
BRANCH   1  20
ATOM     20  O   UNL     1      -0.219  -0.869  -0.917  0.00  0.00    -0.453 OA
BRANCH  20  22
ATOM     21  C   UNL     1      -1.286   0.934   0.288  0.00  0.00    +0.061 C 
ATOM     22  C   UNL     1      -1.171  -0.581   0.108  0.00  0.00    +0.244 C 
BRANCH  22  23
ATOM     23  C   UNL     1      -0.720  -1.208   1.403  0.00  0.00    +0.210 C 
ATOM     24  O   UNL     1       0.445  -1.516   1.554  0.00  0.00    -0.288 OA
BRANCH  23  25
ATOM     25  C   UNL     1      -1.652  -1.437   2.439  0.00  0.00    +0.059 A 
ATOM     26  C   UNL     1      -1.444  -1.991   3.699  0.00  0.00    +0.019 A 
ATOM     27  C   UNL     1      -2.556  -2.086   4.497  0.00  0.00    +0.013 A 
ATOM     28  C   UNL     1      -3.750  -1.647   4.021  0.00  0.00    +0.008 A 
ATOM     29  S   UNL     1      -3.399  -1.084   2.478  0.00  0.00    -0.089 S 
BRANCH  28  30
ATOM     30  C   UNL     1      -5.085  -1.657   4.721  0.00  0.00    +0.146 C 
BRANCH  30  31
ATOM     31  N   UNL     1      -5.258  -0.403   5.459  0.00  0.00    -0.311 N 
ATOM     32  C   UNL     1      -6.386  -0.188   6.166  0.00  0.00    +0.210 C 
ATOM     33  O   UNL     1      -7.256  -1.032   6.191  0.00  0.00    -0.276 OA
ATOM     34  C   UNL     1      -6.564   1.102   6.925  0.00  0.00    +0.109 C 
ATOM     35  H   UNL     1      -4.562   0.272   5.439  0.00  0.00    +0.149 HD
ENDBRANCH  30  31
ENDBRANCH  28  30
ENDBRANCH  23  25
ENDBRANCH  22  23
ENDBRANCH  20  22
ENDBRANCH   1  20
TORSDOF 8
