REMARK  Name = ZINC45725059
REMARK  6 active torsions:
REMARK  status: ('A' for Active; 'I' for Inactive)
REMARK    1  A    between atoms: C_1  and  C_2
REMARK    2  A    between atoms: C_2  and  C_4
REMARK    3  A    between atoms: C_2  and  N_14
REMARK    4  A    between atoms: N_17  and  C_18
REMARK    5  A    between atoms: C_23  and  C_24
REMARK    6  A    between atoms: C_24  and  C_25
REMARK                            x       y       z     vdW  Elec       q    Type
REMARK                         _______ _______ _______ _____ _____    ______ ____
ROOT
ATOM      1  N   UNL     1       0.715  -0.474   1.193  0.00  0.00    -0.293 N 
ATOM      2  C   UNL     1       0.052  -0.630   2.356  0.00  0.00    +0.304 C 
ATOM      3  O   UNL     1      -1.132  -0.364   2.421  0.00  0.00    -0.252 OA
ATOM      4  N   UNL     1       0.703  -1.080   3.447  0.00  0.00    -0.269 N 
ATOM      5  H   UNL     1       1.660  -0.686   1.141  0.00  0.00    +0.151 HD
ATOM      6  H   UNL     1       1.626  -1.369   3.377  0.00  0.00    +0.156 HD
ENDROOT
BRANCH   4   7
ATOM      7  C   UNL     1       0.047  -1.130   4.682  0.00  0.00    +0.038 A 
ATOM      8  C   UNL     1      -1.029  -0.288   4.934  0.00  0.00    +0.023 A 
ATOM      9  C   UNL     1      -1.675  -0.341   6.153  0.00  0.00    +0.002 A 
ATOM     10  C   UNL     1      -1.252  -1.231   7.124  0.00  0.00    +0.000 A 
ATOM     11  C   UNL     1      -0.181  -2.070   6.877  0.00  0.00    +0.006 A 
ATOM     12  C   UNL     1       0.466  -2.026   5.657  0.00  0.00    -0.017 A 
BRANCH  12  13
ATOM     13  C   UNL     1       1.628  -2.946   5.386  0.00  0.00    +0.132 C 
BRANCH  13  14
ATOM     14  C   UNL     1       2.918  -2.230   5.696  0.00  0.00    +0.215 C 
ATOM     15  O   UNL     1       2.895  -1.086   6.097  0.00  0.00    -0.276 OA
ATOM     16  N   UNL     1       4.096  -2.861   5.527  0.00  0.00    -0.329 N 
ATOM     17  H   UNL     1       4.115  -3.776   5.206  0.00  0.00    +0.145 HD
ATOM     18  H   UNL     1       4.926  -2.400   5.726  0.00  0.00    +0.145 HD
ENDBRANCH  13  14
ENDBRANCH  12  13
ENDBRANCH   4   7
BRANCH   1  20
ATOM     19  C   UNL     1      -0.022   1.545   0.026  0.00  0.00    +0.033 C 
ATOM     20  C   UNL     1       0.008   0.015   0.007  0.00  0.00    +0.102 C 
BRANCH  20  21
ATOM     21  C   UNL     1       0.720  -0.458  -1.234  0.00  0.00    -0.027 A 
ATOM     22  C   UNL     1       2.102  -0.471  -1.278  0.00  0.00    +0.006 A 
ATOM     23  C   UNL     1       2.747  -0.903  -2.418  0.00  0.00    +0.004 A 
ATOM     24  C   UNL     1       2.019  -1.326  -3.523  0.00  0.00    -0.044 A 
ATOM     25  C   UNL     1       0.644  -1.318  -3.477  0.00  0.00    -0.044 A 
ATOM     26  C   UNL     1      -0.004  -0.885  -2.327  0.00  0.00    +0.009 A 
ATOM     27  C   UNL     1      -0.208  -1.778  -4.631  0.00  0.00    +0.035 C 
ATOM     28  C   UNL     1       0.607  -1.809  -5.922  0.00  0.00    +0.005 C 
ATOM     29  C   UNL     1       1.894  -2.601  -5.663  0.00  0.00    +0.005 C 
ATOM     30  C   UNL     1       2.788  -1.778  -4.737  0.00  0.00    +0.035 C 
ENDBRANCH  20  21
ENDBRANCH   1  20
TORSDOF 5
