REMARK  Name = ZINC39325251
REMARK  8 active torsions:
REMARK  status: ('A' for Active; 'I' for Inactive)
REMARK    1  A    between atoms: C_1  and  O_2
REMARK    2  A    between atoms: O_2  and  C_3
REMARK    3  A    between atoms: C_10  and  C_15
REMARK    4  A    between atoms: C_15  and  N_16
REMARK    5  A    between atoms: N_16  and  C_17
REMARK    6  A    between atoms: N_16  and  S_27
REMARK    7  A    between atoms: C_17  and  C_18
REMARK    8  A    between atoms: S_27  and  C_30
REMARK                            x       y       z     vdW  Elec       q    Type
REMARK                         _______ _______ _______ _____ _____    ______ ____
ROOT
ATOM      1  N   UNL     1      -5.269  -6.451  -1.031  0.00  0.00    -0.171 NA
ENDROOT
BRANCH   1   2
ATOM      2  S   UNL     1      -5.043  -7.893  -0.249  0.00  0.00    +0.061 S 
ATOM      3  O   UNL     1      -6.031  -8.784  -0.747  0.00  0.00    -0.153 OA
ATOM      4  O   UNL     1      -3.653  -8.180  -0.319  0.00  0.00    -0.153 OA
BRANCH   2   5
ATOM      5  C   UNL     1      -5.416  -7.626   1.453  0.00  0.00    +0.106 A 
ATOM      6  C   UNL     1      -4.421  -7.226   2.324  0.00  0.00    +0.030 A 
ATOM      7  C   UNL     1      -4.713  -7.016   3.659  0.00  0.00    +0.022 A 
ATOM      8  C   UNL     1      -6.002  -7.207   4.122  0.00  0.00    +0.041 A 
ATOM      9  C   UNL     1      -6.998  -7.608   3.250  0.00  0.00    +0.022 A 
ATOM     10  C   UNL     1      -6.706  -7.812   1.914  0.00  0.00    +0.030 A 
ATOM     11 CL   UNL     1      -6.370  -6.945   5.799  0.00  0.00    -0.084 Cl
ENDBRANCH   2   5
ENDBRANCH   1   2
BRANCH   1  12
ATOM     12  C   UNL     1      -4.128  -5.565  -1.278  0.00  0.00    +0.126 C 
BRANCH  12  20
ATOM     13  C   UNL     1      -1.242  -0.594  -0.259  0.00  0.00    +0.121 A 
ATOM     14  C   UNL     1      -2.434   0.110  -0.051  0.00  0.00    +0.047 A 
ATOM     15  C   UNL     1      -3.632  -0.510   0.104  0.00  0.00    +0.027 A 
ATOM     16  C   UNL     1      -3.722  -1.914   0.060  0.00  0.00    +0.041 A 
ATOM     17  N   UNL     1      -4.905  -2.510   0.214  0.00  0.00    -0.284 N 
ATOM     18  C   UNL     1      -5.062  -3.822   0.184  0.00  0.00    +0.225 C 
ATOM     19  O   UNL     1      -6.168  -4.308   0.330  0.00  0.00    -0.275 OA
ATOM     20  C   UNL     1      -3.862  -4.716  -0.033  0.00  0.00    +0.114 C 
ATOM     21  C   UNL     1      -2.514  -4.044  -0.208  0.00  0.00    -0.003 C 
ATOM     22  C   UNL     1      -2.484  -2.682  -0.158  0.00  0.00    -0.004 A 
ATOM     23  C   UNL     1      -1.226  -1.954  -0.323  0.00  0.00    +0.055 A 
ATOM     24  H   UNL     1      -5.687  -1.954   0.354  0.00  0.00    +0.155 HD
BRANCH  13  26
ATOM     25  C   UNL     1      -0.153   1.519  -0.330  0.00  0.00    +0.277 C 
ATOM     26  O   UNL     1      -0.078   0.094  -0.406  0.00  0.00    -0.495 OA
ENDBRANCH  13  26
ENDBRANCH  12  20
ENDBRANCH   1  12
BRANCH   1  27
ATOM     27  C   UNL     1      -6.609  -6.061  -1.476  0.00  0.00    +0.144 C 
BRANCH  27  28
ATOM     28  C   UNL     1      -6.808  -6.492  -2.907  0.00  0.00    -0.028 A 
ATOM     29  C   UNL     1      -6.462  -5.639  -3.939  0.00  0.00    +0.009 A 
ATOM     30  C   UNL     1      -6.643  -6.030  -5.252  0.00  0.00    +0.050 A 
ATOM     31  C   UNL     1      -7.171  -7.279  -5.537  0.00  0.00    +0.166 A 
ATOM     32  C   UNL     1      -7.520  -8.138  -4.498  0.00  0.00    +0.167 A 
ATOM     33  C   UNL     1      -7.330  -7.741  -3.184  0.00  0.00    +0.054 A 
ATOM     34  O   UNL     1      -8.012  -9.293  -5.033  0.00  0.00    -0.453 OA
ATOM     35  C   UNL     1      -8.342  -8.975  -6.398  0.00  0.00    +0.466 C 
ATOM     36  O   UNL     1      -7.446  -7.896  -6.724  0.00  0.00    -0.453 OA
ENDBRANCH  27  28
ENDBRANCH   1  27
TORSDOF 7
