REMARK  Name = ZINC38711839
REMARK  4 active torsions:
REMARK  status: ('A' for Active; 'I' for Inactive)
REMARK    1  A    between atoms: C_3  and  N_11
REMARK    2  A    between atoms: C_6  and  N_7
REMARK    3  A    between atoms: C_12  and  C_14
REMARK    4  A    between atoms: C_20  and  C_22
REMARK                            x       y       z     vdW  Elec       q    Type
REMARK                         _______ _______ _______ _____ _____    ______ ____
ROOT
ATOM      1  N   UNL     1       3.015   3.135  -1.181  0.00  0.00    -0.284 N 
ATOM      2  C   UNL     1       3.547   3.559  -0.017  0.00  0.00    +0.221 C 
ATOM      3  O   UNL     1       3.042   3.230   1.036  0.00  0.00    -0.275 OA
ATOM      4  H   UNL     1       3.455   3.344  -2.019  0.00  0.00    +0.155 HD
ENDROOT
BRANCH   1   7
ATOM      5  C   UNL     1       0.393   0.773  -0.146  0.00  0.00    +0.034 A 
ATOM      6  C   UNL     1       1.566   1.504  -0.146  0.00  0.00    +0.026 A 
ATOM      7  C   UNL     1       1.829   2.393  -1.179  0.00  0.00    +0.048 A 
ATOM      8  C   UNL     1       0.910   2.546  -2.211  0.00  0.00    +0.041 A 
ATOM      9  C   UNL     1      -0.260   1.812  -2.205  0.00  0.00    +0.049 A 
ATOM     10  C   UNL     1      -0.518   0.927  -1.174  0.00  0.00    +0.127 A 
ATOM     11 BR   UNL     1       1.262   3.756  -3.620  0.00  0.00    -0.048 Br
BRANCH  10  12
ATOM     12  N   UNL     1      -1.773   0.142  -1.172  0.00  0.00    +0.056 N 
ATOM     13  O   UNL     1      -2.000  -0.632  -0.271  0.00  0.00    -0.126 OA
ATOM     14  O   UNL     1      -2.572   0.275  -2.070  0.00  0.00    -0.126 OA
ENDBRANCH  10  12
ENDBRANCH   1   7
BRANCH   2  15
ATOM     15  C   UNL     1       4.768   4.443  -0.024  0.00  0.00    +0.091 C 
ATOM     16  C   UNL     1       5.642   4.121   1.191  0.00  0.00    +0.040 C 
ATOM     17  C   UNL     1       4.971   4.590   2.449  0.00  0.00    -0.030 C 
ATOM     18  C   UNL     1       3.998   5.443   2.478  0.00  0.00    -0.030 C 
ATOM     19  C   UNL     1       3.399   6.076   1.256  0.00  0.00    +0.040 C 
ATOM     20  C   UNL     1       4.340   5.914   0.056  0.00  0.00    +0.091 C 
BRANCH  20  21
ATOM     21  C   UNL     1       3.628   6.304  -1.213  0.00  0.00    +0.220 C 
ATOM     22  O   UNL     1       2.439   6.097  -1.329  0.00  0.00    -0.275 OA
ATOM     23  N   UNL     1       4.313   6.883  -2.219  0.00  0.00    -0.301 N 
ATOM     24  C   UNL     1       5.773   7.026  -2.146  0.00  0.00    +0.108 C 
ATOM     25  C   UNL     1       6.392   6.413  -3.406  0.00  0.00    +0.019 C 
ATOM     26  C   UNL     1       5.759   7.053  -4.644  0.00  0.00    +0.003 C 
ATOM     27  C   UNL     1       4.256   6.767  -4.656  0.00  0.00    +0.019 C 
ATOM     28  C   UNL     1       3.614   7.378  -3.413  0.00  0.00    +0.108 C 
ENDBRANCH  20  21
ENDBRANCH   2  15
TORSDOF 4
