REMARK  Name = ZINC32716497
REMARK  3 active torsions:
REMARK  status: ('A' for Active; 'I' for Inactive)
REMARK    1  A    between atoms: C_10  and  C_13
REMARK    2  A    between atoms: C_13  and  C_14
REMARK    3  A    between atoms: N_16  and  C_17
REMARK                            x       y       z     vdW  Elec       q    Type
REMARK                         _______ _______ _______ _____ _____    ______ ____
ROOT
ATOM      1  C   UNL     1       2.381   1.413  -0.013  0.00  0.00    +0.002 A 
ATOM      2  C   UNL     1       1.173   2.086   0.002  0.00  0.00    +0.004 A 
ATOM      3  C   UNL     1      -0.017   1.380   0.010  0.00  0.00    +0.047 A 
ATOM      4  C   UNL     1       0.002  -0.004   0.002  0.00  0.00    +0.143 A 
ATOM      5  C   UNL     1       1.219  -0.681  -0.025  0.00  0.00    +0.076 A 
ATOM      6  C   UNL     1       2.408   0.031  -0.026  0.00  0.00    +0.027 A 
ATOM      7  N   UNL     1       1.228  -2.082  -0.070  0.00  0.00    -0.280 N 
ATOM      8  C   UNL     1       0.073  -2.742  -0.300  0.00  0.00    +0.259 C 
ATOM      9  O   UNL     1       0.041  -3.953  -0.236  0.00  0.00    -0.271 OA
ATOM     10  C   UNL     1      -1.176  -1.968  -0.637  0.00  0.00    +0.268 C 
ATOM     11  O   UNL     1      -1.160  -0.709   0.040  0.00  0.00    -0.477 OA
ATOM     12  H   UNL     1       2.169  -2.631   0.081  0.00  0.00    +0.155 HD
ENDROOT
BRANCH  10  13
ATOM     13  C   UNL     1      -1.238  -1.733  -2.147  0.00  0.00    +0.150 C 
BRANCH  13  14
ATOM     14  C   UNL     1      -2.544  -1.069  -2.500  0.00  0.00    +0.217 C 
ATOM     15  O   UNL     1      -3.346  -0.810  -1.629  0.00  0.00    -0.276 OA
ATOM     16  N   UNL     1      -2.820  -0.764  -3.783  0.00  0.00    -0.312 N 
ATOM     17  H   UNL     1      -2.091  -0.999  -4.574  0.00  0.00    +0.149 HD
BRANCH  16  18
ATOM     18  C   UNL     1      -4.089  -0.118  -4.126  0.00  0.00    +0.073 C 
ATOM     19  C   UNL     1      -5.173  -1.185  -4.300  0.00  0.00    +0.022 C 
ATOM     20  C   UNL     1      -6.499  -0.511  -4.658  0.00  0.00    +0.002 C 
ATOM     21  C   UNL     1      -6.338   0.271  -5.963  0.00  0.00    +0.000 C 
ATOM     22  C   UNL     1      -5.254   1.337  -5.789  0.00  0.00    +0.002 C 
ATOM     23  C   UNL     1      -3.928   0.663  -5.431  0.00  0.00    +0.022 C 
ENDBRANCH  16  18
ENDBRANCH  13  14
ENDBRANCH  10  13
TORSDOF 3
