REMARK  Name = ZINC38546993
REMARK  6 active torsions:
REMARK  status: ('A' for Active; 'I' for Inactive)
REMARK    1  A    between atoms: C_1  and  C_2
REMARK    2  A    between atoms: C_4  and  C_15
REMARK    3  A    between atoms: C_5  and  N_7
REMARK    4  A    between atoms: C_8  and  C_10
REMARK    5  A    between atoms: C_15  and  C_17
REMARK    6  A    between atoms: C_15  and  N_23
REMARK                            x       y       z     vdW  Elec       q    Type
REMARK                         _______ _______ _______ _____ _____    ______ ____
ROOT
ATOM      1  C   UNL     1      -1.917  -3.223  -0.007  0.00  0.00    +0.136 C 
ENDROOT
BRANCH   1   2
ATOM      2  N   UNL     1      -3.107  -2.607   0.585  0.00  0.00    -0.320 N 
ATOM      3  C   UNL     1      -4.033  -3.393   1.261  0.00  0.00    +0.097 A 
ATOM      4  C   UNL     1      -3.821  -4.763   1.376  0.00  0.00    +0.041 A 
ATOM      5  C   UNL     1      -4.750  -5.533   2.051  0.00  0.00    +0.005 A 
ATOM      6  C   UNL     1      -5.865  -4.905   2.590  0.00  0.00    +0.018 A 
ATOM      7  C   UNL     1      -6.012  -3.541   2.438  0.00  0.00    +0.084 A 
ATOM      8  N   UNL     1      -5.106  -2.830   1.794  0.00  0.00    -0.350 N 
ATOM      9  H   UNL     1      -3.248  -1.651   0.506  0.00  0.00    +0.148 HD
ATOM     10  H   UNL     1      -5.232  -1.873   1.705  0.00  0.00    +0.166 HD
ENDBRANCH   1   2
BRANCH   1  14
ATOM     11  C   UNL     1      -0.205   1.548  -0.494  0.00  0.00    +0.051 C 
ATOM     12  C   UNL     1      -0.125   0.050  -0.352  0.00  0.00    -0.011 A 
ATOM     13  C   UNL     1      -1.132  -0.850  -0.248  0.00  0.00    +0.018 A 
ATOM     14  C   UNL     1      -0.824  -2.192  -0.125  0.00  0.00    +0.006 A 
ATOM     15  C   UNL     1       0.487  -2.566  -0.112  0.00  0.00    +0.078 A 
ATOM     16  S   UNL     1       1.319  -0.996  -0.285  0.00  0.00    -0.078 S 
BRANCH  15  17
ATOM     17  N   UNL     1       1.036  -3.845   0.001  0.00  0.00    -0.273 N 
ATOM     18  C   UNL     1       2.374  -4.007  -0.007  0.00  0.00    +0.284 C 
ATOM     19  O   UNL     1       3.103  -3.039  -0.112  0.00  0.00    -0.266 OA
ATOM     20  H   UNL     1       0.454  -4.617   0.085  0.00  0.00    +0.156 HD
BRANCH  18  21
ATOM     21  C   UNL     1       2.950  -5.350   0.112  0.00  0.00    +0.189 A 
ATOM     22  C   UNL     1       4.281  -5.654   0.123  0.00  0.00    +0.054 A 
ATOM     23  C   UNL     1       4.376  -7.048   0.254  0.00  0.00    +0.042 A 
ATOM     24  C   UNL     1       3.114  -7.528   0.316  0.00  0.00    +0.196 A 
ATOM     25  O   UNL     1       2.258  -6.502   0.235  0.00  0.00    -0.458 OA
ENDBRANCH  18  21
ENDBRANCH  15  17
ENDBRANCH   1  14
BRANCH   1  26
ATOM     26  C   UNL     1      -2.255  -3.756  -1.375  0.00  0.00    -0.005 A 
ATOM     27  C   UNL     1      -1.750  -4.976  -1.798  0.00  0.00    +0.009 A 
ATOM     28  C   UNL     1      -2.087  -5.427  -3.065  0.00  0.00    +0.020 A 
ATOM     29  C   UNL     1      -2.910  -4.650  -3.859  0.00  0.00    +0.111 A 
ATOM     30  N   UNL     1      -3.372  -3.494  -3.424  0.00  0.00    -0.263 NA
ATOM     31  C   UNL     1      -3.077  -3.038  -2.222  0.00  0.00    +0.116 A 
ENDBRANCH   1  26
TORSDOF 5
