REMARK  Name = ZINC38187772
REMARK  12 active torsions:
REMARK  status: ('A' for Active; 'I' for Inactive)
REMARK    1  A    between atoms: C_1  and  C_2
REMARK    2  A    between atoms: C_2  and  C_3
REMARK    3  A    between atoms: C_3  and  C_4
REMARK    4  A    between atoms: C_4  and  C_5
REMARK    5  A    between atoms: C_8  and  N_11
REMARK    6  A    between atoms: C_12  and  C_14
REMARK    7  A    between atoms: C_14  and  S_15
REMARK    8  A    between atoms: S_15  and  C_16
REMARK    9  A    between atoms: C_19  and  C_29
REMARK   10  A    between atoms: N_20  and  C_21
REMARK   11  A    between atoms: C_24  and  O_27
REMARK   12  A    between atoms: O_27  and  C_28
REMARK                            x       y       z     vdW  Elec       q    Type
REMARK                         _______ _______ _______ _____ _____    ______ ____
ROOT
ATOM      1  C   UNL     1     -11.166  -5.161  -2.606  0.00  0.00    +0.197 A 
ATOM      2  N   UNL     1     -11.789  -5.388  -1.472  0.00  0.00    -0.122 NA
ATOM      3  N   UNL     1     -13.008  -5.727  -1.696  0.00  0.00    -0.128 NA
ATOM      4  C   UNL     1     -13.242  -5.738  -2.989  0.00  0.00    +0.171 A 
ATOM      5  N   UNL     1     -12.071  -5.370  -3.613  0.00  0.00    -0.270 N 
ENDROOT
BRANCH   4   6
ATOM      6  C   UNL     1     -14.520  -6.075  -3.647  0.00  0.00    +0.045 A 
ATOM      7  C   UNL     1     -14.764  -6.094  -4.982  0.00  0.00    +0.095 A 
ATOM      8  N   UNL     1     -16.062  -6.454  -5.208  0.00  0.00    -0.360 N 
ATOM      9  H   UNL     1     -16.470  -6.537  -6.084  0.00  0.00    +0.165 HD
ATOM     10  C   UNL     1     -16.707  -6.682  -4.012  0.00  0.00    +0.047 A 
ATOM     11  C   UNL     1     -15.776  -6.463  -2.982  0.00  0.00    +0.010 A 
ATOM     12  C   UNL     1     -16.155  -6.628  -1.652  0.00  0.00    +0.011 A 
ATOM     13  C   UNL     1     -17.444  -7.010  -1.352  0.00  0.00    +0.001 A 
ATOM     14  C   UNL     1     -18.364  -7.230  -2.368  0.00  0.00    +0.002 A 
ATOM     15  C   UNL     1     -18.006  -7.062  -3.688  0.00  0.00    +0.026 A 
ENDBRANCH   4   6
BRANCH   5  16
ATOM     16  C   UNL     1     -11.849  -5.239  -4.993  0.00  0.00    +0.051 A 
ATOM     17  C   UNL     1     -12.515  -4.257  -5.713  0.00  0.00    +0.030 A 
ATOM     18  C   UNL     1     -12.297  -4.129  -7.071  0.00  0.00    +0.047 A 
ATOM     19  C   UNL     1     -11.412  -4.981  -7.715  0.00  0.00    +0.120 A 
ATOM     20  C   UNL     1     -10.746  -5.963  -6.995  0.00  0.00    +0.047 A 
ATOM     21  C   UNL     1     -10.960  -6.089  -5.637  0.00  0.00    +0.030 A 
BRANCH  19  22
ATOM     22  O   UNL     1     -11.198  -4.855  -9.051  0.00  0.00    -0.495 OA
ATOM     23  C   UNL     1     -10.274  -5.767  -9.649  0.00  0.00    +0.277 C 
ENDBRANCH  19  22
ENDBRANCH   5  16
BRANCH   1  24
ATOM     24  S   UNL     1      -9.484  -4.672  -2.795  0.00  0.00    -0.076 S 
BRANCH  24  25
ATOM     25  C   UNL     1      -8.861  -4.578  -1.094  0.00  0.00    +0.173 C 
BRANCH  25  27
ATOM     26  N   UNL     1      -6.735  -4.027   0.045  0.00  0.00    -0.285 N 
ATOM     27  C   UNL     1      -7.412  -4.163  -1.113  0.00  0.00    +0.227 C 
ATOM     28  O   UNL     1      -6.855  -3.953  -2.169  0.00  0.00    -0.275 OA
ATOM     29  H   UNL     1      -7.156  -4.269   0.884  0.00  0.00    +0.155 HD
BRANCH  26  33
ATOM     30  C   UNL     1      -2.833  -2.567   0.018  0.00  0.00    -0.047 A 
ATOM     31  C   UNL     1      -3.747  -2.110  -0.914  0.00  0.00    +0.005 A 
ATOM     32  C   UNL     1      -5.042  -2.592  -0.908  0.00  0.00    +0.023 A 
ATOM     33  C   UNL     1      -5.424  -3.537   0.035  0.00  0.00    +0.033 A 
ATOM     34  C   UNL     1      -4.504  -3.994   0.969  0.00  0.00    +0.023 A 
ATOM     35  C   UNL     1      -3.210  -3.511   0.955  0.00  0.00    +0.005 A 
BRANCH  30  36
ATOM     36  C   UNL     1      -1.422  -2.038   0.008  0.00  0.00    +0.035 C 
BRANCH  36  37
ATOM     37  C   UNL     1      -0.556  -2.913  -0.901  0.00  0.00    +0.004 C 
BRANCH  37  39
ATOM     38  C   UNL     1       1.742  -3.251  -1.821  0.00  0.00    +0.004 C 
ATOM     39  C   UNL     1       0.877  -2.377  -0.911  0.00  0.00    -0.003 C 
ENDBRANCH  37  39
ENDBRANCH  36  37
ENDBRANCH  30  36
ENDBRANCH  26  33
ENDBRANCH  25  27
ENDBRANCH  24  25
ENDBRANCH   1  24
TORSDOF 10
