REMARK  Name = ZINC35869835
REMARK  4 active torsions:
REMARK  status: ('A' for Active; 'I' for Inactive)
REMARK    1  A    between atoms: C_8  and  C_24
REMARK    2  A    between atoms: N_15  and  C_17
REMARK    3  A    between atoms: N_26  and  C_27
REMARK    4  A    between atoms: C_27  and  C_28
REMARK                            x       y       z     vdW  Elec       q    Type
REMARK                         _______ _______ _______ _____ _____    ______ ____
ROOT
ATOM      1  C   UNL     1      -0.017   1.378   0.010  0.00  0.00    +0.000 A 
ATOM      2  C   UNL     1       1.171   2.087   0.002  0.00  0.00    +0.002 A 
ATOM      3  C   UNL     1       2.377   1.417  -0.019  0.00  0.00    +0.023 A 
ATOM      4  C   UNL     1       2.398   0.025  -0.030  0.00  0.00    +0.033 A 
ATOM      5  C   UNL     1       1.209  -0.680  -0.012  0.00  0.00    -0.026 A 
ATOM      6  C   UNL     1       0.002  -0.004   0.002  0.00  0.00    +0.005 A 
ATOM      7  C   UNL     1       1.216  -2.187   0.008  0.00  0.00    +0.051 C 
ATOM      8  C   UNL     1       2.495  -2.662   0.696  0.00  0.00    +0.101 C 
ATOM      9  C   UNL     1       3.719  -2.077  -0.016  0.00  0.00    +0.103 C 
ATOM     10  N   UNL     1       3.643  -0.627  -0.068  0.00  0.00    -0.323 N 
ATOM     11  C   UNL     1       4.821   0.225  -0.217  0.00  0.00    +0.124 C 
ATOM     12  C   UNL     1       6.025  -0.284   0.548  0.00  0.00    +0.124 C 
ATOM     13  N   UNL     1       6.119  -1.733   0.489  0.00  0.00    -0.325 N 
ATOM     14  C   UNL     1       4.969  -2.596   0.675  0.00  0.00    +0.128 C 
ENDROOT
BRANCH  13  15
ATOM     15  C   UNL     1       7.365  -2.317   0.244  0.00  0.00    +0.048 A 
ATOM     16  C   UNL     1       8.200  -2.647   1.303  0.00  0.00    +0.024 A 
ATOM     17  C   UNL     1       9.430  -3.224   1.057  0.00  0.00    +0.002 A 
ATOM     18  C   UNL     1       9.832  -3.474  -0.243  0.00  0.00    +0.002 A 
ATOM     19  C   UNL     1       9.003  -3.146  -1.300  0.00  0.00    +0.022 A 
ATOM     20  C   UNL     1       7.768  -2.574  -1.061  0.00  0.00    +0.062 A 
ATOM     21 CL   UNL     1       6.726  -2.169  -2.389  0.00  0.00    -0.082 Cl
ENDBRANCH  13  15
BRANCH   8  22
ATOM     22  C   UNL     1       2.561  -4.167   0.646  0.00  0.00    +0.219 C 
ATOM     23  O   UNL     1       3.489  -4.715   0.090  0.00  0.00    -0.275 OA
ATOM     24  N   UNL     1       1.589  -4.903   1.220  0.00  0.00    -0.308 N 
ATOM     25  H   UNL     1       0.847  -4.465   1.664  0.00  0.00    +0.149 HD
BRANCH  24  26
ATOM     26  C   UNL     1       1.653  -6.366   1.171  0.00  0.00    +0.178 C 
BRANCH  26  27
ATOM     27  C   UNL     1       0.456  -6.945   1.880  0.00  0.00    +0.122 A 
ATOM     28  C   UNL     1      -0.726  -7.245   1.311  0.00  0.00    +0.046 A 
ATOM     29  C   UNL     1      -1.554  -7.760   2.334  0.00  0.00    +0.041 A 
ATOM     30  C   UNL     1      -0.830  -7.743   3.468  0.00  0.00    +0.195 A 
ATOM     31  O   UNL     1       0.389  -7.254   3.185  0.00  0.00    -0.466 OA
ENDBRANCH  26  27
ENDBRANCH  24  26
ENDBRANCH   8  22
TORSDOF 4
