REMARK  Name = ZINC63270802
REMARK  5 active torsions:
REMARK  status: ('A' for Active; 'I' for Inactive)
REMARK    1  A    between atoms: C_7  and  C_10
REMARK    2  A    between atoms: C_10  and  C_11
REMARK    3  A    between atoms: C_11  and  N_12
REMARK    4  A    between atoms: C_13  and  C_15
REMARK    5  A    between atoms: C_15  and  N_16
REMARK                            x       y       z     vdW  Elec       q    Type
REMARK                         _______ _______ _______ _____ _____    ______ ____
ROOT
ATOM      1  C   UNL     1      -1.755  -6.555  -2.621  0.00  0.00    +0.201 C 
ENDROOT
BRANCH   1   2
ATOM      2  N   UNL     1      -1.980  -7.002  -3.998  0.00  0.00    -0.291 N 
ATOM      3  C   UNL     1      -2.789  -8.052  -4.242  0.00  0.00    +0.303 C 
ATOM      4  O   UNL     1      -3.260  -8.684  -3.317  0.00  0.00    -0.253 OA
ATOM      5  N   UNL     1      -3.075  -8.401  -5.512  0.00  0.00    -0.284 N 
ATOM      6  C   UNL     1      -4.043  -9.459  -5.777  0.00  0.00    +0.110 C 
ATOM      7  C   UNL     1      -3.449 -10.515  -6.681  0.00  0.00    +0.025 C 
ATOM      8  C   UNL     1      -2.704  -9.990  -7.884  0.00  0.00    +0.029 C 
ATOM      9  C   UNL     1      -2.160  -8.584  -7.796  0.00  0.00    +0.127 C 
ATOM     10  C   UNL     1      -2.422  -7.719  -6.619  0.00  0.00    +0.136 C 
ATOM     11  N   UNL     1      -0.791  -8.583  -8.289  0.00  0.00    -0.282 NA
ATOM     12  C   UNL     1      -0.372  -9.779  -8.516  0.00  0.00    +0.043 C 
ATOM     13  C   UNL     1      -1.403 -10.809  -8.038  0.00  0.00    +0.065 C 
ATOM     14  C   UNL     1      -1.514 -11.900  -9.057  0.00  0.00    -0.017 C 
ATOM     15  C   UNL     1      -0.486 -12.165  -9.864  0.00  0.00    -0.004 C 
ATOM     16  C   UNL     1       0.771 -11.422  -9.802  0.00  0.00    +0.001 C 
ATOM     17  C   UNL     1       0.850 -10.207  -9.111  0.00  0.00    +0.023 C 
ATOM     18  H   UNL     1      -1.546  -6.543  -4.734  0.00  0.00    +0.151 HD
ENDBRANCH   1   2
BRANCH   1  20
ATOM     19  N   UNL     1      -0.467  -4.792  -1.460  0.00  0.00    -0.314 N 
ATOM     20  C   UNL     1      -0.819  -5.374  -2.623  0.00  0.00    +0.230 C 
ATOM     21  O   UNL     1      -0.383  -4.948  -3.671  0.00  0.00    -0.274 OA
ATOM     22  H   UNL     1      -0.816  -5.133  -0.621  0.00  0.00    +0.149 HD
BRANCH  19  23
ATOM     23  C   UNL     1       0.443  -3.644  -1.461  0.00  0.00    +0.108 C 
BRANCH  23  24
ATOM     24  C   UNL     1       0.677  -3.177  -0.023  0.00  0.00    +0.052 C 
BRANCH  24  31
ATOM     25  C   UNL     1      -0.048   1.354   0.018  0.00  0.00    +0.001 A 
ATOM     26  C   UNL     1       1.131   2.112   0.009  0.00  0.00    +0.002 A 
ATOM     27  C   UNL     1       2.358   1.551  -0.008  0.00  0.00    +0.026 A 
ATOM     28  C   UNL     1       2.502   0.136  -0.020  0.00  0.00    +0.043 A 
ATOM     29  N   UNL     1       3.563  -0.633  -0.038  0.00  0.00    -0.380 N 
ATOM     30  C   UNL     1       3.125  -2.034  -0.043  0.00  0.00    +0.144 C 
ATOM     31  C   UNL     1       1.613  -1.996  -0.025  0.00  0.00    -0.040 C 
ATOM     32  C   UNL     1       1.272  -0.687  -0.011  0.00  0.00    -0.001 A 
ATOM     33  C   UNL     1      -0.024   0.002   0.008  0.00  0.00    +0.010 A 
ATOM     34  H   UNL     1       4.484  -0.328  -0.046  0.00  0.00    +0.160 HD
ENDBRANCH  24  31
ENDBRANCH  23  24
ENDBRANCH  19  23
ENDBRANCH   1  20
TORSDOF 5
