REMARK  Name = ZINC12668144
REMARK  8 active torsions:
REMARK  status: ('A' for Active; 'I' for Inactive)
REMARK    1  A    between atoms: C_1  and  C_2
REMARK    2  A    between atoms: C_4  and  N_12
REMARK    3  A    between atoms: C_13  and  C_15
REMARK    4  A    between atoms: C_15  and  C_16
REMARK    5  A    between atoms: C_25  and  C_27
REMARK    6  A    between atoms: C_27  and  C_28
REMARK    7  A    between atoms: C_27  and  C_29
REMARK    8  A    between atoms: C_27  and  C_30
REMARK                            x       y       z     vdW  Elec       q    Type
REMARK                         _______ _______ _______ _____ _____    ______ ____
ROOT
ATOM      1  N   UNL     1      -1.274  -2.655  -2.318  0.00  0.00    -0.285 N 
ATOM      2  C   UNL     1      -0.887  -1.990  -1.211  0.00  0.00    +0.219 C 
ATOM      3  O   UNL     1      -0.525  -2.605  -0.230  0.00  0.00    -0.275 OA
ATOM      4  H   UNL     1      -1.491  -2.166  -3.127  0.00  0.00    +0.155 HD
ENDROOT
BRANCH   1   8
ATOM      5  C   UNL     1      -1.570  -6.871   0.189  0.00  0.00    +0.065 C 
ATOM      6  C   UNL     1      -1.508  -6.127  -1.120  0.00  0.00    +0.041 A 
ATOM      7  C   UNL     1      -1.420  -4.740  -1.105  0.00  0.00    +0.047 A 
ATOM      8  C   UNL     1      -1.362  -4.043  -2.300  0.00  0.00    +0.044 A 
ATOM      9  C   UNL     1      -1.402  -4.788  -3.502  0.00  0.00    +0.022 A 
ATOM     10  C   UNL     1      -1.342  -4.157  -4.753  0.00  0.00    +0.012 A 
ATOM     11  C   UNL     1      -1.377  -4.908  -5.889  0.00  0.00    +0.001 A 
ATOM     12  C   UNL     1      -1.465  -6.297  -5.824  0.00  0.00    +0.002 A 
ATOM     13  C   UNL     1      -1.520  -6.941  -4.626  0.00  0.00    +0.028 A 
ATOM     14  C   UNL     1      -1.487  -6.199  -3.432  0.00  0.00    +0.073 A 
ATOM     15  N   UNL     1      -1.539  -6.806  -2.241  0.00  0.00    -0.252 NA
ENDBRANCH   1   8
BRANCH   2  16
ATOM     16  C   UNL     1      -0.906  -0.484  -1.192  0.00  0.00    +0.122 C 
BRANCH  16  17
ATOM     17  C   UNL     1      -0.283   0.018   0.113  0.00  0.00    +0.112 C 
ATOM     18  C   UNL     1       1.174  -0.462   0.173  0.00  0.00    +0.103 C 
ATOM     19  S   UNL     1       2.063   1.133   0.305  0.00  0.00    -0.086 S 
ATOM     20  C   UNL     1       0.671   2.241   0.279  0.00  0.00    +0.172 A 
ATOM     21  N   UNL     1      -0.445   1.469   0.176  0.00  0.00    -0.283 N 
ATOM     22  C   UNL     1      -1.648   2.126   0.144  0.00  0.00    +0.255 A 
ATOM     23  O   UNL     1      -2.686   1.491   0.057  0.00  0.00    -0.268 OA
ATOM     24  C   UNL     1      -1.687   3.522   0.207  0.00  0.00    +0.094 A 
ATOM     25  C   UNL     1      -0.519   4.222   0.310  0.00  0.00    +0.055 A 
ATOM     26  N   UNL     1       0.631   3.556   0.343  0.00  0.00    -0.227 NA
BRANCH  25  27
ATOM     27  C   UNL     1      -0.534   5.727   0.384  0.00  0.00    +0.005 C 
ATOM     28  C   UNL     1      -1.979   6.227   0.326  0.00  0.00    +0.017 C 
ATOM     29  C   UNL     1       0.108   6.179   1.697  0.00  0.00    +0.017 C 
ATOM     30  C   UNL     1       0.253   6.304  -0.794  0.00  0.00    +0.017 C 
ENDBRANCH  25  27
ENDBRANCH  16  17
ENDBRANCH   2  16
TORSDOF 4
