REMARK  Name = ZINC24852188
REMARK  9 active torsions:
REMARK  status: ('A' for Active; 'I' for Inactive)
REMARK    1  A    between atoms: C_1  and  O_2
REMARK    2  A    between atoms: O_2  and  C_3
REMARK    3  A    between atoms: C_8  and  O_9
REMARK    4  A    between atoms: O_9  and  C_10
REMARK    5  A    between atoms: C_10  and  C_11
REMARK    6  A    between atoms: C_11  and  O_13
REMARK    7  A    between atoms: O_13  and  C_14
REMARK    8  A    between atoms: C_14  and  C_15
REMARK    9  A    between atoms: C_18  and  C_20
REMARK                            x       y       z     vdW  Elec       q    Type
REMARK                         _______ _______ _______ _____ _____    ______ ____
ROOT
ATOM      1  C   UNL     1       4.076   8.920   0.005  0.00  0.00    +0.345 C 
ATOM      2  O   UNL     1       3.039   9.540   0.018  0.00  0.00    -0.247 OA
ENDROOT
BRANCH   1   3
ATOM      3  C   UNL     1       5.393   9.654  -0.005  0.00  0.00    +0.349 C 
BRANCH   3   4
ATOM      4  O   UNL     1       5.152  11.063   0.004  0.00  0.00    -0.477 OA
BRANCH   4  10
ATOM      5  C   UNL     1       6.083  13.257   0.004  0.00  0.00    +0.162 A 
ATOM      6  C   UNL     1       7.198  14.081  -0.003  0.00  0.00    +0.049 A 
ATOM      7  C   UNL     1       8.465  13.529  -0.019  0.00  0.00    +0.004 A 
ATOM      8  C   UNL     1       8.624  12.155  -0.026  0.00  0.00    +0.004 A 
ATOM      9  C   UNL     1       7.516  11.328  -0.013  0.00  0.00    +0.049 A 
ATOM     10  C   UNL     1       6.243  11.875  -0.004  0.00  0.00    +0.163 A 
BRANCH   5  12
ATOM     11  C   UNL     1       4.748  15.225   0.027  0.00  0.00    +0.277 C 
ATOM     12  O   UNL     1       4.836  13.799   0.020  0.00  0.00    -0.491 OA
ENDBRANCH   5  12
ENDBRANCH   4  10
ENDBRANCH   3   4
ENDBRANCH   1   3
BRANCH   1  13
ATOM     13  O   UNL     1       4.056   7.578  -0.001  0.00  0.00    -0.456 OA
BRANCH  13  14
ATOM     14  C   UNL     1       2.753   6.938   0.009  0.00  0.00    +0.290 C 
BRANCH  14  15
ATOM     15  C   UNL     1       2.928   5.441   0.001  0.00  0.00    +0.117 A 
ATOM     16  C   UNL     1       4.100   4.782  -0.014  0.00  0.00    +0.224 A 
ATOM     17  O   UNL     1       3.818   3.462  -0.017  0.00  0.00    -0.443 OA
ATOM     18  C   UNL     1       2.479   3.330  -0.004  0.00  0.00    +0.234 A 
ATOM     19  N   UNL     1       1.942   4.531   0.002  0.00  0.00    -0.210 NA
BRANCH  18  20
ATOM     20  C   UNL     1       1.741   2.059  -0.004  0.00  0.00    +0.074 A 
ATOM     21  C   UNL     1       2.232   0.766  -0.015  0.00  0.00    +0.021 A 
ATOM     22  C   UNL     1       1.333  -0.275  -0.012  0.00  0.00    +0.008 A 
ATOM     23  C   UNL     1       0.002  -0.004   0.002  0.00  0.00    +0.046 A 
ATOM     24  S   UNL     1      -0.022   1.781   0.012  0.00  0.00    -0.092 S 
ENDBRANCH  18  20
ENDBRANCH  14  15
ENDBRANCH  13  14
ENDBRANCH   1  13
TORSDOF 8
