REMARK  Name = ZINC17077157
REMARK  6 active torsions:
REMARK  status: ('A' for Active; 'I' for Inactive)
REMARK    1  A    between atoms: C_1  and  C_2
REMARK    2  A    between atoms: C_5  and  C_8
REMARK    3  A    between atoms: C_11  and  C_13
REMARK    4  A    between atoms: N_15  and  N_16
REMARK    5  A    between atoms: N_19  and  C_20
REMARK    6  A    between atoms: C_25  and  C_26
REMARK                            x       y       z     vdW  Elec       q    Type
REMARK                         _______ _______ _______ _____ _____    ______ ____
ROOT
ATOM      1  N   UNL     1      -0.012   0.965   0.023  0.00  0.00    -0.218 N 
ATOM      2  C   UNL     1      -1.188   1.624   0.022  0.00  0.00    +0.320 C 
ATOM      3  O   UNL     1      -2.233   1.002   0.020  0.00  0.00    -0.251 OA
ATOM      4  N   UNL     1      -1.206   2.971   0.024  0.00  0.00    -0.268 N 
ATOM      5  H   UNL     1       0.001  -0.005   0.021  0.00  0.00    +0.174 HD
ATOM      6  H   UNL     1      -0.375   3.467   0.092  0.00  0.00    +0.156 HD
ENDROOT
BRANCH   4   7
ATOM      7  C   UNL     1      -2.423   3.655  -0.072  0.00  0.00    +0.046 A 
ATOM      8  C   UNL     1      -3.564   3.132   0.522  0.00  0.00    +0.024 A 
ATOM      9  C   UNL     1      -4.762   3.812   0.429  0.00  0.00    +0.002 A 
ATOM     10  C   UNL     1      -4.829   5.007  -0.262  0.00  0.00    +0.001 A 
ATOM     11  C   UNL     1      -3.696   5.528  -0.859  0.00  0.00    +0.014 A 
ATOM     12  C   UNL     1      -2.494   4.856  -0.766  0.00  0.00    +0.076 A 
BRANCH  12  13
ATOM     13  C   UNL     1      -1.259   5.424  -1.418  0.00  0.00    +0.419 C 
ATOM     14  F   UNL     1      -1.579   6.629  -2.052  0.00  0.00    -0.166 F 
ATOM     15  F   UNL     1      -0.282   5.654  -0.444  0.00  0.00    -0.166 F 
ATOM     16  F   UNL     1      -0.771   4.516  -2.363  0.00  0.00    -0.166 F 
ENDBRANCH  12  13
ENDBRANCH   4   7
BRANCH   1  19
ATOM     17  C   UNL     1       2.368   1.024   0.014  0.00  0.00    +0.233 C 
ATOM     18  O   UNL     1       2.384  -0.189   0.013  0.00  0.00    -0.274 OA
ATOM     19  N   UNL     1       1.192   1.682   0.019  0.00  0.00    -0.233 N 
ATOM     20  H   UNL     1       1.179   2.652   0.021  0.00  0.00    +0.173 HD
BRANCH  17  23
ATOM     21  C   UNL     1       4.964   0.989   0.005  0.00  0.00    +0.032 C 
ATOM     22  C   UNL     1       4.519   1.732  -1.257  0.00  0.00    +0.022 C 
ATOM     23  C   UNL     1       3.663   1.794   0.010  0.00  0.00    +0.084 C 
BRANCH  21  28
ATOM     24  C   UNL     1       4.535  -4.774   0.002  0.00  0.00    +0.044 C 
ATOM     25  C   UNL     1       4.647  -3.271   0.002  0.00  0.00    -0.050 A 
ATOM     26  C   UNL     1       5.300  -2.627   1.037  0.00  0.00    +0.003 A 
ATOM     27  C   UNL     1       5.402  -1.248   1.038  0.00  0.00    +0.004 A 
ATOM     28  C   UNL     1       4.853  -0.514   0.004  0.00  0.00    -0.044 A 
ATOM     29  C   UNL     1       4.196  -1.157  -1.028  0.00  0.00    +0.004 A 
ATOM     30  C   UNL     1       4.098  -2.536  -1.032  0.00  0.00    +0.003 A 
ENDBRANCH  21  28
ENDBRANCH  17  23
ENDBRANCH   1  19
TORSDOF 5
