REMARK  Name = ZINC21255076
REMARK  13 active torsions:
REMARK  status: ('A' for Active; 'I' for Inactive)
REMARK    1  A    between atoms: C_1  and  C_2
REMARK    2  A    between atoms: C_2  and  C_3
REMARK    3  A    between atoms: C_3  and  O_4
REMARK    4  A    between atoms: O_4  and  C_5
REMARK    5  A    between atoms: C_8  and  C_13
REMARK    6  A    between atoms: C_10  and  O_11
REMARK    7  A    between atoms: O_11  and  C_12
REMARK    8  A    between atoms: C_24  and  C_27
REMARK    9  A    between atoms: C_30  and  O_35
REMARK   10  A    between atoms: C_31  and  O_33
REMARK   11  A    between atoms: O_33  and  C_34
REMARK   12  A    between atoms: O_35  and  C_36
REMARK   13  A    between atoms: C_36  and  C_37
REMARK                            x       y       z     vdW  Elec       q    Type
REMARK                         _______ _______ _______ _____ _____    ______ ____
ROOT
ATOM      1  C   UNL     1       1.960   7.810  -0.015  0.00  0.00    +0.063 C 
ATOM      2  C   UNL     1       1.128   8.345  -1.182  0.00  0.00    +0.109 C 
ATOM      3  C   UNL     1       1.516   7.613  -2.441  0.00  0.00    +0.218 C 
ATOM      4  O   UNL     1       1.496   8.190  -3.507  0.00  0.00    -0.275 OA
ATOM      5  N   UNL     1       1.883   6.321  -2.385  0.00  0.00    -0.289 N 
ATOM      6  C   UNL     1       1.891   5.635  -1.197  0.00  0.00    +0.018 C 
ATOM      7  C   UNL     1       1.922   6.300  -0.023  0.00  0.00    +0.020 C 
ATOM      8  C   UNL     1       1.922   5.618   1.204  0.00  0.00    +0.162 C 
ATOM      9  O   UNL     1       1.961   6.251   2.241  0.00  0.00    -0.292 OA
ATOM     10  C   UNL     1       1.875   4.114   1.256  0.00  0.00    +0.088 C 
ATOM     11  C   UNL     1       1.149   3.596   0.010  0.00  0.00    +0.032 C 
ATOM     12  C   UNL     1       1.869   4.127  -1.231  0.00  0.00    +0.059 C 
ATOM     13  H   UNL     1       2.184   5.795  -3.303  0.00  0.00    +0.155 HD
ENDROOT
BRANCH   1  17
ATOM     14  C   UNL     1       6.005   9.137  -0.422  0.00  0.00    +0.162 A 
ATOM     15  C   UNL     1       5.425   8.359  -1.412  0.00  0.00    +0.050 A 
ATOM     16  C   UNL     1       4.117   7.932  -1.277  0.00  0.00    +0.008 A 
ATOM     17  C   UNL     1       3.385   8.279  -0.156  0.00  0.00    -0.036 A 
ATOM     18  C   UNL     1       3.956   9.059   0.832  0.00  0.00    +0.053 A 
ATOM     19  C   UNL     1       5.268   9.486   0.705  0.00  0.00    +0.162 A 
BRANCH  19  20
ATOM     20  O   UNL     1       5.833  10.249   1.679  0.00  0.00    -0.491 OA
ATOM     21  C   UNL     1       5.017  10.569   2.808  0.00  0.00    +0.277 C 
ENDBRANCH  19  20
BRANCH  14  22
ATOM     22  O   UNL     1       7.291   9.558  -0.553  0.00  0.00    -0.488 OA
BRANCH  22  23
ATOM     23  C   UNL     1       7.986   9.162  -1.738  0.00  0.00    +0.229 C 
BRANCH  23  25
ATOM     24  C   UNL     1      10.152   9.302  -2.975  0.00  0.00    +0.007 C 
ATOM     25  C   UNL     1       9.408   9.726  -1.707  0.00  0.00    +0.038 C 
ENDBRANCH  23  25
ENDBRANCH  22  23
ENDBRANCH  14  22
ENDBRANCH   1  17
BRANCH  11  26
ATOM     26  C   UNL     1       1.171   2.089   0.002  0.00  0.00    -0.040 A 
ATOM     27  C   UNL     1       2.379   1.417  -0.013  0.00  0.00    +0.008 A 
ATOM     28  C   UNL     1       2.405   0.035  -0.021  0.00  0.00    +0.050 A 
ATOM     29  C   UNL     1       1.218  -0.680  -0.013  0.00  0.00    +0.162 A 
ATOM     30  C   UNL     1       0.002  -0.004   0.002  0.00  0.00    +0.162 A 
ATOM     31  C   UNL     1      -0.017   1.381   0.010  0.00  0.00    +0.053 A 
BRANCH  30  32
ATOM     32  O   UNL     1      -1.165  -0.702   0.010  0.00  0.00    -0.491 OA
ATOM     33  C   UNL     1      -2.375   0.059   0.026  0.00  0.00    +0.277 C 
ENDBRANCH  30  32
BRANCH  29  34
ATOM     34  O   UNL     1       1.242  -2.040  -0.021  0.00  0.00    -0.489 OA
BRANCH  34  35
ATOM     35  C   UNL     1       2.526  -2.666  -0.037  0.00  0.00    +0.226 C 
ATOM     36  C   UNL     1       2.352  -4.186  -0.044  0.00  0.00    +0.048 C 
ENDBRANCH  34  35
ENDBRANCH  29  34
ENDBRANCH  11  26
TORSDOF 9
