REMARK  Name = ZINC09056296
REMARK  8 active torsions:
REMARK  status: ('A' for Active; 'I' for Inactive)
REMARK    1  A    between atoms: C_1  and  C_2
REMARK    2  A    between atoms: C_2  and  C_4
REMARK    3  A    between atoms: C_2  and  S_16
REMARK    4  A    between atoms: C_4  and  C_6
REMARK    5  A    between atoms: S_16  and  C_17
REMARK    6  A    between atoms: C_20  and  C_25
REMARK    7  A    between atoms: N_21  and  C_22
REMARK    8  A    between atoms: C_22  and  C_23
REMARK                            x       y       z     vdW  Elec       q    Type
REMARK                         _______ _______ _______ _____ _____    ______ ____
ROOT
ATOM      1  C   UNL     1      -0.499  10.396  -0.681  0.00  0.00    +0.193 A 
ATOM      2  N   UNL     1       0.735  10.579  -0.274  0.00  0.00    -0.122 NA
ATOM      3  N   UNL     1       1.068  11.811  -0.430  0.00  0.00    -0.129 NA
ATOM      4  C   UNL     1       0.075  12.481  -0.942  0.00  0.00    +0.179 A 
ATOM      5  N   UNL     1      -0.957  11.603  -1.126  0.00  0.00    -0.299 N 
ENDROOT
BRANCH   4   6
ATOM      6  C   UNL     1       0.067  13.950  -1.276  0.00  0.00    +0.278 C 
ATOM      7  C   UNL     1       0.884  14.196  -2.552  0.00  0.00    +0.281 C 
ATOM      8  O   UNL     1       0.867  15.600  -2.832  0.00  0.00    -0.484 OA
ATOM      9  C   UNL     1       1.109  16.436  -1.786  0.00  0.00    +0.162 A 
ATOM     10  C   UNL     1       1.460  17.754  -2.034  0.00  0.00    +0.049 A 
ATOM     11  C   UNL     1       1.705  18.616  -0.982  0.00  0.00    +0.004 A 
ATOM     12  C   UNL     1       1.601  18.166   0.321  0.00  0.00    +0.004 A 
ATOM     13  C   UNL     1       1.252  16.853   0.576  0.00  0.00    +0.049 A 
ATOM     14  C   UNL     1       1.006  15.983  -0.476  0.00  0.00    +0.163 A 
ATOM     15  O   UNL     1       0.669  14.691  -0.209  0.00  0.00    -0.474 OA
ENDBRANCH   4   6
BRANCH   1  16
ATOM     16  S   UNL     1      -1.393   8.877  -0.664  0.00  0.00    -0.075 S 
BRANCH  16  18
ATOM     17  C   UNL     1       0.168   8.211   1.477  0.00  0.00    +0.028 C 
ATOM     18  C   UNL     1      -0.137   7.781   0.041  0.00  0.00    +0.122 C 
BRANCH  18  19
ATOM     19  C   UNL     1      -0.649   6.364   0.039  0.00  0.00    +0.178 C 
ATOM     20  O   UNL     1      -1.844   6.150   0.049  0.00  0.00    -0.291 OA
BRANCH  19  21
ATOM     21  C   UNL     1       0.264   5.280   0.026  0.00  0.00    +0.043 A 
ATOM     22  C   UNL     1       1.640   5.357   0.013  0.00  0.00    +0.095 A 
ATOM     23  N   UNL     1       2.163   4.117   0.002  0.00  0.00    -0.360 N 
ATOM     24  H   UNL     1       3.113   3.918  -0.008  0.00  0.00    +0.165 HD
ATOM     25  C   UNL     1       1.163   3.165   0.007  0.00  0.00    +0.047 A 
ATOM     26  C   UNL     1      -0.067   3.842   0.022  0.00  0.00    +0.010 A 
ATOM     27  C   UNL     1      -1.259   3.124   0.031  0.00  0.00    +0.011 A 
ATOM     28  C   UNL     1      -1.227   1.746   0.017  0.00  0.00    +0.001 A 
ATOM     29  C   UNL     1      -0.013   1.076   0.008  0.00  0.00    +0.002 A 
ATOM     30  C   UNL     1       1.175   1.774   0.000  0.00  0.00    +0.026 A 
ENDBRANCH  19  21
ENDBRANCH  18  19
ENDBRANCH  16  18
ENDBRANCH   1  16
BRANCH   5  31
ATOM     31  C   UNL     1      -2.280  11.896  -1.682  0.00  0.00    +0.152 C 
BRANCH  31  32
ATOM     32  C   UNL     1      -3.215  12.295  -0.569  0.00  0.00    -0.013 C 
ATOM     33  C   UNL     1      -3.857  13.436  -0.631  0.00  0.00    +0.005 C 
ENDBRANCH  31  32
ENDBRANCH   5  31
TORSDOF 7
