REMARK  Name = ZINC39631858
REMARK  13 active torsions:
REMARK  status: ('A' for Active; 'I' for Inactive)
REMARK    1  A    between atoms: C_1  and  C_2
REMARK    2  A    between atoms: C_2  and  C_4
REMARK    3  A    between atoms: C_2  and  N_11
REMARK    4  A    between atoms: C_4  and  C_5
REMARK    5  A    between atoms: C_5  and  C_6
REMARK    6  A    between atoms: C_6  and  C_7
REMARK    7  A    between atoms: C_7  and  C_8
REMARK    8  A    between atoms: C_7  and  C_9
REMARK    9  A    between atoms: C_7  and  O_10
REMARK   10  A    between atoms: C_12  and  C_14
REMARK   11  A    between atoms: C_25  and  C_27
REMARK   12  A    between atoms: C_31  and  O_32
REMARK   13  A    between atoms: O_32  and  C_33
REMARK                            x       y       z     vdW  Elec       q    Type
REMARK                         _______ _______ _______ _____ _____    ______ ____
ROOT
ATOM      1  C   UNL     1       0.771  -1.144   3.562  0.00  0.00    +0.100 C 
ATOM      2  C   UNL     1       1.181  -2.623   3.385  0.00  0.00    +0.121 C 
ATOM      3  N   UNL     1       1.004  -3.224   4.728  0.00  0.00    -0.296 N 
ATOM      4  C   UNL     1      -0.239  -2.605   5.248  0.00  0.00    +0.115 C 
ATOM      5  C   UNL     1      -0.161  -1.136   4.785  0.00  0.00    -0.004 C 
ATOM      6  C   UNL     1       0.426  -0.265   5.891  0.00  0.00    -0.010 C 
ATOM      7  C   UNL     1      -0.545  -0.228   7.075  0.00  0.00    -0.082 C 
ATOM      8  N   UNL     1      -1.837   0.312   6.633  0.00  0.00    +0.379 N 
ATOM      9  C   UNL     1      -2.438  -0.581   5.635  0.00  0.00    -0.082 C 
ATOM     10  C   UNL     1      -1.546  -0.634   4.391  0.00  0.00    -0.010 C 
ATOM     11  C   UNL     1       1.794  -4.130   5.338  0.00  0.00    +0.251 C 
ATOM     12  O   UNL     1       2.839  -4.473   4.820  0.00  0.00    -0.270 OA
ATOM     13  H   UNL     1      -2.455   0.393   7.426  0.00  0.00    -0.086 HD
ATOM     14  H   UNL     1      -1.696   1.224   6.224  0.00  0.00    -0.086 HD
ENDROOT
BRANCH  11  15
ATOM     15  C   UNL     1       1.391  -4.704   6.631  0.00  0.00    +0.087 A 
ATOM     16  C   UNL     1       0.069  -4.947   6.933  0.00  0.00    +0.063 A 
ATOM     17  S   UNL     1       0.108  -5.588   8.482  0.00  0.00    -0.081 S 
ATOM     18  C   UNL     1       1.861  -5.558   8.789  0.00  0.00    +0.120 A 
ATOM     19  C   UNL     1       2.365  -5.044   7.644  0.00  0.00    +0.158 A 
ATOM     20 CL   UNL     1       2.717  -6.072  10.209  0.00  0.00    -0.072 Cl
BRANCH  19  21
ATOM     21  O   UNL     1       3.700  -4.855   7.459  0.00  0.00    -0.492 OA
ATOM     22  C   UNL     1       4.238  -3.593   7.859  0.00  0.00    +0.277 C 
ENDBRANCH  19  21
ENDBRANCH  11  15
BRANCH   1  24
ATOM     23  N   UNL     1      -0.043   0.669   2.090  0.00  0.00    -0.312 N 
ATOM     24  C   UNL     1       0.038  -0.653   2.340  0.00  0.00    +0.218 C 
ATOM     25  O   UNL     1      -0.479  -1.447   1.583  0.00  0.00    -0.275 OA
ATOM     26  H   UNL     1       0.370   1.304   2.695  0.00  0.00    +0.149 HD
BRANCH  23  28
ATOM     27  C   UNL     1      -2.249   1.263   1.216  0.00  0.00    +0.028 C 
ATOM     28  C   UNL     1      -0.756   1.146   0.902  0.00  0.00    +0.070 C 
BRANCH  28  29
ATOM     29  C   UNL     1      -0.212   2.518   0.497  0.00  0.00    +0.022 C 
BRANCH  29  30
ATOM     30  C   UNL     1       1.249   2.379   0.064  0.00  0.00    +0.005 C 
BRANCH  30  31
ATOM     31  C   UNL     1       1.794   3.750  -0.341  0.00  0.00    +0.034 C 
BRANCH  31  32
ATOM     32  C   UNL     1       3.254   3.611  -0.774  0.00  0.00    +0.061 C 
ATOM     33  C   UNL     1       3.836   4.997  -1.059  0.00  0.00    +0.041 C 
ATOM     34  C   UNL     1       4.056   2.942   0.344  0.00  0.00    +0.041 C 
BRANCH  32  35
ATOM     35  O   UNL     1       3.326   2.812  -1.956  0.00  0.00    -0.389 OA
ATOM     36  H   UNL     1       2.839   3.176  -2.708  0.00  0.00    +0.210 HD
ENDBRANCH  32  35
ENDBRANCH  31  32
ENDBRANCH  30  31
ENDBRANCH  29  30
ENDBRANCH  28  29
ENDBRANCH  23  28
ENDBRANCH   1  24
TORSDOF 9
