REMARK  Name = ZINC09794536
REMARK  9 active torsions:
REMARK  status: ('A' for Active; 'I' for Inactive)
REMARK    1  A    between atoms: C_1  and  C_2
REMARK    2  A    between atoms: C_9  and  C_11
REMARK    3  A    between atoms: N_13  and  N_14
REMARK    4  A    between atoms: N_17  and  C_18
REMARK    5  A    between atoms: C_18  and  C_19
REMARK    6  A    between atoms: C_19  and  C_21
REMARK    7  A    between atoms: C_19  and  N_26
REMARK    8  A    between atoms: N_26  and  C_27
REMARK    9  A    between atoms: N_26  and  C_28
REMARK                            x       y       z     vdW  Elec       q    Type
REMARK                         _______ _______ _______ _____ _____    ______ ____
ROOT
ATOM      1  N   UNL     1       1.977  -7.025   2.251  0.00  0.00    -0.218 N 
ATOM      2  C   UNL     1       1.620  -8.313   2.428  0.00  0.00    +0.316 C 
ATOM      3  O   UNL     1       2.208  -9.000   3.240  0.00  0.00    -0.251 OA
ATOM      4  N   UNL     1       0.611  -8.838   1.705  0.00  0.00    -0.299 N 
ATOM      5  H   UNL     1       2.703  -6.647   2.772  0.00  0.00    +0.174 HD
ATOM      6  H   UNL     1       0.141  -8.289   1.057  0.00  0.00    +0.150 HD
ENDROOT
BRANCH   1   9
ATOM      7  C   UNL     1       1.656  -4.945   1.139  0.00  0.00    +0.267 C 
ATOM      8  O   UNL     1       2.567  -4.471   1.792  0.00  0.00    -0.268 OA
ATOM      9  N   UNL     1       1.299  -6.232   1.316  0.00  0.00    -0.229 N 
ATOM     10  H   UNL     1       0.573  -6.610   0.795  0.00  0.00    +0.173 HD
BRANCH   7  18
ATOM     11  C   UNL     1      -0.314   0.816  -3.358  0.00  0.00    +0.008 C 
ATOM     12  C   UNL     1      -0.262  -0.662  -2.963  0.00  0.00    -0.009 C 
ATOM     13  C   UNL     1      -1.687  -1.213  -2.867  0.00  0.00    +0.009 C 
ATOM     14  C   UNL     1      -1.618  -2.741  -2.740  0.00  0.00    +0.043 C 
ATOM     15  C   UNL     1      -0.612  -3.084  -1.681  0.00  0.00    -0.006 A 
ATOM     16  C   UNL     1       0.325  -2.251  -1.146  0.00  0.00    -0.036 A 
ATOM     17  C   UNL     1       1.153  -2.789  -0.171  0.00  0.00    +0.024 A 
ATOM     18  C   UNL     1       0.947  -4.116   0.160  0.00  0.00    +0.076 A 
ATOM     19  S   UNL     1      -0.406  -4.554  -0.915  0.00  0.00    -0.088 S 
ATOM     20  C   UNL     1       0.439  -0.802  -1.611  0.00  0.00    +0.039 C 
ENDBRANCH   7  18
ENDBRANCH   1   9
BRANCH   4  21
ATOM     21  C   UNL     1       0.223 -10.237   1.897  0.00  0.00    +0.095 C 
BRANCH  21  22
ATOM     22  C   UNL     1      -1.019 -10.542   1.058  0.00  0.00    -0.014 C 
BRANCH  22  23
ATOM     23  C   UNL     1      -2.184  -9.736   1.572  0.00  0.00    -0.022 A 
ATOM     24  C   UNL     1      -2.706  -8.584   1.084  0.00  0.00    +0.009 A 
ATOM     25  C   UNL     1      -3.790  -8.014   1.726  0.00  0.00    +0.008 A 
ATOM     26  C   UNL     1      -4.298  -8.625   2.825  0.00  0.00    +0.045 A 
ATOM     27  S   UNL     1      -3.239 -10.053   2.977  0.00  0.00    -0.103 S 
ENDBRANCH  22  23
BRANCH  22  28
ATOM     28  N   UNL     1      -1.335 -11.973   1.152  0.00  0.00    +0.382 N 
ATOM     29  C   UNL     1      -2.568 -12.253   0.404  0.00  0.00    -0.096 C 
ATOM     30  C   UNL     1      -0.230 -12.757   0.585  0.00  0.00    -0.096 C 
ATOM     31  H   UNL     1      -1.465 -12.226   2.121  0.00  0.00    -0.082 HD
ENDBRANCH  22  28
ENDBRANCH  21  22
ENDBRANCH   4  21
TORSDOF 6
