REMARK  Name = ZINC39923298
REMARK  7 active torsions:
REMARK  status: ('A' for Active; 'I' for Inactive)
REMARK    1  A    between atoms: C_1  and  C_2
REMARK    2  A    between atoms: C_7  and  N_8
REMARK    3  A    between atoms: C_9  and  S_20
REMARK    4  A    between atoms: S_20  and  C_21
REMARK    5  A    between atoms: C_21  and  C_22
REMARK    6  A    between atoms: N_24  and  N_25
REMARK    7  A    between atoms: C_26  and  C_27
REMARK                            x       y       z     vdW  Elec       q    Type
REMARK                         _______ _______ _______ _____ _____    ______ ____
ROOT
ATOM      1  N   UNL     1       0.025  -0.015   2.417  0.00  0.00    -0.239 N 
ATOM      2  C   UNL     1      -1.248   0.317   3.057  0.00  0.00    +0.227 C 
ATOM      3  N   UNL     1      -1.137   1.587   3.783  0.00  0.00    -0.317 N 
ATOM      4  C   UNL     1      -0.001   1.822   4.550  0.00  0.00    +0.041 A 
ATOM      5  C   UNL     1      -0.034   2.633   5.671  0.00  0.00    +0.024 A 
ATOM      6  C   UNL     1       1.123   2.847   6.396  0.00  0.00    +0.002 A 
ATOM      7  C   UNL     1       2.316   2.256   6.008  0.00  0.00    +0.001 A 
ATOM      8  C   UNL     1       2.365   1.441   4.896  0.00  0.00    +0.015 A 
ATOM      9  C   UNL     1       1.204   1.213   4.160  0.00  0.00    +0.058 A 
ATOM     10  C   UNL     1       1.200   0.328   2.981  0.00  0.00    +0.255 C 
ATOM     11  O   UNL     1       2.246  -0.087   2.520  0.00  0.00    -0.269 OA
ATOM     12  H   UNL     1      -1.843   2.250   3.730  0.00  0.00    +0.149 HD
ENDROOT
BRANCH   1  19
ATOM     13  C   UNL     1      -0.018   1.503   0.010  0.00  0.00    +0.045 C 
ATOM     14  C   UNL     1       0.002  -0.004   0.002  0.00  0.00    -0.029 A 
ATOM     15  C   UNL     1       0.006  -0.689  -1.198  0.00  0.00    +0.005 A 
ATOM     16  C   UNL     1       0.025  -2.071  -1.206  0.00  0.00    +0.000 A 
ATOM     17  C   UNL     1       0.040  -2.773  -0.014  0.00  0.00    +0.002 A 
ATOM     18  C   UNL     1       0.036  -2.095   1.188  0.00  0.00    +0.024 A 
ATOM     19  C   UNL     1       0.023  -0.706   1.200  0.00  0.00    +0.042 A 
ENDBRANCH   1  19
BRANCH   2  20
ATOM     20  S   UNL     1      -1.696  -1.000   4.221  0.00  0.00    -0.110 S 
BRANCH  20  21
ATOM     21  C   UNL     1      -0.321  -1.026   5.404  0.00  0.00    +0.170 C 
BRANCH  21  22
ATOM     22  C   UNL     1      -0.570  -2.091   6.441  0.00  0.00    +0.242 C 
ATOM     23  O   UNL     1      -1.576  -2.766   6.387  0.00  0.00    -0.273 OA
ATOM     24  N   UNL     1       0.325  -2.293   7.428  0.00  0.00    -0.206 N 
ATOM     25  H   UNL     1       1.130  -1.754   7.471  0.00  0.00    +0.177 HD
BRANCH  24  26
ATOM     26  N   UNL     1       0.093  -3.283   8.391  0.00  0.00    -0.188 NA
ATOM     27  C   UNL     1       0.963  -3.480   9.350  0.00  0.00    +0.136 C 
BRANCH  27  28
ATOM     28  C   UNL     1       0.731  -4.471  10.315  0.00  0.00    +0.000 C 
ATOM     29  C   UNL     1       1.546  -4.802  11.395  0.00  0.00    +0.004 A 
ATOM     30  C   UNL     1       2.783  -4.293  11.848  0.00  0.00    +0.010 A 
ATOM     31  C   UNL     1       3.362  -4.821  12.956  0.00  0.00    +0.001 A 
ATOM     32  C   UNL     1       2.763  -5.863  13.670  0.00  0.00    +0.002 A 
ATOM     33  C   UNL     1       1.578  -6.400  13.294  0.00  0.00    +0.026 A 
ATOM     34  C   UNL     1       0.910  -5.901  12.143  0.00  0.00    +0.043 A 
ATOM     35  N   UNL     1      -0.228  -6.244  11.579  0.00  0.00    -0.380 N 
ATOM     36  C   UNL     1      -0.460  -5.400  10.404  0.00  0.00    +0.150 C 
ATOM     37  H   UNL     1      -0.822  -6.944  11.895  0.00  0.00    +0.160 HD
ENDBRANCH  27  28
ENDBRANCH  24  26
ENDBRANCH  21  22
ENDBRANCH  20  21
ENDBRANCH   2  20
TORSDOF 6
