REMARK  Name = ZINC05343230
REMARK  7 active torsions:
REMARK  status: ('A' for Active; 'I' for Inactive)
REMARK    1  A    between atoms: C_1  and  C_2
REMARK    2  A    between atoms: C_5  and  C_10
REMARK    3  A    between atoms: C_6  and  O_9
REMARK    4  A    between atoms: C_7  and  C_8
REMARK    5  A    between atoms: C_12  and  C_16
REMARK    6  A    between atoms: N_18  and  C_19
REMARK    7  A    between atoms: C_24  and  C_25
REMARK                            x       y       z     vdW  Elec       q    Type
REMARK                         _______ _______ _______ _____ _____    ______ ____
ROOT
ATOM      1  C   UNL     1       0.037  -4.256  -0.013  0.00  0.00    +0.070 A 
ATOM      2  C   UNL     1      -0.650  -5.073  -0.867  0.00  0.00    +0.062 A 
ATOM      3  C   UNL     1      -0.301  -6.389  -0.491  0.00  0.00    +0.148 A 
ATOM      4  N   UNL     1       0.537  -6.298   0.522  0.00  0.00    -0.169 NA
ATOM      5  N   UNL     1       0.755  -5.067   0.816  0.00  0.00    -0.276 N 
ATOM      6  H   UNL     1       1.341  -4.760   1.525  0.00  0.00    +0.189 HD
ENDROOT
BRANCH   1  11
ATOM      7  C   UNL     1      -0.065   1.502   0.053  0.00  0.00    +0.044 C 
ATOM      8  C   UNL     1      -0.039  -0.005   0.038  0.00  0.00    -0.044 A 
ATOM      9  C   UNL     1      -0.025  -0.682  -1.169  0.00  0.00    +0.004 A 
ATOM     10  C   UNL     1      -0.001  -2.062  -1.191  0.00  0.00    +0.014 A 
ATOM     11  C   UNL     1       0.011  -2.777   0.005  0.00  0.00    +0.041 A 
ATOM     12  C   UNL     1      -0.002  -2.089   1.224  0.00  0.00    +0.129 A 
ATOM     13  C   UNL     1      -0.022  -0.704   1.231  0.00  0.00    -0.005 A 
ATOM     14  C   UNL     1      -0.031   0.042   2.540  0.00  0.00    +0.048 C 
BRANCH  12  15
ATOM     15  O   UNL     1       0.009  -2.777   2.396  0.00  0.00    -0.506 OA
ATOM     16  H   UNL     1       0.895  -2.960   2.736  0.00  0.00    +0.292 HD
ENDBRANCH  12  15
ENDBRANCH   1  11
BRANCH   3  17
ATOM     17  C   UNL     1      -0.787  -7.635  -1.117  0.00  0.00    +0.268 C 
ATOM     18  O   UNL     1      -1.564  -7.584  -2.051  0.00  0.00    -0.268 OA
ATOM     19  N   UNL     1      -0.369  -8.830  -0.653  0.00  0.00    -0.280 N 
ATOM     20  H   UNL     1       0.311  -8.870   0.037  0.00  0.00    +0.155 HD
BRANCH  19  21
ATOM     21  C   UNL     1      -0.915 -10.010  -1.168  0.00  0.00    +0.045 A 
ATOM     22  C   UNL     1      -2.183 -10.001  -1.734  0.00  0.00    +0.024 A 
ATOM     23  C   UNL     1      -2.719 -11.168  -2.242  0.00  0.00    +0.002 A 
ATOM     24  C   UNL     1      -1.995 -12.345  -2.186  0.00  0.00    +0.001 A 
ATOM     25  C   UNL     1      -0.733 -12.357  -1.623  0.00  0.00    +0.014 A 
ATOM     26  C   UNL     1      -0.188 -11.192  -1.118  0.00  0.00    +0.076 A 
BRANCH  26  27
ATOM     27  C   UNL     1       1.190 -11.206  -0.509  0.00  0.00    +0.419 C 
ATOM     28  F   UNL     1       1.716 -12.500  -0.574  0.00  0.00    -0.166 F 
ATOM     29  F   UNL     1       2.020 -10.329  -1.215  0.00  0.00    -0.166 F 
ATOM     30  F   UNL     1       1.113 -10.800   0.828  0.00  0.00    -0.166 F 
ENDBRANCH  26  27
ENDBRANCH  19  21
ENDBRANCH   3  17
TORSDOF 5
