REMARK  Name = ZINC39662605
REMARK  5 active torsions:
REMARK  status: ('A' for Active; 'I' for Inactive)
REMARK    1  A    between atoms: C_4  and  C_7
REMARK    2  A    between atoms: C_7  and  C_9
REMARK    3  A    between atoms: C_7  and  N_11
REMARK    4  A    between atoms: C_12  and  C_14
REMARK    5  A    between atoms: C_25  and  C_27
REMARK                            x       y       z     vdW  Elec       q    Type
REMARK                         _______ _______ _______ _____ _____    ______ ____
ROOT
ATOM      1  C   UNL     1       4.662  -3.578   2.291  0.00  0.00    +0.100 C 
ATOM      2  C   UNL     1       4.007  -4.775   1.565  0.00  0.00    +0.121 C 
ATOM      3  N   UNL     1       5.147  -5.558   1.032  0.00  0.00    -0.295 N 
ATOM      4  C   UNL     1       6.168  -5.499   2.104  0.00  0.00    +0.115 C 
ATOM      5  C   UNL     1       6.079  -4.059   2.647  0.00  0.00    -0.004 C 
ATOM      6  C   UNL     1       6.275  -4.051   4.159  0.00  0.00    -0.010 C 
ATOM      7  C   UNL     1       7.710  -4.476   4.486  0.00  0.00    -0.082 C 
ATOM      8  N   UNL     1       8.654  -3.553   3.844  0.00  0.00    +0.379 N 
ATOM      9  C   UNL     1       8.522  -3.636   2.385  0.00  0.00    -0.082 C 
ATOM     10  C   UNL     1       7.122  -3.175   1.970  0.00  0.00    -0.010 C 
ATOM     11  C   UNL     1       5.234  -6.183  -0.159  0.00  0.00    +0.265 C 
ATOM     12  O   UNL     1       4.346  -6.057  -0.978  0.00  0.00    -0.268 OA
ATOM     13  H   UNL     1       8.457  -2.610   4.145  0.00  0.00    -0.086 HD
ATOM     14  H   UNL     1       9.595  -3.799   4.110  0.00  0.00    -0.086 HD
ENDROOT
BRANCH  11  15
ATOM     15  C   UNL     1       6.415  -7.025  -0.470  0.00  0.00    +0.126 A 
ATOM     16  C   UNL     1       6.547  -7.572  -1.754  0.00  0.00    +0.033 A 
ATOM     17  C   UNL     1       7.630  -8.348  -2.053  0.00  0.00    +0.012 A 
ATOM     18  C   UNL     1       8.587  -8.573  -1.046  0.00  0.00    +0.000 A 
ATOM     19  C   UNL     1       9.725  -9.361  -1.284  0.00  0.00    +0.010 A 
ATOM     20  C   UNL     1      10.629  -9.556  -0.285  0.00  0.00    +0.001 A 
ATOM     21  C   UNL     1      10.442  -8.985   0.973  0.00  0.00    +0.002 A 
ATOM     22  C   UNL     1       9.352  -8.217   1.240  0.00  0.00    +0.028 A 
ATOM     23  C   UNL     1       8.393  -7.990   0.234  0.00  0.00    +0.072 A 
ATOM     24  N   UNL     1       7.319  -7.237   0.467  0.00  0.00    -0.242 NA
ENDBRANCH  11  15
BRANCH   1  26
ATOM     25  N   UNL     1       4.664  -1.138   1.889  0.00  0.00    -0.296 N 
ATOM     26  C   UNL     1       4.727  -2.382   1.376  0.00  0.00    +0.219 C 
ATOM     27  O   UNL     1       4.837  -2.540   0.179  0.00  0.00    -0.275 OA
ATOM     28  H   UNL     1       4.576  -1.012   2.847  0.00  0.00    +0.150 HD
BRANCH  25  29
ATOM     29  C   UNL     1       4.728   0.025   1.000  0.00  0.00    +0.207 C 
BRANCH  29  33
ATOM     30  C   UNL     1       6.194   3.400   3.171  0.00  0.00    +0.000 A 
ATOM     31  C   UNL     1       6.609   3.181   1.870  0.00  0.00    +0.000 A 
ATOM     32  C   UNL     1       6.134   2.089   1.168  0.00  0.00    +0.006 A 
ATOM     33  C   UNL     1       5.246   1.215   1.766  0.00  0.00    -0.013 A 
ATOM     34  C   UNL     1       4.831   1.434   3.067  0.00  0.00    +0.006 A 
ATOM     35  C   UNL     1       5.304   2.526   3.769  0.00  0.00    +0.000 A 
ENDBRANCH  29  33
BRANCH  29  36
ATOM     36  C   UNL     1       3.382   0.322   0.483  0.00  0.00    +0.090 C 
ATOM     37  N   UNL     1       2.343   0.551   0.084  0.00  0.00    -0.194 NA
ENDBRANCH  29  36
ENDBRANCH  25  29
ENDBRANCH   1  26
TORSDOF 5
