REMARK  Name = ZINC64052283
REMARK  11 active torsions:
REMARK  status: ('A' for Active; 'I' for Inactive)
REMARK    1  A    between atoms: C_1  and  C_2
REMARK    2  A    between atoms: C_2  and  C_4
REMARK    3  A    between atoms: C_2  and  O_33
REMARK    4  A    between atoms: C_4  and  C_6
REMARK    5  A    between atoms: C_4  and  N_21
REMARK    6  A    between atoms: C_6  and  O_8
REMARK    7  A    between atoms: O_8  and  C_9
REMARK    8  A    between atoms: C_9  and  C_10
REMARK    9  A    between atoms: C_10  and  C_12
REMARK   10  A    between atoms: N_21  and  S_22
REMARK   11  A    between atoms: S_22  and  C_25
REMARK                            x       y       z     vdW  Elec       q    Type
REMARK                         _______ _______ _______ _____ _____    ______ ____
ROOT
ATOM      1  C   UNL     1       0.742  -0.511   1.242  0.00  0.00    +0.213 C 
ENDROOT
BRANCH   1   3
ATOM      2  C   UNL     1      -0.019   1.526   0.010  0.00  0.00    +0.040 C 
ATOM      3  C   UNL     1       0.002  -0.004   0.002  0.00  0.00    +0.141 C 
BRANCH   3   4
ATOM      4  O   UNL     1       0.671  -0.465  -1.174  0.00  0.00    -0.390 OA
ATOM      5  H   UNL     1       1.588  -0.167  -1.247  0.00  0.00    +0.210 HD
ENDBRANCH   3   4
ENDBRANCH   1   3
BRANCH   1   6
ATOM      6  C   UNL     1       0.870  -2.011   1.172  0.00  0.00    +0.329 C 
ATOM      7  O   UNL     1       1.964  -2.524   1.166  0.00  0.00    -0.249 OA
BRANCH   6   8
ATOM      8  O   UNL     1      -0.231  -2.776   1.116  0.00  0.00    -0.455 OA
BRANCH   8   9
ATOM      9  C   UNL     1      -0.035  -4.191   1.052  0.00  0.00    +0.311 C 
BRANCH   9  10
ATOM     10  C   UNL     1      -1.374  -4.881   0.995  0.00  0.00    +0.199 C 
ATOM     11  O   UNL     1      -2.396  -4.225   1.009  0.00  0.00    -0.289 OA
BRANCH  10  12
ATOM     12  C   UNL     1      -1.439  -6.289   0.926  0.00  0.00    +0.026 C 
ATOM     13  C   UNL     1      -2.578  -7.071   0.864  0.00  0.00    +0.006 A 
ATOM     14  C   UNL     1      -3.959  -6.762   0.848  0.00  0.00    +0.010 A 
ATOM     15  C   UNL     1      -4.878  -7.750   0.780  0.00  0.00    +0.001 A 
ATOM     16  C   UNL     1      -4.522  -9.107   0.723  0.00  0.00    +0.002 A 
ATOM     17  C   UNL     1      -3.233  -9.510   0.733  0.00  0.00    +0.026 A 
ATOM     18  C   UNL     1      -2.168  -8.496   0.804  0.00  0.00    +0.043 A 
ATOM     19  N   UNL     1      -0.870  -8.598   0.828  0.00  0.00    -0.380 N 
ATOM     20  C   UNL     1      -0.278  -7.258   0.900  0.00  0.00    +0.152 C 
ATOM     21  H   UNL     1      -0.372  -9.430   0.800  0.00  0.00    +0.160 HD
ENDBRANCH  10  12
ENDBRANCH   9  10
ENDBRANCH   8   9
ENDBRANCH   6   8
ENDBRANCH   1   6
BRANCH   1  22
ATOM     22  N   UNL     1       2.077   0.091   1.294  0.00  0.00    -0.174 NA
ATOM     23  H   UNL     1       2.811  -0.313   0.805  0.00  0.00    +0.149 HD
BRANCH  22  24
ATOM     24  S   UNL     1       2.332   1.462   2.188  0.00  0.00    +0.059 S 
ATOM     25  O   UNL     1       3.712   1.778   2.060  0.00  0.00    -0.153 OA
ATOM     26  O   UNL     1       1.305   2.376   1.831  0.00  0.00    -0.153 OA
BRANCH  24  27
ATOM     27  C   UNL     1       2.067   1.039   3.877  0.00  0.00    +0.107 A 
ATOM     28  C   UNL     1       0.804   1.155   4.428  0.00  0.00    +0.030 A 
ATOM     29  C   UNL     1       0.595   0.824   5.754  0.00  0.00    +0.023 A 
ATOM     30  C   UNL     1       1.648   0.376   6.530  0.00  0.00    +0.059 A 
ATOM     31  C   UNL     1       2.913   0.258   5.978  0.00  0.00    +0.061 A 
ATOM     32  C   UNL     1       3.119   0.585   4.649  0.00  0.00    +0.050 A 
ATOM     33 CL   UNL     1       4.236  -0.304   6.950  0.00  0.00    -0.082 Cl
ATOM     34 CL   UNL     1       1.386  -0.040   8.195  0.00  0.00    -0.082 Cl
ENDBRANCH  24  27
ENDBRANCH  22  24
ENDBRANCH   1  22
TORSDOF 10
