REMARK  Name = ZINC62734777
REMARK  11 active torsions:
REMARK  status: ('A' for Active; 'I' for Inactive)
REMARK    1  A    between atoms: C_1  and  C_2
REMARK    2  A    between atoms: C_10  and  C_12
REMARK    3  A    between atoms: C_12  and  N_13
REMARK    4  A    between atoms: N_13  and  C_14
REMARK    5  A    between atoms: N_13  and  C_15
REMARK    6  A    between atoms: C_15  and  C_16
REMARK    7  A    between atoms: N_18  and  C_19
REMARK    8  A    between atoms: N_18  and  C_20
REMARK    9  A    between atoms: C_21  and  N_36
REMARK   10  A    between atoms: N_22  and  C_29
REMARK   11  A    between atoms: C_29  and  C_30
REMARK                            x       y       z     vdW  Elec       q    Type
REMARK                         _______ _______ _______ _____ _____    ______ ____
ROOT
ATOM      1  C   UNL     1      -2.362  -6.013   5.514  0.00  0.00    +0.234 C 
ATOM      2  O   UNL     1      -3.222  -5.846   4.675  0.00  0.00    -0.274 OA
ATOM      3  N   UNL     1      -2.430  -7.072   6.348  0.00  0.00    -0.266 N 
ATOM      4  C   UNL     1      -1.342  -7.330   7.295  0.00  0.00    +0.138 C 
ENDROOT
BRANCH   3   5
ATOM      5  C   UNL     1      -3.549  -7.930   6.309  0.00  0.00    +0.139 A 
ATOM      6  C   UNL     1      -3.796  -8.712   5.199  0.00  0.00    +0.128 A 
ATOM      7  N   UNL     1      -4.895  -9.539   5.191  0.00  0.00    -0.276 N 
ATOM      8  C   UNL     1      -5.720  -9.585   6.253  0.00  0.00    +0.331 A 
ATOM      9  O   UNL     1      -6.686 -10.323   6.226  0.00  0.00    -0.246 OA
ATOM     10  N   UNL     1      -5.496  -8.830   7.343  0.00  0.00    -0.273 N 
ATOM     11  H   UNL     1      -6.106  -8.882   8.095  0.00  0.00    +0.173 HD
ATOM     12  C   UNL     1      -4.431  -8.007   7.404  0.00  0.00    +0.277 A 
ATOM     13  O   UNL     1      -4.234  -7.330   8.399  0.00  0.00    -0.266 OA
BRANCH   6  14
ATOM     14  N   UNL     1      -2.953  -8.665   4.115  0.00  0.00    -0.343 N 
ATOM     15  H   UNL     1      -2.216  -8.034   4.100  0.00  0.00    +0.144 HD
ATOM     16  H   UNL     1      -3.095  -9.262   3.364  0.00  0.00    +0.144 HD
ENDBRANCH   6  14
BRANCH   7  17
ATOM     17  C   UNL     1      -5.168 -10.374   4.019  0.00  0.00    +0.163 C 
BRANCH  17  18
ATOM     18  C   UNL     1      -4.480 -11.706   4.179  0.00  0.00    -0.028 A 
ATOM     19  C   UNL     1      -3.188 -11.876   3.718  0.00  0.00    +0.005 A 
ATOM     20  C   UNL     1      -2.557 -13.097   3.865  0.00  0.00    +0.000 A 
ATOM     21  C   UNL     1      -3.218 -14.148   4.474  0.00  0.00    +0.000 A 
ATOM     22  C   UNL     1      -4.509 -13.977   4.936  0.00  0.00    +0.000 A 
ATOM     23  C   UNL     1      -5.139 -12.755   4.793  0.00  0.00    +0.005 A 
ENDBRANCH  17  18
ENDBRANCH   7  17
ENDBRANCH   3   5
BRANCH   1  24
ATOM     24  C   UNL     1      -1.218  -5.038   5.626  0.00  0.00    +0.181 C 
BRANCH  24  25
ATOM     25  N   UNL     1      -1.373  -3.984   4.615  0.00  0.00    -0.291 NA
ATOM     26  C   UNL     1      -2.560  -3.163   4.888  0.00  0.00    +0.105 C 
BRANCH  25  27
ATOM     27  C   UNL     1      -0.165  -3.152   4.533  0.00  0.00    +0.138 C 
BRANCH  27  37
ATOM     28  C   UNL     1      -0.595   1.565  -0.084  0.00  0.00    +0.064 C 
ATOM     29  C   UNL     1      -0.510   0.060  -0.083  0.00  0.00    +0.033 A 
ATOM     30  C   UNL     1      -0.508  -0.597  -1.243  0.00  0.00    +0.070 A 
ATOM     31  S   UNL     1      -0.395  -2.295  -0.701  0.00  0.00    -0.059 S 
ATOM     32  C   UNL     1      -0.359  -1.978   1.050  0.00  0.00    +0.158 A 
ATOM     33  N   UNL     1      -0.430  -0.612   1.113  0.00  0.00    -0.261 N 
ATOM     34  C   UNL     1      -0.417  -0.058   2.362  0.00  0.00    +0.259 A 
ATOM     35  O   UNL     1      -0.482   1.154   2.494  0.00  0.00    -0.267 OA
ATOM     36  C   UNL     1      -0.331  -0.879   3.487  0.00  0.00    +0.093 A 
ATOM     37  C   UNL     1      -0.259  -2.247   3.331  0.00  0.00    +0.037 A 
ATOM     38  N   UNL     1      -0.283  -2.755   2.102  0.00  0.00    -0.337 N 
ATOM     39  H   UNL     1      -0.232  -3.716   1.981  0.00  0.00    +0.168 HD
ENDBRANCH  27  37
ENDBRANCH  25  27
ENDBRANCH  24  25
ENDBRANCH   1  24
TORSDOF 8
