REMARK  Name = ZINC67145524
REMARK  7 active torsions:
REMARK  status: ('A' for Active; 'I' for Inactive)
REMARK    1  A    between atoms: C_1  and  C_2
REMARK    2  A    between atoms: N_4  and  C_5
REMARK    3  A    between atoms: C_5  and  C_7
REMARK    4  A    between atoms: C_5  and  C_19
REMARK    5  A    between atoms: C_7  and  C_8
REMARK    6  A    between atoms: N_10  and  C_11
REMARK    7  A    between atoms: C_16  and  O_17
REMARK                            x       y       z     vdW  Elec       q    Type
REMARK                         _______ _______ _______ _____ _____    ______ ____
ROOT
ATOM      1  C   UNL     1      -1.212  -2.251  -2.476  0.00  0.00    +0.219 C 
ATOM      2  O   UNL     1      -2.251  -1.638  -2.350  0.00  0.00    -0.275 OA
ATOM      3  N   UNL     1      -0.773  -2.588  -3.705  0.00  0.00    -0.282 N 
ATOM      4  H   UNL     1       0.088  -3.021  -3.811  0.00  0.00    +0.155 HD
ENDROOT
BRANCH   3   5
ATOM      5  C   UNL     1      -1.563  -2.314  -4.830  0.00  0.00    +0.077 A 
ATOM      6  C   UNL     1      -2.348  -1.171  -4.867  0.00  0.00    +0.047 A 
ATOM      7  C   UNL     1      -3.125  -0.903  -5.979  0.00  0.00    +0.043 A 
ATOM      8  C   UNL     1      -3.123  -1.773  -7.055  0.00  0.00    +0.023 A 
ATOM      9  C   UNL     1      -2.343  -2.914  -7.024  0.00  0.00    +0.049 A 
ATOM     10  C   UNL     1      -1.557  -3.187  -5.916  0.00  0.00    +0.138 A 
ATOM     11 CL   UNL     1      -4.107   0.528  -6.024  0.00  0.00    -0.083 Cl
BRANCH  10  12
ATOM     12  O   UNL     1      -0.784  -4.306  -5.887  0.00  0.00    -0.505 OA
ATOM     13  H   UNL     1      -1.230  -5.081  -5.519  0.00  0.00    +0.292 HD
ENDBRANCH  10  12
ENDBRANCH   3   5
BRANCH   1  14
ATOM     14  C   UNL     1      -0.411  -2.635  -1.258  0.00  0.00    +0.123 C 
BRANCH  14  15
ATOM     15  C   UNL     1      -1.124  -2.135  -0.000  0.00  0.00    +0.118 C 
BRANCH  15  19
ATOM     16  C   UNL     1      -0.020   1.530  -0.020  0.00  0.00    +0.109 C 
ATOM     17  C   UNL     1       0.006   0.023  -0.018  0.00  0.00    +0.210 C 
ATOM     18  O   UNL     1       1.066  -0.565  -0.031  0.00  0.00    -0.276 OA
ATOM     19  N   UNL     1      -1.149  -0.671  -0.002  0.00  0.00    -0.308 N 
ATOM     20  H   UNL     1      -1.998  -0.200   0.009  0.00  0.00    +0.149 HD
ENDBRANCH  15  19
BRANCH  15  21
ATOM     21  C   UNL     1      -0.389  -2.624   1.221  0.00  0.00    +0.010 A 
ATOM     22  C   UNL     1      -0.676  -3.676   2.026  0.00  0.00    +0.013 A 
ATOM     23  C   UNL     1       0.149  -3.941   3.103  0.00  0.00    +0.008 A 
ATOM     24  C   UNL     1       1.220  -3.140   3.323  0.00  0.00    +0.045 A 
ATOM     25  S   UNL     1       1.089  -1.971   1.980  0.00  0.00    -0.100 S 
ENDBRANCH  15  21
ENDBRANCH  14  15
ENDBRANCH   1  14
TORSDOF 6
