REMARK  Name = ZINC01776469
REMARK  10 active torsions:
REMARK  status: ('A' for Active; 'I' for Inactive)
REMARK    1  A    between atoms: C_1  and  O_2
REMARK    2  A    between atoms: O_2  and  C_3
REMARK    3  A    between atoms: C_3  and  C_5
REMARK    4  A    between atoms: C_8  and  C_11
REMARK    5  A    between atoms: N_12  and  N_13
REMARK    6  A    between atoms: C_14  and  C_16
REMARK    7  A    between atoms: C_16  and  S_17
REMARK    8  A    between atoms: S_17  and  C_18
REMARK    9  A    between atoms: C_21  and  C_30
REMARK   10  A    between atoms: N_22  and  C_23
REMARK                            x       y       z     vdW  Elec       q    Type
REMARK                         _______ _______ _______ _____ _____    ______ ____
ROOT
ATOM      1  C   UNL     1       3.038 -12.688   4.830  0.00  0.00    +0.197 A 
ATOM      2  N   UNL     1       2.502 -13.423   3.881  0.00  0.00    -0.122 NA
ATOM      3  N   UNL     1       2.671 -14.671   4.140  0.00  0.00    -0.128 NA
ATOM      4  C   UNL     1       3.326 -14.811   5.270  0.00  0.00    +0.169 A 
ATOM      5  N   UNL     1       3.586 -13.544   5.745  0.00  0.00    -0.270 N 
ENDROOT
BRANCH   5   6
ATOM      6  C   UNL     1       4.268 -13.204   6.922  0.00  0.00    +0.051 A 
ATOM      7  C   UNL     1       5.617 -13.507   7.056  0.00  0.00    +0.028 A 
ATOM      8  C   UNL     1       6.286 -13.170   8.216  0.00  0.00    +0.022 A 
ATOM      9  C   UNL     1       5.615 -12.531   9.244  0.00  0.00    +0.041 A 
ATOM     10  C   UNL     1       4.271 -12.229   9.112  0.00  0.00    +0.022 A 
ATOM     11  C   UNL     1       3.598 -12.558   7.952  0.00  0.00    +0.028 A 
ATOM     12 CL   UNL     1       6.459 -12.110  10.701  0.00  0.00    -0.084 Cl
ENDBRANCH   5   6
BRANCH   4  13
ATOM     13  C   UNL     1       3.714 -16.086   5.908  0.00  0.00    +0.020 A 
ATOM     14  C   UNL     1       4.117 -16.106   7.244  0.00  0.00    +0.013 A 
ATOM     15  C   UNL     1       4.478 -17.299   7.835  0.00  0.00    +0.021 A 
ATOM     16  C   UNL     1       4.441 -18.476   7.105  0.00  0.00    +0.041 A 
ATOM     17  C   UNL     1       4.042 -18.462   5.779  0.00  0.00    +0.021 A 
ATOM     18  C   UNL     1       3.673 -17.276   5.179  0.00  0.00    +0.013 A 
ATOM     19 CL   UNL     1       4.896 -19.974   7.854  0.00  0.00    -0.084 Cl
ENDBRANCH   4  13
BRANCH   1  20
ATOM     20  S   UNL     1       3.053 -10.927   4.904  0.00  0.00    -0.076 S 
BRANCH  20  21
ATOM     21  C   UNL     1       2.169 -10.417   3.405  0.00  0.00    +0.174 C 
BRANCH  21  23
ATOM     22  N   UNL     1       1.495  -8.303   2.311  0.00  0.00    -0.206 N 
ATOM     23  C   UNL     1       2.109  -8.912   3.345  0.00  0.00    +0.242 C 
ATOM     24  O   UNL     1       2.614  -8.249   4.227  0.00  0.00    -0.273 OA
ATOM     25  H   UNL     1       1.092  -8.833   1.606  0.00  0.00    +0.177 HD
BRANCH  22  27
ATOM     26  C   UNL     1       0.849  -6.317   1.260  0.00  0.00    +0.138 C 
ATOM     27  N   UNL     1       1.440  -6.904   2.255  0.00  0.00    -0.188 NA
BRANCH  26  31
ATOM     28  C   UNL     1       0.680  -2.086   1.091  0.00  0.00    +0.059 A 
ATOM     29  C   UNL     1       0.099  -2.850   0.074  0.00  0.00    +0.015 A 
ATOM     30  C   UNL     1       0.153  -4.214   0.128  0.00  0.00    +0.010 A 
ATOM     31  C   UNL     1       0.790  -4.846   1.201  0.00  0.00    -0.005 A 
ATOM     32  C   UNL     1       1.371  -4.082   2.218  0.00  0.00    +0.010 A 
ATOM     33  C   UNL     1       1.322  -2.718   2.161  0.00  0.00    +0.015 A 
BRANCH  28  34
ATOM     34  C   UNL     1       0.621  -0.613   1.033  0.00  0.00    +0.339 C 
ATOM     35  O   UNL     1       1.129   0.051   1.914  0.00  0.00    -0.245 OA
BRANCH  34  37
ATOM     36  C   UNL     1      -0.017   1.425   0.010  0.00  0.00    +0.280 C 
ATOM     37  O   UNL     1       0.002  -0.004   0.002  0.00  0.00    -0.464 OA
ENDBRANCH  34  37
ENDBRANCH  28  34
ENDBRANCH  26  31
ENDBRANCH  22  27
ENDBRANCH  21  23
ENDBRANCH  20  21
ENDBRANCH   1  20
TORSDOF 9
