REMARK  Name = ZINC40900283
REMARK  14 active torsions:
REMARK  status: ('A' for Active; 'I' for Inactive)
REMARK    1  A    between atoms: C_1  and  C_2
REMARK    2  A    between atoms: C_2  and  O_3
REMARK    3  A    between atoms: O_3  and  C_4
REMARK    4  A    between atoms: C_4  and  C_6
REMARK    5  A    between atoms: C_7  and  C_27
REMARK    6  A    between atoms: C_10  and  N_11
REMARK    7  A    between atoms: N_11  and  C_12
REMARK    8  A    between atoms: C_12  and  N_14
REMARK    9  A    between atoms: C_15  and  C_17
REMARK   10  A    between atoms: C_17  and  C_18
REMARK   11  A    between atoms: C_18  and  C_19
REMARK   12  A    between atoms: C_19  and  O_20
REMARK   13  A    between atoms: O_20  and  C_21
REMARK   14  A    between atoms: C_31  and  N_33
REMARK                            x       y       z     vdW  Elec       q    Type
REMARK                         _______ _______ _______ _____ _____    ______ ____
ROOT
ATOM      1  C   UNL     1       1.496  -2.370   2.465  0.00  0.00    +0.095 A 
ATOM      2  C   UNL     1       0.793  -2.684   3.698  0.00  0.00    +0.005 A 
ATOM      3  C   UNL     1       1.563  -3.195   4.693  0.00  0.00    +0.056 A 
ATOM      4  S   UNL     1       3.188  -3.244   3.970  0.00  0.00    -0.080 S 
ATOM      5  C   UNL     1       2.857  -2.631   2.445  0.00  0.00    +0.086 A 
ENDROOT
BRANCH   2   6
ATOM      6  C   UNL     1      -0.663  -2.461   3.858  0.00  0.00    -0.014 A 
ATOM      7  C   UNL     1      -1.225  -1.232   3.514  0.00  0.00    +0.009 A 
ATOM      8  C   UNL     1      -2.582  -1.030   3.666  0.00  0.00    +0.003 A 
ATOM      9  C   UNL     1      -3.384  -2.045   4.157  0.00  0.00    +0.033 A 
ATOM     10  C   UNL     1      -2.832  -3.266   4.500  0.00  0.00    +0.127 A 
ATOM     11  C   UNL     1      -1.478  -3.481   4.347  0.00  0.00    +0.041 A 
BRANCH  10  12
ATOM     12  N   UNL     1      -3.697  -4.346   5.026  0.00  0.00    +0.056 N 
ATOM     13  O   UNL     1      -4.885  -4.160   5.156  0.00  0.00    -0.126 OA
ATOM     14  O   UNL     1      -3.216  -5.414   5.326  0.00  0.00    -0.126 OA
ENDBRANCH  10  12
ENDBRANCH   2   6
BRANCH   1  15
ATOM     15  C   UNL     1       0.801  -1.814   1.305  0.00  0.00    +0.342 C 
ATOM     16  O   UNL     1       0.321  -2.558   0.470  0.00  0.00    -0.245 OA
BRANCH  15  17
ATOM     17  O   UNL     1       0.693  -0.477   1.160  0.00  0.00    -0.461 OA
BRANCH  17  19
ATOM     18  C   UNL     1      -0.019   1.526   0.010  0.00  0.00    +0.048 C 
ATOM     19  C   UNL     1       0.002  -0.004   0.002  0.00  0.00    +0.229 C 
ENDBRANCH  17  19
ENDBRANCH  15  17
ENDBRANCH   1  15
BRANCH   5  20
ATOM     20  N   UNL     1       3.744  -2.429   1.401  0.00  0.00    -0.290 N 
ATOM     21  H   UNL     1       3.428  -2.062   0.560  0.00  0.00    +0.154 HD
BRANCH  20  22
ATOM     22  C   UNL     1       5.046  -2.740   1.554  0.00  0.00    +0.141 C 
ATOM     23  S   UNL     1       5.604  -3.386   3.038  0.00  0.00    -0.018 S 
BRANCH  22  24
ATOM     24  N   UNL     1       5.910  -2.543   0.537  0.00  0.00    -0.268 N 
ATOM     25  C   UNL     1       7.212  -2.854   0.690  0.00  0.00    +0.219 C 
ATOM     26  O   UNL     1       7.607  -3.312   1.741  0.00  0.00    -0.275 OA
ATOM     27  H   UNL     1       5.594  -2.177  -0.303  0.00  0.00    +0.156 HD
BRANCH  25  28
ATOM     28  C   UNL     1       8.178  -2.634  -0.446  0.00  0.00    +0.099 C 
BRANCH  28  29
ATOM     29  C   UNL     1       9.580  -3.066  -0.014  0.00  0.00    +0.050 C 
BRANCH  29  30
ATOM     30  C   UNL     1      10.560  -2.842  -1.168  0.00  0.00    +0.229 C 
BRANCH  30  31
ATOM     31  O   UNL     1      11.871  -3.246  -0.764  0.00  0.00    -0.492 OA
BRANCH  31  32
ATOM     32  C   UNL     1      12.867  -3.112  -1.679  0.00  0.00    +0.120 A 
ATOM     33  C   UNL     1      12.590  -2.596  -2.937  0.00  0.00    +0.045 A 
ATOM     34  C   UNL     1      13.604  -2.460  -3.865  0.00  0.00    +0.004 A 
ATOM     35  C   UNL     1      14.894  -2.837  -3.542  0.00  0.00    +0.000 A 
ATOM     36  C   UNL     1      15.173  -3.352  -2.289  0.00  0.00    +0.004 A 
ATOM     37  C   UNL     1      14.163  -3.484  -1.355  0.00  0.00    +0.045 A 
ENDBRANCH  31  32
ENDBRANCH  30  31
ENDBRANCH  29  30
ENDBRANCH  28  29
ENDBRANCH  25  28
ENDBRANCH  22  24
ENDBRANCH  20  22
ENDBRANCH   5  20
TORSDOF 13
