REMARK  Name = ZINC38679060
REMARK  14 active torsions:
REMARK  status: ('A' for Active; 'I' for Inactive)
REMARK    1  A    between atoms: C_1  and  C_2
REMARK    2  A    between atoms: C_2  and  O_3
REMARK    3  A    between atoms: O_3  and  C_4
REMARK    4  A    between atoms: C_7  and  C_13
REMARK    5  A    between atoms: C_9  and  O_10
REMARK    6  A    between atoms: O_10  and  C_11
REMARK    7  A    between atoms: C_11  and  C_12
REMARK    8  A    between atoms: C_18  and  O_27
REMARK    9  A    between atoms: C_22  and  N_26
REMARK   10  A    between atoms: C_23  and  C_24
REMARK   11  A    between atoms: O_27  and  C_28
REMARK   12  A    between atoms: C_28  and  C_30
REMARK   13  A    between atoms: C_30  and  O_31
REMARK   14  A    between atoms: O_31  and  C_32
REMARK                            x       y       z     vdW  Elec       q    Type
REMARK                         _______ _______ _______ _____ _____    ______ ____
ROOT
ATOM      1  C   UNL     1       1.122  -6.086  -1.797  0.00  0.00    +0.098 C 
ATOM      2  C   UNL     1      -0.260  -6.679  -1.875  0.00  0.00    +0.008 A 
ATOM      3  C   UNL     1      -1.028  -6.467  -3.006  0.00  0.00    +0.012 A 
ATOM      4  C   UNL     1      -2.298  -7.003  -3.095  0.00  0.00    +0.047 A 
ATOM      5  C   UNL     1      -2.808  -7.757  -2.047  0.00  0.00    +0.135 A 
ATOM      6  C   UNL     1      -2.041  -7.971  -0.913  0.00  0.00    +0.093 A 
ATOM      7  C   UNL     1      -0.764  -7.431  -0.825  0.00  0.00    +0.138 A 
ATOM      8  O   UNL     1      -0.027  -7.649   0.291  0.00  0.00    -0.441 OA
ATOM      9  C   UNL     1       1.306  -7.487   0.256  0.00  0.00    +0.199 C 
ATOM     10  C   UNL     1       1.911  -6.757  -0.707  0.00  0.00    +0.098 C 
ENDROOT
BRANCH   1  14
ATOM     11  C   UNL     1       0.823  -1.904  -0.957  0.00  0.00    +0.162 A 
ATOM     12  C   UNL     1       0.308  -2.831  -0.065  0.00  0.00    +0.050 A 
ATOM     13  C   UNL     1       0.406  -4.183  -0.339  0.00  0.00    +0.008 A 
ATOM     14  C   UNL     1       1.018  -4.612  -1.503  0.00  0.00    -0.031 A 
ATOM     15  C   UNL     1       1.533  -3.692  -2.397  0.00  0.00    +0.054 A 
ATOM     16  C   UNL     1       1.433  -2.336  -2.131  0.00  0.00    +0.162 A 
BRANCH  11  17
ATOM     17  O   UNL     1       0.727  -0.574  -0.688  0.00  0.00    -0.489 OA
BRANCH  17  19
ATOM     18  C   UNL     1       0.074   1.321   0.662  0.00  0.00    +0.048 C 
ATOM     19  C   UNL     1       0.088  -0.204   0.535  0.00  0.00    +0.226 C 
ENDBRANCH  17  19
ENDBRANCH  11  17
BRANCH  16  20
ATOM     20  O   UNL     1       1.934  -1.430  -3.012  0.00  0.00    -0.489 OA
BRANCH  20  21
ATOM     21  C   UNL     1       2.546  -1.946  -4.195  0.00  0.00    +0.226 C 
ATOM     22  C   UNL     1       3.046  -0.785  -5.058  0.00  0.00    +0.048 C 
ENDBRANCH  20  21
ENDBRANCH  16  20
ENDBRANCH   1  14
BRANCH   9  23
ATOM     23  N   UNL     1       2.075  -8.078   1.227  0.00  0.00    -0.328 N 
ATOM     24  H   UNL     1       1.655  -8.604   1.925  0.00  0.00    +0.145 HD
ATOM     25  H   UNL     1       3.039  -7.969   1.215  0.00  0.00    +0.145 HD
ENDBRANCH   9  23
BRANCH  10  26
ATOM     26  C   UNL     1       3.336  -6.621  -0.687  0.00  0.00    +0.101 C 
ATOM     27  N   UNL     1       4.467  -6.514  -0.672  0.00  0.00    -0.191 NA
ENDBRANCH  10  26
BRANCH   5  28
ATOM     28  O   UNL     1      -4.058  -8.284  -2.133  0.00  0.00    -0.423 OA
BRANCH  28  29
ATOM     29  C   UNL     1      -5.011  -7.779  -1.334  0.00  0.00    +0.350 C 
ATOM     30  O   UNL     1      -4.774  -6.816  -0.644  0.00  0.00    -0.247 OA
BRANCH  29  31
ATOM     31  C   UNL     1      -6.377  -8.414  -1.298  0.00  0.00    +0.349 C 
BRANCH  31  32
ATOM     32  O   UNL     1      -7.209  -7.702  -0.379  0.00  0.00    -0.481 OA
BRANCH  32  33
ATOM     33  C   UNL     1      -8.483  -8.149  -0.226  0.00  0.00    +0.121 A 
ATOM     34  C   UNL     1      -8.922  -9.254  -0.942  0.00  0.00    +0.047 A 
ATOM     35  C   UNL     1     -10.218  -9.707  -0.786  0.00  0.00    +0.023 A 
ATOM     36  C   UNL     1     -11.078  -9.059   0.084  0.00  0.00    +0.041 A 
ATOM     37  C   UNL     1     -10.642  -7.957   0.798  0.00  0.00    +0.023 A 
ATOM     38  C   UNL     1      -9.345  -7.505   0.649  0.00  0.00    +0.047 A 
ATOM     39 CL   UNL     1     -12.706  -9.630   0.278  0.00  0.00    -0.084 Cl
ENDBRANCH  32  33
ENDBRANCH  31  32
ENDBRANCH  29  31
ENDBRANCH  28  29
ENDBRANCH   5  28
TORSDOF 12
