REMARK  Name = ZINC35752051
REMARK  18 active torsions:
REMARK  status: ('A' for Active; 'I' for Inactive)
REMARK    1  A    between atoms: C_1  and  C_2
REMARK    2  A    between atoms: C_2  and  C_3
REMARK    3  A    between atoms: C_3  and  C_4
REMARK    4  A    between atoms: C_4  and  C_5
REMARK    5  A    between atoms: C_5  and  C_6
REMARK    6  A    between atoms: C_6  and  C_7
REMARK    7  A    between atoms: N_9  and  C_10
REMARK    8  A    between atoms: N_9  and  C_15
REMARK    9  A    between atoms: C_10  and  C_11
REMARK   10  A    between atoms: C_11  and  C_12
REMARK   11  A    between atoms: C_12  and  C_13
REMARK   12  A    between atoms: C_12  and  C_14
REMARK   13  A    between atoms: C_15  and  C_16
REMARK   14  A    between atoms: N_18  and  C_19
REMARK   15  A    between atoms: N_18  and  C_33
REMARK   16  A    between atoms: C_19  and  C_20
REMARK   17  A    between atoms: N_24  and  C_25
REMARK   18  A    between atoms: C_25  and  C_26
REMARK                            x       y       z     vdW  Elec       q    Type
REMARK                         _______ _______ _______ _____ _____    ______ ____
ROOT
ATOM      1  C   UNL     1       6.064  -7.026  -5.076  0.00  0.00    +0.234 C 
ATOM      2  O   UNL     1       4.925  -6.706  -5.344  0.00  0.00    -0.274 OA
ATOM      3  N   UNL     1       6.845  -7.587  -6.020  0.00  0.00    -0.291 N 
ENDROOT
BRANCH   3   4
ATOM      4  C   UNL     1       6.360  -7.707  -7.397  0.00  0.00    +0.077 C 
ATOM      5  C   UNL     1       5.979  -6.323  -7.926  0.00  0.00    +0.022 C 
ATOM      6  C   UNL     1       5.472  -6.449  -9.364  0.00  0.00    +0.002 C 
ATOM      7  C   UNL     1       4.244  -7.362  -9.394  0.00  0.00    +0.000 C 
ATOM      8  C   UNL     1       4.625  -8.746  -8.864  0.00  0.00    +0.002 C 
ATOM      9  C   UNL     1       5.132  -8.620  -7.426  0.00  0.00    +0.022 C 
ENDBRANCH   3   4
BRANCH   1  10
ATOM     10  C   UNL     1       6.604  -6.797  -3.688  0.00  0.00    +0.203 C 
BRANCH  10  13
ATOM     11  C   UNL     1       4.816  -7.128  -2.067  0.00  0.00    +0.216 C 
ATOM     12  O   UNL     1       5.050  -8.318  -2.096  0.00  0.00    -0.276 OA
ATOM     13  N   UNL     1       5.537  -6.281  -2.828  0.00  0.00    -0.293 N 
BRANCH  11  14
ATOM     14  C   UNL     1       3.718  -6.597  -1.182  0.00  0.00    +0.096 C 
BRANCH  14  15
ATOM     15  C   UNL     1       3.062  -7.758  -0.432  0.00  0.00    +0.009 C 
BRANCH  15  16
ATOM     16  C   UNL     1       1.947  -7.220   0.467  0.00  0.00    +0.000 C 
BRANCH  16  17
ATOM     17  C   UNL     1       1.291  -8.381   1.217  0.00  0.00    -0.000 C 
BRANCH  17  19
ATOM     18  C   UNL     1      -0.480  -9.003   2.866  0.00  0.00    +0.004 C 
ATOM     19  C   UNL     1       0.176  -7.842   2.116  0.00  0.00    -0.003 C 
ENDBRANCH  17  19
ENDBRANCH  16  17
ENDBRANCH  15  16
ENDBRANCH  14  15
ENDBRANCH  11  14
BRANCH  13  20
ATOM     20  C   UNL     1       5.254  -4.844  -2.793  0.00  0.00    +0.108 C 
BRANCH  20  21
ATOM     21  C   UNL     1       6.024  -4.200  -1.639  0.00  0.00    +0.022 C 
BRANCH  21  22
ATOM     22  C   UNL     1       5.628  -2.727  -1.520  0.00  0.00    -0.016 C 
ATOM     23  C   UNL     1       6.322  -2.108  -0.305  0.00  0.00    +0.007 C 
ATOM     24  C   UNL     1       6.057  -1.980  -2.786  0.00  0.00    +0.007 C 
ENDBRANCH  21  22
ENDBRANCH  20  21
ENDBRANCH  13  20
ENDBRANCH  10  13
ENDBRANCH   1  10
BRANCH   3  25
ATOM     25  C   UNL     1       8.181  -8.076  -5.669  0.00  0.00    +0.161 C 
BRANCH  25  26
ATOM     26  C   UNL     1       8.081  -9.493  -5.165  0.00  0.00    +0.036 A 
ATOM     27  C   UNL     1       7.988  -9.868  -3.873  0.00  0.00    +0.024 A 
ATOM     28  C   UNL     1       7.915 -11.275  -3.847  0.00  0.00    +0.019 A 
ATOM     29  C   UNL     1       7.966 -11.706  -5.124  0.00  0.00    +0.086 A 
ATOM     30  N   UNL     1       8.062 -10.616  -5.938  0.00  0.00    -0.345 N 
BRANCH  30  31
ATOM     31  C   UNL     1       8.136 -10.648  -7.401  0.00  0.00    +0.158 C 
BRANCH  31  32
ATOM     32  C   UNL     1       9.579 -10.619  -7.832  0.00  0.00    -0.009 A 
ATOM     33  C   UNL     1      10.166  -9.424  -8.204  0.00  0.00    +0.007 A 
ATOM     34  C   UNL     1      11.491  -9.398  -8.599  0.00  0.00    +0.000 A 
ATOM     35  C   UNL     1      12.229 -10.566  -8.622  0.00  0.00    +0.001 A 
ATOM     36  C   UNL     1      11.644 -11.762  -8.249  0.00  0.00    +0.020 A 
ATOM     37  C   UNL     1      10.320 -11.788  -7.848  0.00  0.00    +0.046 A 
ATOM     38 CL   UNL     1       9.585 -13.287  -7.374  0.00  0.00    -0.083 Cl
ENDBRANCH  31  32
ENDBRANCH  30  31
ENDBRANCH  25  26
ENDBRANCH   3  25
TORSDOF 15
