REMARK  Name = ZINC39676773
REMARK  9 active torsions:
REMARK  status: ('A' for Active; 'I' for Inactive)
REMARK    1  A    between atoms: C_1  and  C_2
REMARK    2  A    between atoms: C_2  and  C_4
REMARK    3  A    between atoms: C_2  and  N_12
REMARK    4  A    between atoms: C_8  and  O_10
REMARK    5  A    between atoms: O_10  and  C_11
REMARK    6  A    between atoms: C_13  and  C_15
REMARK    7  A    between atoms: C_26  and  C_28
REMARK    8  A    between atoms: C_33  and  S_34
REMARK    9  A    between atoms: S_34  and  C_35
REMARK                            x       y       z     vdW  Elec       q    Type
REMARK                         _______ _______ _______ _____ _____    ______ ____
ROOT
ATOM      1  C   UNL     1       0.715  -1.094  -3.594  0.00  0.00    +0.100 C 
ATOM      2  C   UNL     1       1.345  -2.485  -3.353  0.00  0.00    +0.121 C 
ATOM      3  N   UNL     1       0.331  -3.446  -3.847  0.00  0.00    -0.296 N 
ATOM      4  C   UNL     1      -0.210  -2.812  -5.073  0.00  0.00    +0.115 C 
ATOM      5  C   UNL     1      -0.302  -1.313  -4.726  0.00  0.00    -0.004 C 
ATOM      6  C   UNL     1      -1.709  -0.969  -4.246  0.00  0.00    -0.010 C 
ATOM      7  C   UNL     1      -2.695  -1.140  -5.405  0.00  0.00    -0.082 C 
ATOM      8  N   UNL     1      -2.306  -0.260  -6.514  0.00  0.00    +0.379 N 
ATOM      9  C   UNL     1      -0.991  -0.657  -7.031  0.00  0.00    -0.082 C 
ATOM     10  C   UNL     1       0.067  -0.466  -5.940  0.00  0.00    -0.010 C 
ATOM     11  C   UNL     1      -0.020  -4.629  -3.305  0.00  0.00    +0.249 C 
ATOM     12  O   UNL     1       0.449  -4.971  -2.236  0.00  0.00    -0.270 OA
ATOM     13  H   UNL     1      -2.990  -0.329  -7.253  0.00  0.00    -0.086 HD
ATOM     14  H   UNL     1      -2.263   0.693  -6.187  0.00  0.00    -0.086 HD
ENDROOT
BRANCH  11  15
ATOM     15  C   UNL     1      -0.972  -5.508  -4.007  0.00  0.00    +0.069 A 
ATOM     16  C   UNL     1      -0.977  -5.581  -5.405  0.00  0.00    +0.017 A 
ATOM     17  C   UNL     1      -1.890  -6.422  -6.016  0.00  0.00    +0.020 A 
ATOM     18  C   UNL     1      -2.764  -7.160  -5.237  0.00  0.00    +0.112 A 
ATOM     19  N   UNL     1      -2.744  -7.079  -3.922  0.00  0.00    -0.248 NA
ATOM     20  C   UNL     1      -1.887  -6.294  -3.285  0.00  0.00    +0.114 A 
BRANCH  20  21
ATOM     21  S   UNL     1      -1.900  -6.229  -1.524  0.00  0.00    -0.069 S 
BRANCH  21  22
ATOM     22  C   UNL     1      -3.273  -7.235  -1.071  0.00  0.00    +0.014 A 
ATOM     23  C   UNL     1      -3.079  -8.572  -0.744  0.00  0.00    +0.015 A 
ATOM     24  C   UNL     1      -4.158  -9.357  -0.389  0.00  0.00    +0.001 A 
ATOM     25  C   UNL     1      -5.430  -8.815  -0.358  0.00  0.00    +0.000 A 
ATOM     26  C   UNL     1      -5.627  -7.485  -0.682  0.00  0.00    +0.001 A 
ATOM     27  C   UNL     1      -4.552  -6.692  -1.033  0.00  0.00    +0.015 A 
ENDBRANCH  21  22
ENDBRANCH  20  21
ENDBRANCH  11  15
BRANCH   1  29
ATOM     28  N   UNL     1      -0.057   0.710  -2.089  0.00  0.00    -0.308 N 
ATOM     29  C   UNL     1       0.018  -0.610  -2.349  0.00  0.00    +0.219 C 
ATOM     30  O   UNL     1      -0.474  -1.409  -1.580  0.00  0.00    -0.275 OA
ATOM     31  H   UNL     1       0.337   1.349  -2.703  0.00  0.00    +0.149 HD
BRANCH  28  33
ATOM     32  C   UNL     1      -2.236   1.296  -1.146  0.00  0.00    +0.033 C 
ATOM     33  C   UNL     1      -0.735   1.180  -0.878  0.00  0.00    +0.100 C 
BRANCH  33  34
ATOM     34  C   UNL     1      -0.188   2.530  -0.489  0.00  0.00    -0.024 A 
ATOM     35  C   UNL     1       0.087   3.471  -1.464  0.00  0.00    +0.005 A 
ATOM     36  C   UNL     1       0.589   4.710  -1.111  0.00  0.00    +0.004 A 
ATOM     37  C   UNL     1       0.816   5.011   0.218  0.00  0.00    +0.045 A 
ATOM     38  C   UNL     1       0.540   4.069   1.199  0.00  0.00    +0.120 A 
ATOM     39  C   UNL     1       0.031   2.828   0.842  0.00  0.00    +0.051 A 
BRANCH  38  40
ATOM     40  O   UNL     1       0.762   4.363   2.507  0.00  0.00    -0.495 OA
ATOM     41  C   UNL     1       1.281   5.661   2.801  0.00  0.00    +0.277 C 
ENDBRANCH  38  40
ENDBRANCH  33  34
ENDBRANCH  28  33
ENDBRANCH   1  29
TORSDOF 7
