REMARK  Name = ZINC35643998
REMARK  8 active torsions:
REMARK  status: ('A' for Active; 'I' for Inactive)
REMARK    1  A    between atoms: C_1  and  C_2
REMARK    2  A    between atoms: C_5  and  N_8
REMARK    3  A    between atoms: C_13  and  N_18
REMARK    4  A    between atoms: C_15  and  C_17
REMARK    5  A    between atoms: N_18  and  C_19
REMARK    6  A    between atoms: C_22  and  N_25
REMARK    7  A    between atoms: N_25  and  S_26
REMARK    8  A    between atoms: S_26  and  C_29
REMARK                            x       y       z     vdW  Elec       q    Type
REMARK                         _______ _______ _______ _____ _____    ______ ____
ROOT
ATOM      1  N   UNL     1       0.802  -8.659   0.928  0.00  0.00    -0.326 N 
ATOM      2  H   UNL     1       0.263  -8.883   0.153  0.00  0.00    +0.148 HD
ENDROOT
BRANCH   1   8
ATOM      3  N   UNL     1       0.059  -4.171  -0.021  0.00  0.00    -0.214 N 
ATOM      4  C   UNL     1       0.705  -4.968   0.881  0.00  0.00    +0.168 A 
ATOM      5  C   UNL     1       0.455  -6.299   0.491  0.00  0.00    +0.079 A 
ATOM      6  C   UNL     1      -0.355  -6.246  -0.664  0.00  0.00    +0.148 A 
ATOM      7  N   UNL     1      -0.585  -4.996  -0.951  0.00  0.00    -0.172 NA
ATOM      8  C   UNL     1       1.014  -7.336   1.262  0.00  0.00    +0.133 A 
ATOM      9  N   UNL     1       1.749  -7.010   2.320  0.00  0.00    -0.217 NA
ATOM     10  C   UNL     1       1.956  -5.747   2.647  0.00  0.00    +0.130 A 
ATOM     11  N   UNL     1       1.455  -4.745   1.958  0.00  0.00    -0.213 NA
ATOM     12  C   UNL     1       2.799  -5.442   3.859  0.00  0.00    +0.088 C 
BRANCH   3  17
ATOM     13  C   UNL     1      -0.018   1.503   0.010  0.00  0.00    +0.044 C 
ATOM     14  C   UNL     1       0.002  -0.004   0.002  0.00  0.00    -0.050 A 
ATOM     15  C   UNL     1       0.006  -0.687  -1.200  0.00  0.00    +0.005 A 
ATOM     16  C   UNL     1       0.025  -2.068  -1.211  0.00  0.00    +0.028 A 
ATOM     17  C   UNL     1       0.041  -2.771  -0.013  0.00  0.00    +0.068 A 
ATOM     18  C   UNL     1       0.037  -2.081   1.192  0.00  0.00    +0.028 A 
ATOM     19  C   UNL     1       0.023  -0.700   1.197  0.00  0.00    +0.005 A 
ENDBRANCH   3  17
ENDBRANCH   1   8
BRANCH   1  20
ATOM     20  C   UNL     1       1.391  -9.724   1.743  0.00  0.00    +0.072 C 
ATOM     21  C   UNL     1       2.825  -9.988   1.278  0.00  0.00    +0.024 C 
ATOM     22  C   UNL     1       2.813 -10.417  -0.191  0.00  0.00    +0.022 C 
ATOM     23  C   UNL     1       1.984 -11.694  -0.343  0.00  0.00    +0.077 C 
ATOM     24  C   UNL     1       0.551 -11.430   0.123  0.00  0.00    +0.022 C 
ATOM     25  C   UNL     1       0.562 -11.001   1.591  0.00  0.00    +0.024 C 
BRANCH  23  26
ATOM     26  N   UNL     1       1.973 -12.105  -1.749  0.00  0.00    -0.187 NA
ATOM     27  H   UNL     1       1.968 -11.434  -2.450  0.00  0.00    +0.148 HD
BRANCH  26  28
ATOM     28  S   UNL     1       1.970 -13.713  -2.142  0.00  0.00    +0.059 S 
ATOM     29  O   UNL     1       1.931 -13.785  -3.560  0.00  0.00    -0.153 OA
ATOM     30  O   UNL     1       3.001 -14.321  -1.375  0.00  0.00    -0.153 OA
BRANCH  28  31
ATOM     31  C   UNL     1       0.448 -14.388  -1.562  0.00  0.00    +0.105 A 
ATOM     32  C   UNL     1       0.364 -14.904  -0.283  0.00  0.00    +0.030 A 
ATOM     33  C   UNL     1      -0.829 -15.433   0.172  0.00  0.00    +0.022 A 
ATOM     34  C   UNL     1      -1.939 -15.446  -0.653  0.00  0.00    +0.041 A 
ATOM     35  C   UNL     1      -1.855 -14.928  -1.934  0.00  0.00    +0.022 A 
ATOM     36  C   UNL     1      -0.662 -14.394  -2.385  0.00  0.00    +0.030 A 
ATOM     37 CL   UNL     1      -3.438 -16.110  -0.083  0.00  0.00    -0.084 Cl
ENDBRANCH  28  31
ENDBRANCH  26  28
ENDBRANCH  23  26
ENDBRANCH   1  20
TORSDOF 6
