REMARK  Name = ZINC18620684
REMARK  12 active torsions:
REMARK  status: ('A' for Active; 'I' for Inactive)
REMARK    1  A    between atoms: C_1  and  C_2
REMARK    2  A    between atoms: C_2  and  N_3
REMARK    3  A    between atoms: C_4  and  C_25
REMARK    4  A    between atoms: C_7  and  S_8
REMARK    5  A    between atoms: S_8  and  C_9
REMARK    6  A    between atoms: C_9  and  C_10
REMARK    7  A    between atoms: N_12  and  C_13
REMARK    8  A    between atoms: C_15  and  S_21
REMARK    9  A    between atoms: C_17  and  C_20
REMARK   10  A    between atoms: C_18  and  C_19
REMARK   11  A    between atoms: S_21  and  N_24
REMARK   12  A    between atoms: C_30  and  C_31
REMARK                            x       y       z     vdW  Elec       q    Type
REMARK                         _______ _______ _______ _____ _____    ______ ____
ROOT
ATOM      1  C   UNL     1      -2.894  -0.377   5.309  0.00  0.00    +0.227 C 
ATOM      2  O   UNL     1      -3.726   0.290   4.731  0.00  0.00    -0.275 OA
ATOM      3  N   UNL     1      -3.166  -0.884   6.528  0.00  0.00    -0.285 N 
ATOM      4  H   UNL     1      -2.479  -1.362   7.019  0.00  0.00    +0.155 HD
ENDROOT
BRANCH   3   5
ATOM      5  C   UNL     1      -4.438  -0.721   7.086  0.00  0.00    +0.038 A 
ATOM      6  C   UNL     1      -5.213   0.380   6.744  0.00  0.00    +0.052 A 
ATOM      7  C   UNL     1      -6.468   0.538   7.297  0.00  0.00    +0.107 A 
ATOM      8  C   UNL     1      -6.955  -0.399   8.190  0.00  0.00    +0.032 A 
ATOM      9  C   UNL     1      -6.187  -1.496   8.533  0.00  0.00    -0.044 A 
ATOM     10  C   UNL     1      -4.933  -1.663   7.979  0.00  0.00    -0.026 A 
ATOM     11  C   UNL     1      -4.099  -2.863   8.347  0.00  0.00    +0.046 C 
ATOM     12  C   UNL     1      -6.721  -2.514   9.507  0.00  0.00    +0.044 C 
BRANCH   7  13
ATOM     13  S   UNL     1      -7.451   1.935   6.863  0.00  0.00    +0.056 S 
ATOM     14  O   UNL     1      -8.365   2.136   7.933  0.00  0.00    -0.153 OA
ATOM     15  O   UNL     1      -6.551   2.946   6.430  0.00  0.00    -0.153 OA
BRANCH  13  16
ATOM     16  N   UNL     1      -8.354   1.508   5.543  0.00  0.00    -0.204 NA
ATOM     17  H   UNL     1      -8.270   0.618   5.165  0.00  0.00    +0.144 HD
ATOM     18  H   UNL     1      -8.968   2.147   5.147  0.00  0.00    +0.144 HD
ENDBRANCH  13  16
ENDBRANCH   7  13
ENDBRANCH   3   5
BRANCH   1  19
ATOM     19  C   UNL     1      -1.557  -0.638   4.665  0.00  0.00    +0.173 C 
BRANCH  19  20
ATOM     20  S   UNL     1      -1.499   0.172   3.043  0.00  0.00    -0.077 S 
BRANCH  20  25
ATOM     21  N   UNL     1       0.629   0.164   1.227  0.00  0.00    -0.302 N 
ATOM     22  C   UNL     1       1.896  -0.370   1.186  0.00  0.00    +0.165 A 
ATOM     23  N   UNL     1       2.073  -1.029   2.308  0.00  0.00    -0.128 NA
ATOM     24  N   UNL     1       1.018  -0.944   3.037  0.00  0.00    -0.122 NA
ATOM     25  C   UNL     1       0.105  -0.222   2.428  0.00  0.00    +0.192 A 
BRANCH  22  26
ATOM     26  C   UNL     1       2.874  -0.230   0.086  0.00  0.00    +0.022 A 
ATOM     27  C   UNL     1       2.485  -0.469  -1.233  0.00  0.00    +0.012 A 
ATOM     28  C   UNL     1       3.402  -0.336  -2.254  0.00  0.00    +0.001 A 
ATOM     29  C   UNL     1       4.706   0.035  -1.974  0.00  0.00    +0.000 A 
ATOM     30  C   UNL     1       5.098   0.273  -0.669  0.00  0.00    +0.004 A 
ATOM     31  C   UNL     1       4.189   0.149   0.362  0.00  0.00    -0.040 A 
ATOM     32  C   UNL     1       4.616   0.416   1.782  0.00  0.00    +0.044 C 
ENDBRANCH  22  26
BRANCH  21  34
ATOM     33  C   UNL     1       0.191   2.463   0.517  0.00  0.00    +0.027 C 
ATOM     34  C   UNL     1      -0.021   0.981   0.199  0.00  0.00    +0.122 C 
ENDBRANCH  21  34
ENDBRANCH  20  25
ENDBRANCH  19  20
ENDBRANCH   1  19
TORSDOF 8
