REMARK  Name = ZINC09227399
REMARK  6 active torsions:
REMARK  status: ('A' for Active; 'I' for Inactive)
REMARK    1  A    between atoms: C_1  and  C_2
REMARK    2  A    between atoms: C_6  and  N_9
REMARK    3  A    between atoms: C_7  and  C_8
REMARK    4  A    between atoms: C_15  and  C_17
REMARK    5  A    between atoms: N_20  and  C_27
REMARK    6  A    between atoms: C_21  and  C_22
REMARK                            x       y       z     vdW  Elec       q    Type
REMARK                         _______ _______ _______ _____ _____    ______ ____
ROOT
ATOM      1  C   UNL     1       0.777   1.735   3.587  0.00  0.00    +0.078 A 
ATOM      2  C   UNL     1       0.032   0.936   4.484  0.00  0.00    +0.148 A 
ATOM      3  N   UNL     1      -0.093  -0.252   3.958  0.00  0.00    -0.174 NA
ATOM      4  N   UNL     1       0.551  -0.269   2.716  0.00  0.00    -0.236 N 
ATOM      5  C   UNL     1       1.085   0.946   2.497  0.00  0.00    +0.060 A 
ENDROOT
BRANCH   1  12
ATOM      6  N   UNL     1       3.914   4.006   6.652  0.00  0.00    -0.327 N 
ATOM      7  C   UNL     1       3.754   4.867   5.472  0.00  0.00    +0.124 C 
ATOM      8  C   UNL     1       2.275   4.906   5.070  0.00  0.00    +0.127 C 
ATOM      9  N   UNL     1       1.800   3.524   4.902  0.00  0.00    -0.294 N 
ATOM     10  C   UNL     1       2.043   2.567   5.992  0.00  0.00    +0.127 C 
ATOM     11  C   UNL     1       3.535   2.618   6.355  0.00  0.00    +0.124 C 
ATOM     12  C   UNL     1       1.154   3.147   3.781  0.00  0.00    +0.250 C 
ATOM     13  O   UNL     1       0.882   3.971   2.929  0.00  0.00    -0.270 OA
BRANCH   6  19
ATOM     14  C   UNL     1       6.991   5.053  10.338  0.00  0.00    +0.044 C 
ATOM     15  C   UNL     1       6.740   4.578   8.930  0.00  0.00    -0.046 A 
ATOM     16  C   UNL     1       7.803   4.208   8.126  0.00  0.00    +0.004 A 
ATOM     17  C   UNL     1       7.577   3.771   6.834  0.00  0.00    +0.002 A 
ATOM     18  C   UNL     1       6.288   3.703   6.342  0.00  0.00    +0.023 A 
ATOM     19  C   UNL     1       5.219   4.074   7.146  0.00  0.00    +0.033 A 
ATOM     20  C   UNL     1       5.450   4.518   8.442  0.00  0.00    -0.027 A 
ATOM     21  C   UNL     1       4.293   4.927   9.317  0.00  0.00    +0.046 C 
ENDBRANCH   6  19
ENDBRANCH   1  12
BRANCH   5  22
ATOM     22  C   UNL     1       1.870   1.371   1.282  0.00  0.00    +0.035 C 
ATOM     23  C   UNL     1       1.071   2.413   0.495  0.00  0.00    -0.010 C 
ATOM     24  C   UNL     1       1.897   2.885  -0.704  0.00  0.00    -0.082 C 
ATOM     25  C   UNL     1       3.966   2.470   0.486  0.00  0.00    -0.082 C 
ATOM     26  C   UNL     1       3.202   1.986   1.721  0.00  0.00    -0.010 C 
ATOM     27  N   UNL     1       3.163   3.477  -0.233  0.00  0.00    +0.379 N 
ATOM     28  H   UNL     1       2.956   4.259   0.399  0.00  0.00    -0.086 HD
ATOM     29  H   UNL     1       3.696   3.821  -1.040  0.00  0.00    -0.086 HD
ENDBRANCH   5  22
BRANCH   4  30
ATOM     30  C   UNL     1       0.629  -1.367   1.847  0.00  0.00    +0.066 A 
ATOM     31  C   UNL     1       0.433  -1.190   0.484  0.00  0.00    +0.030 A 
ATOM     32  C   UNL     1       0.514  -2.273  -0.370  0.00  0.00    +0.040 A 
ATOM     33  C   UNL     1       0.782  -3.535   0.134  0.00  0.00    +0.124 A 
ATOM     34  C   UNL     1       0.974  -3.713   1.494  0.00  0.00    +0.040 A 
ATOM     35  C   UNL     1       0.897  -2.633   2.350  0.00  0.00    +0.030 A 
ATOM     36  F   UNL     1       0.857  -4.593  -0.703  0.00  0.00    -0.205 F 
ENDBRANCH   4  30
TORSDOF 4
