REMARK  Name = ZINC20707384
REMARK  6 active torsions:
REMARK  status: ('A' for Active; 'I' for Inactive)
REMARK    1  A    between atoms: C_1  and  C_2
REMARK    2  A    between atoms: C_2  and  C_3
REMARK    3  A    between atoms: C_2  and  O_4
REMARK    4  A    between atoms: O_4  and  C_5
REMARK    5  A    between atoms: C_18  and  C_21
REMARK    6  A    between atoms: C_26  and  O_27
REMARK                            x       y       z     vdW  Elec       q    Type
REMARK                         _______ _______ _______ _____ _____    ______ ____
ROOT
ATOM      1  C   UNL     1       0.457   2.450  -0.603  0.00  0.00    +0.121 A 
ATOM      2  C   UNL     1       1.751   2.267  -1.070  0.00  0.00    +0.047 A 
ATOM      3  C   UNL     1       2.197   0.994  -1.363  0.00  0.00    +0.027 A 
ATOM      4  C   UNL     1       1.354  -0.097  -1.191  0.00  0.00    +0.032 A 
ATOM      5  C   UNL     1       0.061   0.079  -0.722  0.00  0.00    -0.016 A 
ATOM      6  C   UNL     1      -0.381   1.362  -0.430  0.00  0.00    +0.051 A 
ATOM      7  C   UNL     1      -0.878  -1.067  -0.516  0.00  0.00    +0.049 C 
ATOM      8  C   UNL     1      -1.929  -1.120  -1.599  0.00  0.00    -0.023 C 
ATOM      9  C   UNL     1      -2.211  -2.365  -1.897  0.00  0.00    -0.030 C 
ATOM     10  C   UNL     1      -1.387  -3.314  -1.048  0.00  0.00    +0.033 C 
ATOM     11  C   UNL     1      -0.181  -2.439  -0.596  0.00  0.00    +0.029 C 
ATOM     12  C   UNL     1       0.838  -2.442  -1.739  0.00  0.00    +0.108 C 
ATOM     13  N   UNL     1       1.822  -1.381  -1.500  0.00  0.00    -0.336 N 
ATOM     14  H   UNL     1       2.897  -1.604  -1.565  0.00  0.00    +0.147 HD
ENDROOT
BRANCH  12  15
ATOM     15  C   UNL     1       0.131  -2.188  -3.046  0.00  0.00    +0.014 A 
ATOM     16  C   UNL     1      -0.166  -0.895  -3.432  0.00  0.00    +0.009 A 
ATOM     17  C   UNL     1      -0.810  -0.662  -4.633  0.00  0.00    +0.001 A 
ATOM     18  C   UNL     1      -1.169  -1.722  -5.445  0.00  0.00    +0.004 A 
ATOM     19  C   UNL     1      -0.879  -3.017  -5.061  0.00  0.00    +0.046 A 
ATOM     20  C   UNL     1      -0.228  -3.253  -3.859  0.00  0.00    +0.122 A 
BRANCH  20  21
ATOM     21  O   UNL     1       0.057  -4.526  -3.478  0.00  0.00    -0.506 OA
ATOM     22  H   UNL     1      -0.228  -5.370  -4.124  0.00  0.00    +0.292 HD
ENDBRANCH  20  21
ENDBRANCH  12  15
BRANCH   1  23
ATOM     23  O   UNL     1       0.012   3.702  -0.314  0.00  0.00    -0.489 OA
BRANCH  23  25
ATOM     24  C   UNL     1       1.079   5.259  -1.823  0.00  0.00    +0.051 C 
ATOM     25  C   UNL     1       0.967   4.763  -0.381  0.00  0.00    +0.167 C 
ATOM     26  C   UNL     1       0.516   5.913   0.521  0.00  0.00    +0.051 C 
ENDBRANCH  23  25
ENDBRANCH   1  23
TORSDOF 4
