REMARK  Name = ZINC41022099
REMARK  17 active torsions:
REMARK  status: ('A' for Active; 'I' for Inactive)
REMARK    1  A    between atoms: C_1  and  C_2
REMARK    2  A    between atoms: C_2  and  C_3
REMARK    3  A    between atoms: C_3  and  C_4
REMARK    4  A    between atoms: C_4  and  S_5
REMARK    5  A    between atoms: S_5  and  C_6
REMARK    6  A    between atoms: C_11  and  C_28
REMARK    7  A    between atoms: C_13  and  C_17
REMARK    8  A    between atoms: C_14  and  C_16
REMARK    9  A    between atoms: N_19  and  C_20
REMARK   10  A    between atoms: C_24  and  C_27
REMARK   11  A    between atoms: C_25  and  C_26
REMARK   12  A    between atoms: C_31  and  O_36
REMARK   13  A    between atoms: C_32  and  O_34
REMARK   14  A    between atoms: O_34  and  C_35
REMARK   15  A    between atoms: O_36  and  C_37
REMARK   16  A    between atoms: C_37  and  C_38
REMARK   17  A    between atoms: C_38  and  C_39
REMARK                            x       y       z     vdW  Elec       q    Type
REMARK                         _______ _______ _______ _____ _____    ______ ____
ROOT
ATOM      1  C   UNL     1      -3.577  -4.870   1.212  0.00  0.00    +0.210 A 
ATOM      2  N   UNL     1      -2.520  -5.393   0.574  0.00  0.00    -0.187 NA
ATOM      3  C   UNL     1      -2.733  -6.660   0.344  0.00  0.00    +0.219 A 
ATOM      4  N   UNL     1      -3.952  -6.980   0.844  0.00  0.00    -0.220 N 
ATOM      5  N   UNL     1      -4.475  -5.814   1.399  0.00  0.00    -0.141 NA
ATOM      6  C   UNL     1      -4.526  -8.322   0.778  0.00  0.00    +0.177 C 
ATOM      7  C   UNL     1      -3.712  -9.169  -0.163  0.00  0.00    +0.060 C 
ATOM      8  C   UNL     1      -2.511  -8.799  -0.630  0.00  0.00    +0.018 C 
ATOM      9  N   UNL     1      -1.932  -7.601  -0.289  0.00  0.00    -0.287 N 
ATOM     10  C   UNL     1      -1.772  -9.727  -1.558  0.00  0.00    +0.061 C 
ATOM     11  H   UNL     1      -0.999  -7.419  -0.484  0.00  0.00    +0.155 HD
ENDROOT
BRANCH   6  12
ATOM     12  C   UNL     1      -4.512  -8.942   2.151  0.00  0.00    -0.015 A 
ATOM     13  C   UNL     1      -3.311  -9.152   2.802  0.00  0.00    +0.010 A 
ATOM     14  C   UNL     1      -3.293  -9.720   4.062  0.00  0.00    +0.050 A 
ATOM     15  C   UNL     1      -4.481 -10.081   4.676  0.00  0.00    +0.162 A 
ATOM     16  C   UNL     1      -5.691  -9.869   4.022  0.00  0.00    +0.162 A 
ATOM     17  C   UNL     1      -5.702  -9.294   2.761  0.00  0.00    +0.055 A 
BRANCH  16  18
ATOM     18  O   UNL     1      -6.861 -10.220   4.621  0.00  0.00    -0.491 OA
ATOM     19  C   UNL     1      -8.056 -10.053   3.857  0.00  0.00    +0.277 C 
ENDBRANCH  16  18
BRANCH  15  20
ATOM     20  O   UNL     1      -4.466 -10.640   5.915  0.00  0.00    -0.488 OA
BRANCH  20  21
ATOM     21  C   UNL     1      -3.188 -10.828   6.526  0.00  0.00    +0.229 C 
BRANCH  21  22
ATOM     22  C   UNL     1      -3.370 -11.465   7.905  0.00  0.00    +0.038 C 
ATOM     23  C   UNL     1      -2.002 -11.666   8.559  0.00  0.00    +0.007 C 
ENDBRANCH  21  22
ENDBRANCH  20  21
ENDBRANCH  15  20
ENDBRANCH   6  12
BRANCH   7  24
ATOM     24  C   UNL     1      -4.240 -10.416  -0.575  0.00  0.00    +0.248 C 
ATOM     25  O   UNL     1      -5.104 -10.459  -1.432  0.00  0.00    -0.270 OA
ATOM     26  N   UNL     1      -3.785 -11.557  -0.019  0.00  0.00    -0.281 N 
ATOM     27  H   UNL     1      -3.045 -11.530   0.607  0.00  0.00    +0.155 HD
BRANCH  26  28
ATOM     28  C   UNL     1      -4.382 -12.779  -0.344  0.00  0.00    +0.037 A 
ATOM     29  C   UNL     1      -4.710 -13.064  -1.663  0.00  0.00    +0.023 A 
ATOM     30  C   UNL     1      -5.300 -14.272  -1.980  0.00  0.00    +0.002 A 
ATOM     31  C   UNL     1      -5.562 -15.198  -0.986  0.00  0.00    +0.004 A 
ATOM     32  C   UNL     1      -5.237 -14.917   0.328  0.00  0.00    -0.046 A 
ATOM     33  C   UNL     1      -4.642 -13.713   0.651  0.00  0.00    -0.026 A 
ATOM     34  C   UNL     1      -4.282 -13.410   2.083  0.00  0.00    +0.046 C 
ATOM     35  C   UNL     1      -5.525 -15.928   1.407  0.00  0.00    +0.044 C 
ENDBRANCH  26  28
ENDBRANCH   7  24
BRANCH   1  36
ATOM     36  S   UNL     1      -3.735  -3.192   1.724  0.00  0.00    -0.084 S 
BRANCH  36  37
ATOM     37  C   UNL     1      -2.187  -2.419   1.179  0.00  0.00    +0.077 C 
BRANCH  37  38
ATOM     38  C   UNL     1      -2.192  -0.939   1.566  0.00  0.00    +0.011 C 
BRANCH  38  40
ATOM     39  C   UNL     1      -0.891   1.193   1.494  0.00  0.00    +0.004 C 
ATOM     40  C   UNL     1      -0.886  -0.287   1.107  0.00  0.00    -0.003 C 
ENDBRANCH  38  40
ENDBRANCH  37  38
ENDBRANCH  36  37
ENDBRANCH   1  36
TORSDOF 11
