REMARK  Name = ZINC05900077
REMARK  9 active torsions:
REMARK  status: ('A' for Active; 'I' for Inactive)
REMARK    1  A    between atoms: C_1  and  C_2
REMARK    2  A    between atoms: C_5  and  N_8
REMARK    3  A    between atoms: N_8  and  C_9
REMARK    4  A    between atoms: C_9  and  C_10
REMARK    5  A    between atoms: C_13  and  C_27
REMARK    6  A    between atoms: N_15  and  C_21
REMARK    7  A    between atoms: C_27  and  C_28
REMARK    8  A    between atoms: C_27  and  C_29
REMARK    9  A    between atoms: C_27  and  C_30
REMARK                            x       y       z     vdW  Elec       q    Type
REMARK                         _______ _______ _______ _____ _____    ______ ____
ROOT
ATOM      1  C   UNL     1       3.325  -1.779  -0.039  0.00  0.00    +0.035 A 
ATOM      2  C   UNL     1       1.968  -1.702  -0.026  0.00  0.00    +0.024 A 
ATOM      3  C   UNL     1       1.351  -0.430  -0.013  0.00  0.00    +0.041 A 
ATOM      4  C   UNL     1       0.002  -0.004   0.002  0.00  0.00    +0.078 A 
ATOM      5  N   UNL     1      -0.016   1.299   0.009  0.00  0.00    -0.168 NA
ATOM      6  N   UNL     1       1.298   1.782  -0.001  0.00  0.00    -0.216 N 
ATOM      7  C   UNL     1       2.144   0.720  -0.015  0.00  0.00    +0.145 A 
ATOM      8  N   UNL     1       3.508   0.608  -0.028  0.00  0.00    -0.307 N 
ATOM      9  H   UNL     1       4.134   1.512  -0.028  0.00  0.00    +0.170 HD
ATOM     10  C   UNL     1       4.096  -0.603  -0.040  0.00  0.00    +0.255 A 
ATOM     11  O   UNL     1       5.314  -0.681  -0.051  0.00  0.00    -0.268 OA
ENDROOT
BRANCH   6  12
ATOM     12  C   UNL     1       1.676   3.132   0.003  0.00  0.00    +0.068 A 
ATOM     13  C   UNL     1       2.815   3.534   0.688  0.00  0.00    +0.028 A 
ATOM     14  C   UNL     1       3.187   4.864   0.685  0.00  0.00    +0.002 A 
ATOM     15  C   UNL     1       2.421   5.797   0.011  0.00  0.00    +0.000 A 
ATOM     16  C   UNL     1       1.283   5.400  -0.668  0.00  0.00    +0.002 A 
ATOM     17  C   UNL     1       0.908   4.071  -0.674  0.00  0.00    +0.028 A 
ENDBRANCH   6  12
BRANCH   4  18
ATOM     18  C   UNL     1      -1.207  -0.903   0.008  0.00  0.00    +0.007 C 
ATOM     19  C   UNL     1      -2.477  -0.050   0.025  0.00  0.00    +0.017 C 
ATOM     20  C   UNL     1      -1.198  -1.779  -1.246  0.00  0.00    +0.017 C 
ATOM     21  C   UNL     1      -1.175  -1.794   1.252  0.00  0.00    +0.017 C 
ENDBRANCH   4  18
BRANCH   1  22
ATOM     22  C   UNL     1       4.002  -3.125  -0.053  0.00  0.00    +0.142 C 
BRANCH  22  23
ATOM     23  N   UNL     1       4.316  -3.500  -1.434  0.00  0.00    -0.340 N 
ATOM     24  H   UNL     1       4.052  -2.824  -2.261  0.00  0.00    +0.146 HD
BRANCH  23  29
ATOM     25  C   UNL     1       6.896  -8.432  -2.517  0.00  0.00    +0.044 C 
ATOM     26  C   UNL     1       6.210  -7.122  -2.229  0.00  0.00    -0.050 A 
ATOM     27  C   UNL     1       5.878  -6.274  -3.270  0.00  0.00    +0.005 A 
ATOM     28  C   UNL     1       5.250  -5.072  -3.010  0.00  0.00    +0.023 A 
ATOM     29  C   UNL     1       4.952  -4.715  -1.701  0.00  0.00    +0.027 A 
ATOM     30  C   UNL     1       5.291  -5.567  -0.657  0.00  0.00    +0.023 A 
ATOM     31  C   UNL     1       5.915  -6.769  -0.925  0.00  0.00    +0.005 A 
ENDBRANCH  23  29
ENDBRANCH  22  23
ENDBRANCH   1  22
TORSDOF 5
