REMARK  Name = ZINC39943065
REMARK  9 active torsions:
REMARK  status: ('A' for Active; 'I' for Inactive)
REMARK    1  A    between atoms: C_1  and  C_2
REMARK    2  A    between atoms: C_7  and  C_10
REMARK    3  A    between atoms: N_17  and  C_18
REMARK    4  A    between atoms: C_18  and  C_19
REMARK    5  A    between atoms: N_21  and  C_22
REMARK    6  A    between atoms: C_22  and  C_23
REMARK    7  A    between atoms: C_23  and  C_24
REMARK    8  A    between atoms: C_24  and  C_25
REMARK    9  A    between atoms: C_26  and  C_32
REMARK                            x       y       z     vdW  Elec       q    Type
REMARK                         _______ _______ _______ _____ _____    ______ ____
ROOT
ATOM      1  C   UNL     1      -0.106  -0.774   2.390  0.00  0.00    +0.205 C 
ENDROOT
BRANCH   1  12
ATOM      2  C   UNL     1      -0.019   1.526   0.010  0.00  0.00    +0.049 C 
ATOM      3  C   UNL     1       0.002  -0.004   0.002  0.00  0.00    +0.159 C 
ATOM      4  N   UNL     1       0.675  -0.471  -1.223  0.00  0.00    -0.320 N 
ATOM      5  C   UNL     1       2.049  -0.503  -1.201  0.00  0.00    +0.080 A 
ATOM      6  C   UNL     1       2.780  -0.603  -0.009  0.00  0.00    +0.073 A 
ATOM      7  C   UNL     1       4.223  -0.634  -0.176  0.00  0.00    +0.010 A 
ATOM      8  C   UNL     1       4.674  -0.555  -1.458  0.00  0.00    +0.056 A 
ATOM      9  S   UNL     1       3.176  -0.443  -2.416  0.00  0.00    -0.081 S 
ATOM     10  C   UNL     1       2.026  -0.661   1.261  0.00  0.00    +0.251 C 
ATOM     11  O   UNL     1       2.588  -0.863   2.322  0.00  0.00    -0.270 OA
ATOM     12  N   UNL     1       0.692  -0.479   1.197  0.00  0.00    -0.270 N 
ATOM     13  H   UNL     1       0.173  -0.743  -2.007  0.00  0.00    +0.148 HD
BRANCH   7  14
ATOM     14  C   UNL     1       5.144  -0.743   0.975  0.00  0.00    +0.021 A 
ATOM     15  C   UNL     1       6.195  -1.600   1.161  0.00  0.00    +0.016 A 
ATOM     16  C   UNL     1       6.921  -1.514   2.330  0.00  0.00    +0.008 A 
ATOM     17  C   UNL     1       6.572  -0.587   3.258  0.00  0.00    +0.046 A 
ATOM     18  S   UNL     1       5.179   0.215   2.482  0.00  0.00    -0.097 S 
ENDBRANCH   7  14
ENDBRANCH   1  12
BRANCH   1  19
ATOM     19  C   UNL     1      -0.542  -2.217   2.359  0.00  0.00    +0.230 C 
ATOM     20  O   UNL     1      -0.218  -2.928   1.432  0.00  0.00    -0.274 OA
ATOM     21  N   UNL     1      -1.292  -2.716   3.361  0.00  0.00    -0.314 N 
ATOM     22  H   UNL     1      -1.551  -2.147   4.103  0.00  0.00    +0.149 HD
BRANCH  21  23
ATOM     23  C   UNL     1      -1.715  -4.118   3.331  0.00  0.00    +0.104 C 
BRANCH  23  24
ATOM     24  C   UNL     1      -2.549  -4.426   4.577  0.00  0.00    +0.025 C 
BRANCH  24  25
ATOM     25  C   UNL     1      -2.991  -5.890   4.545  0.00  0.00    +0.058 C 
BRANCH  25  26
ATOM     26  C   UNL     1      -3.812  -6.194   5.772  0.00  0.00    +0.055 A 
ATOM     27  C   UNL     1      -5.168  -5.981   5.920  0.00  0.00    +0.113 A 
ATOM     28  C   UNL     1      -5.518  -6.409   7.226  0.00  0.00    +0.156 A 
ATOM     29  N   UNL     1      -4.431  -6.846   7.810  0.00  0.00    -0.158 NA
ATOM     30  N   UNL     1      -3.359  -6.725   6.919  0.00  0.00    -0.279 N 
ATOM     31  H   UNL     1      -2.441  -6.981   7.101  0.00  0.00    +0.189 HD
ATOM     32  N   UNL     1      -6.795  -6.370   7.789  0.00  0.00    -0.341 N 
ATOM     33  H   UNL     1      -7.542  -6.026   7.274  0.00  0.00    +0.144 HD
ATOM     34  H   UNL     1      -6.935  -6.687   8.695  0.00  0.00    +0.144 HD
BRANCH  27  35
ATOM     35  C   UNL     1      -6.055  -5.432   4.938  0.00  0.00    +0.104 C 
ATOM     36  N   UNL     1      -6.758  -4.996   4.160  0.00  0.00    -0.191 NA
ENDBRANCH  27  35
ENDBRANCH  25  26
ENDBRANCH  24  25
ENDBRANCH  23  24
ENDBRANCH  21  23
ENDBRANCH   1  19
TORSDOF 8
