REMARK  Name = ZINC52617957
REMARK  13 active torsions:
REMARK  status: ('A' for Active; 'I' for Inactive)
REMARK    1  A    between atoms: C_1  and  C_2
REMARK    2  A    between atoms: C_2  and  C_3
REMARK    3  A    between atoms: C_3  and  C_4
REMARK    4  A    between atoms: C_4  and  C_5
REMARK    5  A    between atoms: C_9  and  C_31
REMARK    6  A    between atoms: N_12  and  C_13
REMARK    7  A    between atoms: C_13  and  C_14
REMARK    8  A    between atoms: C_17  and  C_20
REMARK    9  A    between atoms: C_25  and  C_26
REMARK   10  A    between atoms: C_31  and  N_32
REMARK   11  A    between atoms: N_32  and  C_33
REMARK   12  A    between atoms: N_36  and  C_37
REMARK   13  A    between atoms: N_36  and  C_38
REMARK                            x       y       z     vdW  Elec       q    Type
REMARK                         _______ _______ _______ _____ _____    ______ ____
ROOT
ATOM      1  C   UNL     1      -4.669  -3.911   1.826  0.00  0.00    +0.080 C 
ATOM      2  C   UNL     1      -3.926  -5.209   1.518  0.00  0.00    +0.050 C 
ATOM      3  C   UNL     1      -3.405  -5.187   0.105  0.00  0.00    -0.015 C 
ATOM      4  C   UNL     1      -4.090  -4.566  -0.851  0.00  0.00    +0.028 C 
ATOM      5  C   UNL     1      -5.347  -3.877  -0.515  0.00  0.00    +0.244 C 
ATOM      6  O   UNL     1      -6.112  -3.539  -1.398  0.00  0.00    -0.270 OA
ATOM      7  N   UNL     1      -5.643  -3.626   0.771  0.00  0.00    -0.290 N 
ENDROOT
BRANCH   1   8
ATOM      8  C   UNL     1      -3.664  -2.760   1.912  0.00  0.00    +0.023 C 
BRANCH   8   9
ATOM      9  C   UNL     1      -4.381  -1.491   2.379  0.00  0.00    +0.002 C 
BRANCH   9  11
ATOM     10  C   UNL     1      -4.080   0.921   2.956  0.00  0.00    +0.004 C 
ATOM     11  C   UNL     1      -3.397  -0.320   2.375  0.00  0.00    -0.003 C 
ENDBRANCH   9  11
ENDBRANCH   8   9
ENDBRANCH   1   8
BRANCH   7  12
ATOM     12  C   UNL     1      -6.950  -3.063   1.117  0.00  0.00    +0.143 C 
BRANCH  12  13
ATOM     13  C   UNL     1      -7.898  -4.178   1.478  0.00  0.00    -0.030 A 
ATOM     14  C   UNL     1      -8.592  -4.841   0.482  0.00  0.00    +0.006 A 
ATOM     15  C   UNL     1      -9.461  -5.863   0.807  0.00  0.00    +0.009 A 
ATOM     16  C   UNL     1      -9.639  -6.226   2.141  0.00  0.00    -0.017 A 
ATOM     17  C   UNL     1      -8.937  -5.553   3.140  0.00  0.00    +0.009 A 
ATOM     18  C   UNL     1      -8.066  -4.537   2.803  0.00  0.00    +0.006 A 
BRANCH  16  19
ATOM     19  C   UNL     1     -10.572  -7.322   2.496  0.00  0.00    -0.007 A 
ATOM     20  C   UNL     1     -11.866  -7.333   1.984  0.00  0.00    +0.009 A 
ATOM     21  C   UNL     1     -12.732  -8.355   2.317  0.00  0.00    +0.001 A 
ATOM     22  C   UNL     1     -12.320  -9.375   3.160  0.00  0.00    +0.001 A 
ATOM     23  C   UNL     1     -11.041  -9.381   3.676  0.00  0.00    +0.012 A 
ATOM     24  C   UNL     1     -10.152  -8.359   3.346  0.00  0.00    +0.030 A 
BRANCH  24  25
ATOM     25  C   UNL     1      -8.778  -8.363   3.892  0.00  0.00    +0.207 A 
ATOM     26  N   UNL     1      -7.829  -7.451   3.673  0.00  0.00    -0.106 NA
ATOM     27  N   UNL     1      -6.780  -7.819   4.327  0.00  0.00    -0.021 NA
ATOM     28  N   UNL     1      -7.030  -8.919   4.946  0.00  0.00    -0.021 NA
ATOM     29  N   UNL     1      -8.245  -9.277   4.706  0.00  0.00    -0.106 NA
ENDBRANCH  24  25
ENDBRANCH  16  19
ENDBRANCH  12  13
ENDBRANCH   7  12
BRANCH   4  30
ATOM     30  C   UNL     1      -3.582  -4.567  -2.269  0.00  0.00    +0.149 C 
BRANCH  30  31
ATOM     31  N   UNL     1      -4.213  -5.660  -3.014  0.00  0.00    -0.284 N 
ATOM     32  C   UNL     1      -5.473  -5.430  -3.724  0.00  0.00    +0.134 C 
ATOM     33  C   UNL     1      -3.634  -6.876  -3.044  0.00  0.00    +0.304 C 
ATOM     34  O   UNL     1      -2.721  -7.135  -2.284  0.00  0.00    -0.252 OA
ATOM     35  N   UNL     1      -4.068  -7.807  -3.917  0.00  0.00    -0.292 N 
ATOM     36  C   UNL     1      -3.682  -9.210  -3.745  0.00  0.00    +0.133 C 
ATOM     37  C   UNL     1      -4.926  -7.416  -5.039  0.00  0.00    +0.133 C 
ENDBRANCH  30  31
ENDBRANCH   4  30
TORSDOF 9
