REMARK  Name = ZINC16322730
REMARK  8 active torsions:
REMARK  status: ('A' for Active; 'I' for Inactive)
REMARK    1  A    between atoms: C_1  and  C_2
REMARK    2  A    between atoms: C_2  and  C_3
REMARK    3  A    between atoms: C_2  and  C_4
REMARK    4  A    between atoms: C_2  and  C_5
REMARK    5  A    between atoms: C_6  and  C_23
REMARK    6  A    between atoms: C_7  and  C_15
REMARK    7  A    between atoms: C_9  and  C_13
REMARK    8  A    between atoms: C_10  and  N_12
REMARK                            x       y       z     vdW  Elec       q    Type
REMARK                         _______ _______ _______ _____ _____    ______ ____
ROOT
ATOM      1  C   UNL     1       5.581   0.803  -1.146  0.00  0.00    +0.127 C 
ATOM      2  C   UNL     1       4.485   0.054  -0.987  0.00  0.00    +0.080 C 
ATOM      3  C   UNL     1       3.786  -0.032   0.342  0.00  0.00    +0.108 C 
ATOM      4  C   UNL     1       4.692   0.472   1.433  0.00  0.00    +0.099 C 
ATOM      5  C   UNL     1       5.792   1.207   1.137  0.00  0.00    +0.198 C 
ATOM      6  O   UNL     1       6.111   1.512  -0.134  0.00  0.00    -0.444 OA
ENDROOT
BRANCH   3   7
ATOM      7  C   UNL     1       2.535   0.807   0.305  0.00  0.00    -0.033 A 
ATOM      8  C   UNL     1       2.621   2.167   0.068  0.00  0.00    +0.006 A 
ATOM      9  C   UNL     1       1.474   2.937   0.032  0.00  0.00    +0.022 A 
ATOM     10  C   UNL     1       0.239   2.348   0.234  0.00  0.00    +0.059 A 
ATOM     11  C   UNL     1       0.152   0.987   0.471  0.00  0.00    +0.060 A 
ATOM     12  C   UNL     1       1.301   0.217   0.506  0.00  0.00    +0.026 A 
ATOM     13 CL   UNL     1      -1.397   0.246   0.726  0.00  0.00    -0.082 Cl
ATOM     14 CL   UNL     1      -1.203   3.314   0.183  0.00  0.00    -0.082 Cl
ENDBRANCH   3   7
BRANCH   1  16
ATOM     15  C   UNL     1       5.246   1.382  -3.533  0.00  0.00    +0.019 C 
ATOM     16  C   UNL     1       6.242   0.853  -2.499  0.00  0.00    +0.021 C 
ATOM     17  C   UNL     1       7.457   1.782  -2.439  0.00  0.00    +0.019 C 
ATOM     18  C   UNL     1       6.694  -0.552  -2.899  0.00  0.00    +0.019 C 
ENDBRANCH   1  16
BRANCH   5  19
ATOM     19  N   UNL     1       6.597   1.651   2.157  0.00  0.00    -0.328 N 
ATOM     20  H   UNL     1       6.376   1.437   3.077  0.00  0.00    +0.145 HD
ATOM     21  H   UNL     1       7.386   2.178   1.957  0.00  0.00    +0.145 HD
ENDBRANCH   5  19
BRANCH   4  22
ATOM     22  C   UNL     1       4.389   0.171   2.800  0.00  0.00    +0.101 C 
ATOM     23  N   UNL     1       4.149  -0.068   3.884  0.00  0.00    -0.191 NA
ENDBRANCH   4  22
BRANCH   2  24
ATOM     24  C   UNL     1       3.967  -0.680  -2.102  0.00  0.00    +0.099 C 
ATOM     25  N   UNL     1       3.556  -1.262  -2.986  0.00  0.00    -0.191 NA
ENDBRANCH   2  24
TORSDOF 5
