REMARK  Name = ZINC15947269
REMARK  9 active torsions:
REMARK  status: ('A' for Active; 'I' for Inactive)
REMARK    1  A    between atoms: C_1  and  C_2
REMARK    2  A    between atoms: C_2  and  N_3
REMARK    3  A    between atoms: C_11  and  O_34
REMARK    4  A    between atoms: C_13  and  C_16
REMARK    5  A    between atoms: C_19  and  O_24
REMARK    6  A    between atoms: C_20  and  O_22
REMARK    7  A    between atoms: O_22  and  C_23
REMARK    8  A    between atoms: O_24  and  C_25
REMARK    9  A    between atoms: C_25  and  C_27
REMARK                            x       y       z     vdW  Elec       q    Type
REMARK                         _______ _______ _______ _____ _____    ______ ____
ROOT
ATOM      1  N   UNL     1      -1.396  -0.420  -0.066  0.00  0.00    +0.383 N 
ATOM      2  C   UNL     1      -1.347  -1.883   0.053  0.00  0.00    -0.074 C 
ATOM      3  C   UNL     1      -2.734  -2.432   0.402  0.00  0.00    +0.018 C 
ATOM      4  C   UNL     1      -3.727  -1.871  -0.607  0.00  0.00    -0.027 A 
ATOM      5  C   UNL     1      -3.394  -0.793  -1.358  0.00  0.00    -0.021 A 
ATOM      6  S   UNL     1      -4.815  -0.494  -2.370  0.00  0.00    -0.080 S 
ATOM      7  C   UNL     1      -5.795  -1.722  -1.837  0.00  0.00    +0.080 A 
ATOM      8  C   UNL     1      -5.054  -2.395  -0.857  0.00  0.00    +0.067 A 
ATOM      9  C   UNL     1      -5.701  -3.551  -0.185  0.00  0.00    +0.220 C 
ATOM     10  N   UNL     1      -6.800  -4.021  -0.711  0.00  0.00    -0.223 NA
ATOM     11  C   UNL     1      -7.400  -3.532  -1.946  0.00  0.00    +0.224 C 
ATOM     12  N   UNL     1      -7.066  -2.117  -2.188  0.00  0.00    -0.313 N 
ATOM     13  C   UNL     1      -2.099  -0.048  -1.308  0.00  0.00    -0.035 C 
ATOM     14  H   UNL     1      -7.706  -1.499  -2.574  0.00  0.00    +0.149 HD
ATOM     15  H   UNL     1      -1.888  -0.035   0.727  0.00  0.00    -0.081 HD
ENDROOT
BRANCH  11  16
ATOM     16  C   UNL     1      -6.896  -4.360  -3.099  0.00  0.00    -0.002 A 
ATOM     17  C   UNL     1      -6.773  -3.793  -4.354  0.00  0.00    +0.011 A 
ATOM     18  C   UNL     1      -6.311  -4.548  -5.416  0.00  0.00    +0.050 A 
ATOM     19  C   UNL     1      -5.969  -5.877  -5.223  0.00  0.00    +0.173 A 
ATOM     20  C   UNL     1      -6.092  -6.448  -3.960  0.00  0.00    +0.163 A 
ATOM     21  C   UNL     1      -6.551  -5.684  -2.899  0.00  0.00    +0.056 A 
BRANCH  20  22
ATOM     22  O   UNL     1      -5.757  -7.752  -3.767  0.00  0.00    -0.491 OA
ATOM     23  C   UNL     1      -5.909  -8.271  -2.444  0.00  0.00    +0.277 C 
ENDBRANCH  20  22
BRANCH  19  24
ATOM     24  O   UNL     1      -5.515  -6.622  -6.267  0.00  0.00    -0.419 OA
BRANCH  24  25
ATOM     25  C   UNL     1      -6.389  -7.433  -6.893  0.00  0.00    +0.345 C 
ATOM     26  O   UNL     1      -7.565  -7.411  -6.587  0.00  0.00    -0.245 OA
BRANCH  25  27
ATOM     27  C   UNL     1      -5.919  -8.348  -7.952  0.00  0.00    +0.059 A 
ATOM     28  C   UNL     1      -4.568  -8.380  -8.302  0.00  0.00    +0.016 A 
ATOM     29  C   UNL     1      -4.135  -9.237  -9.292  0.00  0.00    +0.021 A 
ATOM     30  C   UNL     1      -5.038 -10.065  -9.938  0.00  0.00    +0.041 A 
ATOM     31  C   UNL     1      -6.380 -10.038  -9.595  0.00  0.00    +0.021 A 
ATOM     32  C   UNL     1      -6.824  -9.190  -8.603  0.00  0.00    +0.016 A 
ATOM     33 CL   UNL     1      -4.485 -11.140 -11.184  0.00  0.00    -0.084 Cl
ENDBRANCH  25  27
ENDBRANCH  24  25
ENDBRANCH  19  24
ENDBRANCH  11  16
BRANCH   1  35
ATOM     34  C   UNL     1      -0.078   1.644  -0.093  0.00  0.00    -0.017 C 
ATOM     35  C   UNL     1      -0.028   0.115  -0.099  0.00  0.00    -0.082 C 
ENDBRANCH   1  35
BRANCH   9  36
ATOM     36  O   UNL     1      -5.171  -4.098   0.933  0.00  0.00    -0.492 OA
ATOM     37  H   UNL     1      -5.676  -4.844   1.284  0.00  0.00    +0.294 HD
ENDBRANCH   9  36
TORSDOF 7
