REMARK  Name = ZINC39684523
REMARK  10 active torsions:
REMARK  status: ('A' for Active; 'I' for Inactive)
REMARK    1  A    between atoms: C_1  and  C_2
REMARK    2  A    between atoms: C_2  and  C_4
REMARK    3  A    between atoms: C_2  and  N_8
REMARK    4  A    between atoms: C_4  and  C_5
REMARK    5  A    between atoms: C_4  and  C_6
REMARK    6  A    between atoms: C_4  and  C_7
REMARK    7  A    between atoms: C_9  and  C_11
REMARK    8  A    between atoms: C_22  and  C_24
REMARK    9  A    between atoms: C_24  and  O_25
REMARK   10  A    between atoms: O_25  and  C_26
REMARK                            x       y       z     vdW  Elec       q    Type
REMARK                         _______ _______ _______ _____ _____    ______ ____
ROOT
ATOM      1  C   UNL     1       0.780  -1.133   3.576  0.00  0.00    +0.100 C 
ATOM      2  C   UNL     1       1.189  -2.611   3.392  0.00  0.00    +0.121 C 
ATOM      3  N   UNL     1       1.007  -3.220   4.731  0.00  0.00    -0.297 N 
ATOM      4  C   UNL     1      -0.237  -2.602   5.250  0.00  0.00    +0.115 C 
ATOM      5  C   UNL     1      -0.156  -1.131   4.797  0.00  0.00    -0.004 C 
ATOM      6  C   UNL     1       0.429  -0.267   5.910  0.00  0.00    -0.010 C 
ATOM      7  C   UNL     1      -0.546  -0.235   7.090  0.00  0.00    -0.082 C 
ATOM      8  N   UNL     1      -1.836   0.308   6.647  0.00  0.00    +0.379 N 
ATOM      9  C   UNL     1      -2.435  -0.578   5.643  0.00  0.00    -0.082 C 
ATOM     10  C   UNL     1      -1.540  -0.625   4.401  0.00  0.00    -0.010 C 
ATOM     11  C   UNL     1       1.794  -4.130   5.338  0.00  0.00    +0.253 C 
ATOM     12  O   UNL     1       1.508  -4.536   6.445  0.00  0.00    -0.272 OA
ATOM     13  H   UNL     1      -2.457   0.385   7.439  0.00  0.00    -0.086 HD
ATOM     14  H   UNL     1      -1.694   1.223   6.245  0.00  0.00    -0.086 HD
ENDROOT
BRANCH   1  16
ATOM     15  N   UNL     1       0.108   0.671   2.023  0.00  0.00    -0.312 N 
ATOM     16  C   UNL     1       0.051  -0.633   2.355  0.00  0.00    +0.218 C 
ATOM     17  O   UNL     1      -0.587  -1.406   1.672  0.00  0.00    -0.275 OA
ATOM     18  H   UNL     1       0.619   1.289   2.570  0.00  0.00    +0.149 HD
BRANCH  15  20
ATOM     19  C   UNL     1      -2.054   1.464   1.200  0.00  0.00    +0.028 C 
ATOM     20  C   UNL     1      -0.600   1.157   0.836  0.00  0.00    +0.075 C 
BRANCH  20  21
ATOM     21  C   UNL     1       0.077   2.429   0.323  0.00  0.00    -0.020 C 
ATOM     22  C   UNL     1       0.040   3.502   1.413  0.00  0.00    +0.012 C 
ATOM     23  C   UNL     1       1.531   2.122  -0.041  0.00  0.00    +0.012 C 
ATOM     24  C   UNL     1      -0.663   2.936  -0.917  0.00  0.00    +0.012 C 
ENDBRANCH  20  21
ENDBRANCH  15  20
ENDBRANCH   1  16
BRANCH  11  25
ATOM     25  C   UNL     1       3.028  -4.643   4.643  0.00  0.00    +0.324 C 
BRANCH  25  26
ATOM     26  O   UNL     1       3.689  -5.591   5.483  0.00  0.00    -0.483 OA
BRANCH  26  27
ATOM     27  C   UNL     1       4.829  -6.153   5.002  0.00  0.00    +0.123 A 
ATOM     28  C   UNL     1       5.304  -5.796   3.748  0.00  0.00    +0.046 A 
ATOM     29  C   UNL     1       6.462  -6.369   3.260  0.00  0.00    +0.005 A 
ATOM     30  C   UNL     1       7.149  -7.297   4.019  0.00  0.00    +0.020 A 
ATOM     31  C   UNL     1       6.678  -7.656   5.270  0.00  0.00    +0.044 A 
ATOM     32  C   UNL     1       5.522  -7.081   5.765  0.00  0.00    +0.065 A 
ATOM     33 CL   UNL     1       7.543  -8.822   6.221  0.00  0.00    -0.083 Cl
ENDBRANCH  26  27
ENDBRANCH  25  26
ENDBRANCH  11  25
TORSDOF 6
