REMARK  Name = ZINC62574319
REMARK  7 active torsions:
REMARK  status: ('A' for Active; 'I' for Inactive)
REMARK    1  A    between atoms: C_1  and  C_2
REMARK    2  A    between atoms: C_5  and  N_8
REMARK    3  A    between atoms: C_11  and  C_14
REMARK    4  A    between atoms: C_14  and  N_15
REMARK    5  A    between atoms: N_15  and  S_16
REMARK    6  A    between atoms: S_16  and  C_19
REMARK    7  A    between atoms: C_23  and  N_25
REMARK                            x       y       z     vdW  Elec       q    Type
REMARK                         _______ _______ _______ _____ _____    ______ ____
ROOT
ATOM      1  N   UNL     1       0.839  -8.777   1.063  0.00  0.00    -0.190 NA
ATOM      2  H   UNL     1       1.231  -8.803   0.176  0.00  0.00    +0.148 HD
ENDROOT
BRANCH   1   3
ATOM      3  S   UNL     1       0.836 -10.137   2.008  0.00  0.00    +0.058 S 
ATOM      4  O   UNL     1       1.446 -11.166   1.240  0.00  0.00    -0.153 OA
ATOM      5  O   UNL     1       1.326  -9.746   3.283  0.00  0.00    -0.153 OA
BRANCH   3   6
ATOM      6  C   UNL     1      -0.846 -10.609   2.237  0.00  0.00    +0.107 A 
ATOM      7  C   UNL     1      -1.565 -10.107   3.306  0.00  0.00    +0.028 A 
ATOM      8  C   UNL     1      -2.884 -10.478   3.486  0.00  0.00    +0.004 A 
ATOM      9  C   UNL     1      -3.485 -11.349   2.597  0.00  0.00    +0.033 A 
ATOM     10  C   UNL     1      -2.766 -11.850   1.527  0.00  0.00    +0.128 A 
ATOM     11  C   UNL     1      -1.448 -11.476   1.345  0.00  0.00    +0.061 A 
BRANCH  10  12
ATOM     12  N   UNL     1      -3.410 -12.783   0.576  0.00  0.00    +0.056 N 
ATOM     13  O   UNL     1      -4.564 -13.108   0.733  0.00  0.00    -0.126 OA
ATOM     14  O   UNL     1      -2.781 -13.221  -0.360  0.00  0.00    -0.126 OA
ENDBRANCH  10  12
ENDBRANCH   3   6
ENDBRANCH   1   3
BRANCH   1  15
ATOM     15  C   UNL     1       0.249  -7.534   1.567  0.00  0.00    +0.111 C 
BRANCH  15  19
ATOM     16  N   UNL     1       0.058  -4.167  -0.021  0.00  0.00    -0.330 N 
ATOM     17  C   UNL     1       0.070  -5.018  -1.220  0.00  0.00    +0.105 C 
ATOM     18  C   UNL     1       0.117  -6.484  -0.742  0.00  0.00    +0.025 C 
ATOM     19  C   UNL     1       0.700  -6.364   0.691  0.00  0.00    +0.023 C 
ATOM     20  C   UNL     1       0.075  -5.033   1.172  0.00  0.00    +0.110 C 
BRANCH  16  25
ATOM     21  C   UNL     1      -0.018   1.503   0.010  0.00  0.00    +0.044 C 
ATOM     22  C   UNL     1       0.002  -0.004   0.002  0.00  0.00    -0.050 A 
ATOM     23  C   UNL     1       0.006  -0.687  -1.200  0.00  0.00    +0.005 A 
ATOM     24  C   UNL     1       0.024  -2.068  -1.212  0.00  0.00    +0.023 A 
ATOM     25  C   UNL     1       0.040  -2.771  -0.013  0.00  0.00    +0.030 A 
ATOM     26  C   UNL     1       0.036  -2.081   1.193  0.00  0.00    +0.023 A 
ATOM     27  C   UNL     1       0.023  -0.700   1.197  0.00  0.00    +0.005 A 
ENDBRANCH  16  25
ENDBRANCH  15  19
ENDBRANCH   1  15
TORSDOF 6
