REMARK  Name = ZINC39420560
REMARK  12 active torsions:
REMARK  status: ('A' for Active; 'I' for Inactive)
REMARK    1  A    between atoms: C_1  and  C_2
REMARK    2  A    between atoms: C_2  and  C_3
REMARK    3  A    between atoms: C_3  and  C_5
REMARK    4  A    between atoms: C_3  and  N_15
REMARK    5  A    between atoms: C_10  and  C_14
REMARK    6  A    between atoms: N_15  and  C_16
REMARK    7  A    between atoms: N_19  and  C_22
REMARK    8  A    between atoms: C_25  and  N_28
REMARK    9  A    between atoms: N_28  and  S_29
REMARK   10  A    between atoms: S_29  and  N_32
REMARK   11  A    between atoms: N_32  and  C_33
REMARK   12  A    between atoms: N_32  and  C_34
REMARK                            x       y       z     vdW  Elec       q    Type
REMARK                         _______ _______ _______ _____ _____    ______ ____
ROOT
ATOM      1  C   UNL     1      -2.303   1.004  -1.395  0.00  0.00    -0.068 C 
ATOM      2  C   UNL     1      -3.266   1.675  -0.412  0.00  0.00    +0.003 C 
ATOM      3  C   UNL     1      -3.308   3.180  -0.692  0.00  0.00    +0.103 C 
ATOM      4  N   UNL     1      -3.648   3.389  -2.106  0.00  0.00    -0.330 N 
ATOM      5  C   UNL     1      -2.841   2.716  -3.133  0.00  0.00    +0.103 C 
ATOM      6  C   UNL     1      -2.804   1.216  -2.826  0.00  0.00    +0.003 C 
ENDROOT
BRANCH   4   7
ATOM      7  C   UNL     1      -4.721   4.213  -2.468  0.00  0.00    +0.030 A 
ATOM      8  C   UNL     1      -5.396   4.940  -1.497  0.00  0.00    +0.025 A 
ATOM      9  C   UNL     1      -6.455   5.752  -1.854  0.00  0.00    +0.026 A 
ATOM     10  C   UNL     1      -6.843   5.843  -3.184  0.00  0.00    +0.049 A 
ATOM     11  C   UNL     1      -6.167   5.116  -4.155  0.00  0.00    +0.026 A 
ATOM     12  C   UNL     1      -5.105   4.308  -3.799  0.00  0.00    +0.025 A 
BRANCH  10  13
ATOM     13  N   UNL     1      -7.915   6.666  -3.546  0.00  0.00    -0.206 N 
ATOM     14  H   UNL     1      -8.739   6.643  -3.033  0.00  0.00    +0.175 HD
BRANCH  13  15
ATOM     15  S   UNL     1      -7.780   7.678  -4.849  0.00  0.00    +0.111 S 
ATOM     16  O   UNL     1      -7.352   6.877  -5.942  0.00  0.00    -0.138 OA
ATOM     17  O   UNL     1      -8.973   8.449  -4.891  0.00  0.00    -0.138 OA
BRANCH  15  18
ATOM     18  N   UNL     1      -6.545   8.732  -4.524  0.00  0.00    -0.170 NA
ATOM     19  C   UNL     1      -5.196   8.458  -5.025  0.00  0.00    +0.132 C 
ATOM     20  C   UNL     1      -6.802   9.940  -3.735  0.00  0.00    +0.132 C 
ENDBRANCH  15  18
ENDBRANCH  13  15
ENDBRANCH  10  13
ENDBRANCH   4   7
BRANCH   1  21
ATOM     21  N   UNL     1      -2.234  -0.434  -1.109  0.00  0.00    +0.388 N 
ATOM     22  H   UNL     1      -1.677  -0.892  -1.815  0.00  0.00    -0.084 HD
ATOM     23  H   UNL     1      -3.165  -0.823  -1.111  0.00  0.00    -0.084 HD
BRANCH  21  24
ATOM     24  C   UNL     1      -1.621  -0.642   0.210  0.00  0.00    -0.004 C 
BRANCH  24  25
ATOM     25  C   UNL     1      -1.691  -2.103   0.572  0.00  0.00    +0.094 A 
ATOM     26  N   UNL     1      -1.764  -3.081  -0.283  0.00  0.00    -0.234 NA
ATOM     27  C   UNL     1      -1.812  -4.265   0.379  0.00  0.00    +0.089 A 
ATOM     28  C   UNL     1      -1.895  -5.597  -0.033  0.00  0.00    +0.030 A 
ATOM     29  C   UNL     1      -1.927  -6.597   0.897  0.00  0.00    +0.005 A 
ATOM     30  C   UNL     1      -1.878  -6.304   2.253  0.00  0.00    -0.048 A 
ATOM     31  C   UNL     1      -1.797  -4.997   2.683  0.00  0.00    +0.031 A 
ATOM     32  C   UNL     1      -1.763  -3.968   1.752  0.00  0.00    +0.066 A 
ATOM     33  N   UNL     1      -1.680  -2.593   1.841  0.00  0.00    -0.343 N 
ATOM     34  C   UNL     1      -1.916  -7.423   3.262  0.00  0.00    +0.044 C 
ATOM     35  H   UNL     1      -1.627  -2.072   2.658  0.00  0.00    +0.167 HD
ENDBRANCH  24  25
BRANCH  24  37
ATOM     36  C   UNL     1       0.460  -0.338   1.560  0.00  0.00    +0.002 C 
ATOM     37  C   UNL     1      -0.157  -0.197   0.167  0.00  0.00    -0.012 C 
ENDBRANCH  24  37
ENDBRANCH  21  24
ENDBRANCH   1  21
TORSDOF 8
