REMARK  Name = ZINC46311026
REMARK  6 active torsions:
REMARK  status: ('A' for Active; 'I' for Inactive)
REMARK    1  A    between atoms: C_1  and  C_2
REMARK    2  A    between atoms: C_2  and  C_3
REMARK    3  A    between atoms: C_3  and  C_5
REMARK    4  A    between atoms: C_3  and  N_14
REMARK    5  A    between atoms: C_5  and  N_6
REMARK    6  A    between atoms: N_9  and  N_10
REMARK                            x       y       z     vdW  Elec       q    Type
REMARK                         _______ _______ _______ _____ _____    ______ ____
ROOT
ATOM      1  C   UNL     1       0.825  -0.559  -1.106  0.00  0.00    -0.051 C 
ENDROOT
BRANCH   1   2
ATOM      2  N   UNL     1       2.161  -0.579  -0.495  0.00  0.00    +0.385 N 
ATOM      3  C   UNL     1       3.120  -1.187  -1.428  0.00  0.00    -0.073 C 
ATOM      4  C   UNL     1       4.536  -0.923  -0.914  0.00  0.00    +0.017 C 
ATOM      5  C   UNL     1       4.637  -1.330   0.534  0.00  0.00    -0.048 A 
ATOM      6  C   UNL     1       5.895  -1.499   1.091  0.00  0.00    +0.004 A 
ATOM      7  C   UNL     1       6.026  -1.868   2.415  0.00  0.00    +0.000 A 
ATOM      8  C   UNL     1       4.898  -2.070   3.188  0.00  0.00    +0.000 A 
ATOM      9  C   UNL     1       3.645  -1.903   2.634  0.00  0.00    +0.002 A 
ATOM     10  C   UNL     1       3.511  -1.534   1.303  0.00  0.00    -0.061 A 
ATOM     11  C   UNL     1       2.125  -1.371   0.738  0.00  0.00    -0.042 C 
ATOM     12  H   UNL     1       2.448   0.365  -0.281  0.00  0.00    -0.081 HD
ENDBRANCH   1   2
BRANCH   1  14
ATOM     13  C   UNL     1       0.226   1.536   0.116  0.00  0.00    +0.002 C 
ATOM     14  C   UNL     1      -0.171   0.080  -0.136  0.00  0.00    -0.017 C 
ENDBRANCH   1  14
BRANCH   1  15
ATOM     15  C   UNL     1       0.386  -1.992  -1.417  0.00  0.00    +0.090 C 
BRANCH  15  16
ATOM     16  N   UNL     1       1.196  -2.523  -2.515  0.00  0.00    -0.300 N 
ATOM     17  C   UNL     1       1.088  -3.820  -2.865  0.00  0.00    +0.316 C 
ATOM     18  O   UNL     1       0.318  -4.549  -2.270  0.00  0.00    -0.251 OA
ATOM     19  N   UNL     1       1.834  -4.310  -3.876  0.00  0.00    -0.217 N 
ATOM     20  H   UNL     1       1.811  -1.942  -2.990  0.00  0.00    +0.150 HD
ATOM     21  H   UNL     1       1.756  -5.243  -4.128  0.00  0.00    +0.174 HD
BRANCH  19  22
ATOM     22  N   UNL     1       2.721  -3.470  -4.562  0.00  0.00    -0.217 N 
ATOM     23  C   UNL     1       3.467  -3.960  -5.572  0.00  0.00    +0.313 C 
ATOM     24  O   UNL     1       4.237  -3.231  -6.168  0.00  0.00    -0.252 OA
ATOM     25  N   UNL     1       3.359  -5.256  -5.923  0.00  0.00    -0.312 N 
ATOM     26  H   UNL     1       2.799  -2.537  -4.309  0.00  0.00    +0.174 HD
ATOM     27  H   UNL     1       2.744  -5.838  -5.448  0.00  0.00    +0.147 HD
ATOM     28  H   UNL     1       3.895  -5.609  -6.650  0.00  0.00    +0.147 HD
ENDBRANCH  19  22
ENDBRANCH  15  16
ENDBRANCH   1  15
TORSDOF 5
