REMARK  Name = ZINC38671208
REMARK  9 active torsions:
REMARK  status: ('A' for Active; 'I' for Inactive)
REMARK    1  A    between atoms: C_1  and  N_2
REMARK    2  A    between atoms: C_10  and  C_12
REMARK    3  A    between atoms: C_12  and  C_14
REMARK    4  A    between atoms: C_12  and  N_30
REMARK    5  A    between atoms: C_14  and  N_15
REMARK    6  A    between atoms: N_15  and  S_16
REMARK    7  A    between atoms: S_16  and  C_19
REMARK    8  A    between atoms: C_22  and  O_25
REMARK    9  A    between atoms: O_25  and  C_26
REMARK                            x       y       z     vdW  Elec       q    Type
REMARK                         _______ _______ _______ _____ _____    ______ ____
ROOT
ATOM      1  C   UNL     1       5.052  -2.897  -0.509  0.00  0.00    -0.022 C 
ENDROOT
BRANCH   1  11
ATOM      2  C   UNL     1      -0.130   0.770   1.001  0.00  0.00    +0.129 C 
ATOM      3  N   UNL     1      -0.025  -0.648   0.648  0.00  0.00    -0.333 N 
ATOM      4  C   UNL     1      -1.225  -1.493   0.585  0.00  0.00    +0.105 C 
ATOM      5  C   UNL     1      -0.906  -2.816   1.293  0.00  0.00    +0.024 C 
ATOM      6  C   UNL     1       0.210  -3.528   0.528  0.00  0.00    +0.038 C 
ATOM      7  C   UNL     1       1.373  -2.597   0.304  0.00  0.00    -0.026 A 
ATOM      8  C   UNL     1       1.220  -1.219   0.361  0.00  0.00    +0.033 A 
ATOM      9  C   UNL     1       2.311  -0.387   0.139  0.00  0.00    +0.023 A 
ATOM     10  C   UNL     1       3.549  -0.930  -0.143  0.00  0.00    +0.004 A 
ATOM     11  C   UNL     1       3.701  -2.303  -0.203  0.00  0.00    -0.059 A 
ATOM     12  C   UNL     1       2.618  -3.135   0.028  0.00  0.00    +0.007 A 
ENDBRANCH   1  11
BRANCH   1  13
ATOM     13  N   UNL     1       6.093  -2.132   0.191  0.00  0.00    +0.385 N 
ATOM     14  C   UNL     1       7.406  -2.726  -0.088  0.00  0.00    -0.078 C 
ATOM     15  C   UNL     1       8.501  -1.886   0.572  0.00  0.00    -0.019 C 
ATOM     16  C   UNL     1       8.267  -1.849   2.085  0.00  0.00    -0.004 C 
ATOM     17  C   UNL     1       6.865  -1.297   2.361  0.00  0.00    -0.019 C 
ATOM     18  C   UNL     1       5.831  -2.159   1.635  0.00  0.00    -0.078 C 
ATOM     19  H   UNL     1       6.082  -1.177  -0.134  0.00  0.00    -0.081 HD
ENDBRANCH   1  13
BRANCH   1  20
ATOM     20  C   UNL     1       5.305  -2.840  -2.017  0.00  0.00    +0.095 C 
BRANCH  20  21
ATOM     21  N   UNL     1       4.306  -3.657  -2.711  0.00  0.00    -0.191 NA
ATOM     22  H   UNL     1       3.763  -4.287  -2.211  0.00  0.00    +0.148 HD
BRANCH  21  23
ATOM     23  S   UNL     1       4.103  -3.505  -4.347  0.00  0.00    +0.058 S 
ATOM     24  O   UNL     1       3.096  -4.436  -4.720  0.00  0.00    -0.153 OA
ATOM     25  O   UNL     1       3.991  -2.114  -4.614  0.00  0.00    -0.153 OA
BRANCH  23  26
ATOM     26  C   UNL     1       5.596  -4.046  -5.110  0.00  0.00    +0.105 A 
ATOM     27  C   UNL     1       6.614  -3.142  -5.353  0.00  0.00    +0.032 A 
ATOM     28  C   UNL     1       7.786  -3.563  -5.951  0.00  0.00    +0.048 A 
ATOM     29  C   UNL     1       7.941  -4.895  -6.308  0.00  0.00    +0.130 A 
ATOM     30  C   UNL     1       6.919  -5.800  -6.062  0.00  0.00    +0.048 A 
ATOM     31  C   UNL     1       5.751  -5.374  -5.459  0.00  0.00    +0.032 A 
BRANCH  29  32
ATOM     32  O   UNL     1       9.092  -5.312  -6.897  0.00  0.00    -0.406 OA
BRANCH  32  33
ATOM     33  C   UNL     1       9.182  -6.697  -7.237  0.00  0.00    +0.575 C 
ATOM     34  F   UNL     1       8.161  -7.024  -8.135  0.00  0.00    -0.133 F 
ATOM     35  F   UNL     1      10.424  -6.952  -7.830  0.00  0.00    -0.133 F 
ATOM     36  F   UNL     1       9.051  -7.471  -6.079  0.00  0.00    -0.133 F 
ENDBRANCH  32  33
ENDBRANCH  29  32
ENDBRANCH  23  26
ENDBRANCH  21  23
ENDBRANCH  20  21
ENDBRANCH   1  20
TORSDOF 8
