REMARK  Name = ZINC15874676
REMARK  5 active torsions:
REMARK  status: ('A' for Active; 'I' for Inactive)
REMARK    1  A    between atoms: C_3  and  C_9
REMARK    2  A    between atoms: N_11  and  N_12
REMARK    3  A    between atoms: N_12  and  C_13
REMARK    4  A    between atoms: C_13  and  N_15
REMARK    5  A    between atoms: N_15  and  C_16
REMARK                            x       y       z     vdW  Elec       q    Type
REMARK                         _______ _______ _______ _____ _____    ______ ____
ROOT
ATOM      1  C   UNL     1       5.167   3.037  -0.057  0.00  0.00    +0.262 C 
ATOM      2  O   UNL     1       6.041   2.435   0.535  0.00  0.00    -0.269 OA
ATOM      3  N   UNL     1       3.902   2.571  -0.048  0.00  0.00    -0.231 N 
ATOM      4  H   UNL     1       3.204   3.051  -0.520  0.00  0.00    +0.173 HD
ENDROOT
BRANCH   1   7
ATOM      5  C   UNL     1       4.795   6.133  -2.148  0.00  0.00    +0.021 A 
ATOM      6  C   UNL     1       4.488   4.974  -1.469  0.00  0.00    +0.016 A 
ATOM      7  C   UNL     1       5.490   4.280  -0.788  0.00  0.00    +0.057 A 
ATOM      8  C   UNL     1       6.799   4.769  -0.795  0.00  0.00    +0.054 A 
ATOM      9  C   UNL     1       7.095   5.929  -1.483  0.00  0.00    +0.040 A 
ATOM     10  C   UNL     1       6.096   6.611  -2.156  0.00  0.00    +0.042 A 
ATOM     11 CL   UNL     1       6.474   8.072  -3.014  0.00  0.00    -0.083 Cl
ATOM     12 CL   UNL     1       8.051   3.918   0.055  0.00  0.00    -0.083 Cl
ENDBRANCH   1   7
BRANCH   3  13
ATOM     13  N   UNL     1       3.596   1.392   0.645  0.00  0.00    -0.246 N 
ATOM     14  H   UNL     1       4.293   0.912   1.117  0.00  0.00    +0.172 HD
BRANCH  13  15
ATOM     15  C   UNL     1       2.331   0.926   0.654  0.00  0.00    +0.147 C 
ATOM     16  S   UNL     1       1.956  -0.515   1.501  0.00  0.00    -0.017 S 
BRANCH  15  17
ATOM     17  N   UNL     1       1.362   1.593  -0.002  0.00  0.00    -0.323 N 
ATOM     18  H   UNL     1       1.574   2.409  -0.482  0.00  0.00    +0.148 HD
BRANCH  17  19
ATOM     19  C   UNL     1      -0.013   1.086   0.008  0.00  0.00    +0.072 C 
ATOM     20  C   UNL     1      -0.729   1.579   1.267  0.00  0.00    +0.022 C 
ATOM     21  C   UNL     1      -2.164   1.050   1.278  0.00  0.00    +0.002 C 
ATOM     22  C   UNL     1      -2.904   1.556   0.038  0.00  0.00    +0.000 C 
ATOM     23  C   UNL     1      -2.188   1.063  -1.221  0.00  0.00    +0.002 C 
ATOM     24  C   UNL     1      -0.753   1.593  -1.232  0.00  0.00    +0.022 C 
ENDBRANCH  17  19
ENDBRANCH  15  17
ENDBRANCH  13  15
ENDBRANCH   3  13
TORSDOF 5
