REMARK  Name = ZINC04024595
REMARK  12 active torsions:
REMARK  status: ('A' for Active; 'I' for Inactive)
REMARK    1  A    between atoms: C_1  and  C_2
REMARK    2  A    between atoms: C_2  and  C_13
REMARK    3  A    between atoms: C_3  and  C_4
REMARK    4  A    between atoms: C_4  and  C_5
REMARK    5  A    between atoms: C_5  and  C_6
REMARK    6  A    between atoms: C_6  and  C_12
REMARK    7  A    between atoms: N_7  and  N_8
REMARK    8  A    between atoms: C_13  and  C_14
REMARK    9  A    between atoms: C_14  and  C_15
REMARK   10  A    between atoms: C_23  and  C_30
REMARK   11  A    between atoms: C_27  and  C_28
REMARK   12  A    between atoms: C_27  and  C_29
REMARK                            x       y       z     vdW  Elec       q    Type
REMARK                         _______ _______ _______ _____ _____    ______ ____
ROOT
ATOM      1  C   UNL     1       5.806  -0.343   2.335  0.00  0.00    +0.031 C 
ENDROOT
BRANCH   1   3
ATOM      2  C   UNL     1       7.582   0.421   0.581  0.00  0.00    +0.039 C 
ATOM      3  C   UNL     1       6.828   0.659   1.864  0.00  0.00    -0.077 C 
ATOM      4  C   UNL     1       7.061   1.738   2.570  0.00  0.00    -0.028 C 
BRANCH   4   5
ATOM      5  C   UNL     1       6.212   2.047   3.776  0.00  0.00    +0.033 C 
BRANCH   5   6
ATOM      6  C   UNL     1       7.087   2.035   5.032  0.00  0.00    +0.056 C 
BRANCH   6   7
ATOM      7  C   UNL     1       6.238   2.344   6.238  0.00  0.00    +0.034 C 
ATOM      8  N   UNL     1       6.068   1.457   7.146  0.00  0.00    -0.188 NA
ATOM      9  C   UNL     1       5.589   3.697   6.376  0.00  0.00    +0.062 C 
BRANCH   8  10
ATOM     10  N   UNL     1       5.279   1.745   8.267  0.00  0.00    -0.191 N 
ATOM     11  C   UNL     1       5.100   0.811   9.223  0.00  0.00    +0.317 C 
ATOM     12  O   UNL     1       4.415   1.061  10.196  0.00  0.00    -0.251 OA
ATOM     13  N   UNL     1       5.681  -0.399   9.099  0.00  0.00    -0.312 N 
ATOM     14  H   UNL     1       4.861   2.616   8.356  0.00  0.00    +0.179 HD
ATOM     15  H   UNL     1       6.227  -0.598   8.323  0.00  0.00    +0.147 HD
ATOM     16  H   UNL     1       5.552  -1.071   9.787  0.00  0.00    +0.147 HD
ENDBRANCH   8  10
ENDBRANCH   6   7
ENDBRANCH   5   6
ENDBRANCH   4   5
ENDBRANCH   1   3
BRANCH   1  17
ATOM     17  C   UNL     1       4.452  -0.031   1.694  0.00  0.00    +0.013 C 
BRANCH  17  18
ATOM     18  C   UNL     1       3.406  -1.014   2.210  0.00  0.00    +0.021 C 
ATOM     19  C   UNL     1       3.726  -2.416   1.756  0.00  0.00    -0.073 C 
ATOM     20  C   UNL     1       4.779  -2.696   1.041  0.00  0.00    +0.008 C 
ATOM     21  C   UNL     1       2.744  -3.481   2.190  0.00  0.00    +0.031 C 
ATOM     22  C   UNL     1       1.351  -3.061   1.713  0.00  0.00    +0.009 C 
ATOM     23  C   UNL     1       0.970  -1.651   2.184  0.00  0.00    +0.002 C 
ATOM     24  C   UNL     1       2.002  -0.628   1.718  0.00  0.00    -0.022 C 
ATOM     25  C   UNL     1       1.985  -0.519   0.197  0.00  0.00    +0.007 C 
ATOM     26  C   UNL     1       0.589  -0.118  -0.284  0.00  0.00    +0.001 C 
ATOM     27  C   UNL     1      -0.436  -1.158   0.150  0.00  0.00    +0.007 C 
ATOM     28  C   UNL     1      -0.437  -1.356   1.664  0.00  0.00    -0.032 C 
ATOM     29  C   UNL     1      -1.363  -2.558   1.964  0.00  0.00    +0.011 C 
ATOM     30  C   UNL     1      -1.092  -0.159   2.356  0.00  0.00    +0.011 C 
ATOM     31  C   UNL     1       1.749   0.762   2.324  0.00  0.00    +0.012 C 
ENDBRANCH  17  18
ENDBRANCH   1  17
TORSDOF 7
