REMARK  Name = ZINC35779049
REMARK  13 active torsions:
REMARK  status: ('A' for Active; 'I' for Inactive)
REMARK    1  A    between atoms: C_1  and  O_2
REMARK    2  A    between atoms: O_2  and  C_3
REMARK    3  A    between atoms: C_3  and  C_4
REMARK    4  A    between atoms: C_4  and  N_5
REMARK    5  A    between atoms: N_5  and  C_6
REMARK    6  A    between atoms: N_5  and  C_16
REMARK    7  A    between atoms: C_6  and  C_7
REMARK    8  A    between atoms: C_7  and  C_9
REMARK    9  A    between atoms: C_7  and  O_15
REMARK   10  A    between atoms: C_16  and  C_17
REMARK   11  A    between atoms: C_27  and  C_29
REMARK   12  A    between atoms: C_29  and  O_30
REMARK   13  A    between atoms: O_30  and  C_31
REMARK                            x       y       z     vdW  Elec       q    Type
REMARK                         _______ _______ _______ _____ _____    ______ ____
ROOT
ATOM      1  C   UNL     1      -1.406  -0.760   3.069  0.00  0.00    +0.200 C 
ATOM      2  O   UNL     1      -0.688   0.069   2.550  0.00  0.00    -0.278 OA
ATOM      3  N   UNL     1      -2.226  -0.405   4.078  0.00  0.00    -0.292 N 
ATOM      4  C   UNL     1      -3.095  -1.403   4.718  0.00  0.00    +0.113 C 
ATOM      5  C   UNL     1      -2.650  -1.565   6.179  0.00  0.00    +0.061 C 
ATOM      6  C   UNL     1      -2.380  -0.211   6.750  0.00  0.00    -0.004 A 
ATOM      7  C   UNL     1      -2.193   0.958   6.079  0.00  0.00    -0.014 A 
ATOM      8  C   UNL     1      -1.947   2.091   6.853  0.00  0.00    +0.013 A 
ATOM      9  C   UNL     1      -1.909   1.994   8.201  0.00  0.00    +0.046 A 
ATOM     10  S   UNL     1      -2.227   0.255   8.455  0.00  0.00    -0.101 S 
ATOM     11  C   UNL     1      -2.259   0.983   4.558  0.00  0.00    +0.144 C 
ENDROOT
BRANCH   1  12
ATOM     12  C   UNL     1      -1.380  -2.187   2.585  0.00  0.00    +0.019 C 
BRANCH  12  13
ATOM     13  N   UNL     1      -0.522  -2.285   1.396  0.00  0.00    +0.389 N 
ATOM     14  H   UNL     1       0.389  -1.907   1.607  0.00  0.00    -0.081 HD
BRANCH  13  15
ATOM     15  C   UNL     1      -1.125  -1.525   0.293  0.00  0.00    -0.050 C 
BRANCH  15  16
ATOM     16  C   UNL     1      -2.425  -2.204  -0.144  0.00  0.00    +0.141 C 
BRANCH  16  18
ATOM     17  C   UNL     1      -4.671  -2.646   0.566  0.00  0.00    +0.193 C 
ATOM     18  O   UNL     1      -3.412  -2.045   0.876  0.00  0.00    -0.385 OA
ENDBRANCH  16  18
ENDBRANCH  15  16
ENDBRANCH  13  15
BRANCH  13  19
ATOM     19  C   UNL     1      -0.389  -3.695   1.004  0.00  0.00    -0.042 C 
BRANCH  19  20
ATOM     20  C   UNL     1       0.642  -3.816  -0.120  0.00  0.00    +0.128 C 
BRANCH  20  21
ATOM     21  C   UNL     1       0.962  -5.270  -0.353  0.00  0.00    -0.021 A 
ATOM     22  C   UNL     1       0.165  -6.028  -1.190  0.00  0.00    +0.006 A 
ATOM     23  C   UNL     1       0.459  -7.362  -1.403  0.00  0.00    +0.000 A 
ATOM     24  C   UNL     1       1.550  -7.938  -0.780  0.00  0.00    +0.000 A 
ATOM     25  C   UNL     1       2.348  -7.179   0.056  0.00  0.00    +0.000 A 
ATOM     26  C   UNL     1       2.057  -5.845   0.266  0.00  0.00    +0.006 A 
ENDBRANCH  20  21
BRANCH  20  27
ATOM     27  O   UNL     1       0.110  -3.248  -1.318  0.00  0.00    -0.389 OA
ATOM     28  H   UNL     1      -0.702  -3.673  -1.628  0.00  0.00    +0.210 HD
ENDBRANCH  20  27
ENDBRANCH  19  20
ENDBRANCH  13  19
ENDBRANCH  12  13
ENDBRANCH   1  12
BRANCH  11  29
ATOM     29  C   UNL     1      -3.559   1.655   4.110  0.00  0.00    +0.256 C 
BRANCH  29  30
ATOM     30  O   UNL     1      -4.668   1.014   4.742  0.00  0.00    -0.490 OA
BRANCH  30  31
ATOM     31  C   UNL     1      -5.906   1.493   4.451  0.00  0.00    +0.123 A 
ATOM     32  C   UNL     1      -6.050   2.555   3.569  0.00  0.00    +0.046 A 
ATOM     33  C   UNL     1      -7.308   3.042   3.273  0.00  0.00    +0.006 A 
ATOM     34  C   UNL     1      -8.426   2.471   3.854  0.00  0.00    +0.038 A 
ATOM     35  C   UNL     1      -8.286   1.411   4.734  0.00  0.00    +0.127 A 
ATOM     36  C   UNL     1      -7.027   0.917   5.029  0.00  0.00    +0.084 A 
ATOM     37  F   UNL     1      -9.379   0.856   5.301  0.00  0.00    -0.205 F 
ENDBRANCH  30  31
ENDBRANCH  29  30
ENDBRANCH  11  29
TORSDOF 12
