REMARK  Name = ZINC14467175
REMARK  4 active torsions:
REMARK  status: ('A' for Active; 'I' for Inactive)
REMARK    1  A    between atoms: C_1  and  C_2
REMARK    2  A    between atoms: C_5  and  O_27
REMARK    3  A    between atoms: C_15  and  C_18
REMARK    4  A    between atoms: C_23  and  O_24
REMARK                            x       y       z     vdW  Elec       q    Type
REMARK                         _______ _______ _______ _____ _____    ______ ____
ROOT
ATOM      1  C   UNL     1      -2.516   3.774  -0.052  0.00  0.00    +0.044 C 
ATOM      2  C   UNL     1      -1.194   3.059   0.060  0.00  0.00    -0.045 A 
ATOM      3  C   UNL     1      -1.170   1.684   0.172  0.00  0.00    +0.007 A 
ATOM      4  C   UNL     1       0.037   1.019   0.281  0.00  0.00    +0.047 A 
ATOM      5  C   UNL     1       1.219   1.737   0.264  0.00  0.00    +0.138 A 
ATOM      6  C   UNL     1       1.196   3.130   0.142  0.00  0.00    +0.074 A 
ATOM      7  C   UNL     1      -0.013   3.792   0.042  0.00  0.00    -0.013 A 
ATOM      8  C   UNL     1      -0.112   5.283  -0.084  0.00  0.00    +0.049 C 
ATOM      9  C   UNL     1      -0.618   5.896   1.202  0.00  0.00    -0.023 C 
ATOM     10  C   UNL     1       0.009   7.018   1.451  0.00  0.00    -0.030 C 
ATOM     11  C   UNL     1       1.019   7.318   0.361  0.00  0.00    +0.033 C 
ATOM     12  C   UNL     1       1.276   5.928  -0.287  0.00  0.00    +0.029 C 
ATOM     13  C   UNL     1       2.296   5.189   0.582  0.00  0.00    +0.109 C 
ATOM     14  N   UNL     1       2.419   3.806   0.120  0.00  0.00    -0.334 N 
ATOM     15  H   UNL     1       3.117   3.308   0.652  0.00  0.00    +0.147 HD
ENDROOT
BRANCH  13  16
ATOM     16  C   UNL     1       3.634   5.874   0.479  0.00  0.00    +0.017 A 
ATOM     17  C   UNL     1       4.102   6.638   1.531  0.00  0.00    +0.029 A 
ATOM     18  C   UNL     1       5.333   7.264   1.440  0.00  0.00    +0.043 A 
ATOM     19  C   UNL     1       6.094   7.133   0.291  0.00  0.00    +0.043 A 
ATOM     20  C   UNL     1       5.627   6.374  -0.765  0.00  0.00    +0.084 A 
ATOM     21  C   UNL     1       4.394   5.742  -0.673  0.00  0.00    +0.140 A 
ATOM     22 CL   UNL     1       6.581   6.211  -2.206  0.00  0.00    -0.080 Cl
ATOM     23 CL   UNL     1       5.921   8.218   2.765  0.00  0.00    -0.083 Cl
BRANCH  21  24
ATOM     24  O   UNL     1       3.933   4.995  -1.710  0.00  0.00    -0.505 OA
ATOM     25  H   UNL     1       3.407   5.493  -2.351  0.00  0.00    +0.292 HD
ENDBRANCH  21  24
ENDBRANCH  13  16
BRANCH   5  26
ATOM     26  O   UNL     1       2.409   1.085   0.365  0.00  0.00    -0.505 OA
ATOM     27  H   UNL     1       2.786   0.821  -0.485  0.00  0.00    +0.292 HD
ENDBRANCH   5  26
TORSDOF 3
