REMARK  Name = ZINC36603180
REMARK  12 active torsions:
REMARK  status: ('A' for Active; 'I' for Inactive)
REMARK    1  A    between atoms: C_1  and  C_2
REMARK    2  A    between atoms: C_5  and  C_7
REMARK    3  A    between atoms: C_7  and  N_8
REMARK    4  A    between atoms: N_8  and  C_9
REMARK    5  A    between atoms: C_9  and  C_11
REMARK    6  A    between atoms: C_9  and  C_20
REMARK    7  A    between atoms: C_14  and  O_19
REMARK    8  A    between atoms: C_15  and  O_17
REMARK    9  A    between atoms: O_17  and  C_18
REMARK   10  A    between atoms: N_22  and  C_23
REMARK   11  A    between atoms: C_29  and  C_31
REMARK   12  A    between atoms: C_34  and  N_37
REMARK                            x       y       z     vdW  Elec       q    Type
REMARK                         _______ _______ _______ _____ _____    ______ ____
ROOT
ATOM      1  C   UNL     1       1.924  -2.537  -3.124  0.00  0.00    +0.193 C 
ENDROOT
BRANCH   1   2
ATOM      2  C   UNL     1       3.361  -2.240  -2.781  0.00  0.00    -0.015 A 
ATOM      3  C   UNL     1       3.761  -2.206  -1.458  0.00  0.00    +0.010 A 
ATOM      4  C   UNL     1       5.078  -1.934  -1.138  0.00  0.00    +0.049 A 
ATOM      5  C   UNL     1       6.001  -1.696  -2.144  0.00  0.00    +0.158 A 
ATOM      6  C   UNL     1       5.598  -1.731  -3.475  0.00  0.00    +0.162 A 
ATOM      7  C   UNL     1       4.277  -2.009  -3.789  0.00  0.00    +0.055 A 
BRANCH   6   8
ATOM      8  O   UNL     1       6.500  -1.498  -4.466  0.00  0.00    -0.491 OA
ATOM      9  C   UNL     1       5.995  -1.441  -5.802  0.00  0.00    +0.277 C 
ENDBRANCH   6   8
BRANCH   5  10
ATOM     10  O   UNL     1       7.297  -1.427  -1.831  0.00  0.00    -0.503 OA
ATOM     11  H   UNL     1       7.858  -2.213  -1.773  0.00  0.00    +0.292 HD
ENDBRANCH   5  10
ENDBRANCH   1   2
BRANCH   1  12
ATOM     12  C   UNL     1       1.438  -1.547  -4.151  0.00  0.00    +0.238 C 
ATOM     13  O   UNL     1       0.826  -0.560  -3.800  0.00  0.00    -0.273 OA
ATOM     14  N   UNL     1       1.683  -1.758  -5.459  0.00  0.00    -0.311 N 
ATOM     15  H   UNL     1       2.172  -2.547  -5.740  0.00  0.00    +0.149 HD
BRANCH  14  16
ATOM     16  C   UNL     1       1.210  -0.795  -6.457  0.00  0.00    +0.073 C 
ATOM     17  C   UNL     1      -0.239  -1.115  -6.828  0.00  0.00    +0.022 C 
ATOM     18  C   UNL     1      -0.733  -0.110  -7.870  0.00  0.00    +0.002 C 
ATOM     19  C   UNL     1       0.145  -0.199  -9.120  0.00  0.00    +0.000 C 
ATOM     20  C   UNL     1       1.594   0.121  -8.750  0.00  0.00    +0.002 C 
ATOM     21  C   UNL     1       2.088  -0.885  -7.707  0.00  0.00    +0.022 C 
ENDBRANCH  14  16
ENDBRANCH   1  12
BRANCH   1  22
ATOM     22  N   UNL     1       1.101  -2.432  -1.916  0.00  0.00    -0.275 N 
ATOM     23  C   UNL     1       0.414  -3.503  -1.473  0.00  0.00    +0.248 C 
ATOM     24  O   UNL     1      -0.195  -3.443  -0.423  0.00  0.00    -0.270 OA
BRANCH  23  25
ATOM     25  C   UNL     1       0.401  -4.752  -2.265  0.00  0.00    +0.037 A 
ATOM     26  C   UNL     1       1.601  -5.331  -2.681  0.00  0.00    +0.015 A 
ATOM     27  C   UNL     1       1.582  -6.496  -3.418  0.00  0.00    +0.033 A 
ATOM     28  C   UNL     1       0.376  -7.091  -3.747  0.00  0.00    +0.126 A 
ATOM     29  C   UNL     1      -0.817  -6.522  -3.338  0.00  0.00    +0.033 A 
ATOM     30  C   UNL     1      -0.811  -5.360  -2.594  0.00  0.00    +0.015 A 
BRANCH  28  31
ATOM     31  N   UNL     1       0.363  -8.341  -4.539  0.00  0.00    +0.056 N 
ATOM     32  O   UNL     1       1.404  -8.840  -4.898  0.00  0.00    -0.126 OA
ATOM     33  O   UNL     1      -0.689  -8.863  -4.827  0.00  0.00    -0.126 OA
ENDBRANCH  28  31
ENDBRANCH  23  25
BRANCH  22  34
ATOM     34  C   UNL     1       1.026  -1.162  -1.190  0.00  0.00    +0.183 C 
BRANCH  34  39
ATOM     35  C   UNL     1      -3.380   0.947  -2.447  0.00  0.00    +0.086 C 
ATOM     36  C   UNL     1      -2.325   0.208  -1.664  0.00  0.00    +0.102 A 
ATOM     37  C   UNL     1      -2.485  -0.329  -0.441  0.00  0.00    +0.045 A 
ATOM     38  C   UNL     1      -1.250  -0.921  -0.089  0.00  0.00    +0.046 A 
ATOM     39  C   UNL     1      -0.409  -0.709  -1.117  0.00  0.00    +0.122 A 
ATOM     40  O   UNL     1      -1.067  -0.029  -2.071  0.00  0.00    -0.463 OA
ENDBRANCH  34  39
ENDBRANCH  22  34
ENDBRANCH   1  22
TORSDOF 10
