REMARK  Name = ZINC43375029
REMARK  4 active torsions:
REMARK  status: ('A' for Active; 'I' for Inactive)
REMARK    1  A    between atoms: C_1  and  C_2
REMARK    2  A    between atoms: C_2  and  C_3
REMARK    3  A    between atoms: C_2  and  C_4
REMARK    4  A    between atoms: C_4  and  C_5
REMARK                            x       y       z     vdW  Elec       q    Type
REMARK                         _______ _______ _______ _____ _____    ______ ____
ROOT
ATOM      1  C   UNL     1      -1.421  -2.035  -0.119  0.00  0.00    +0.104 A 
ATOM      2  N   UNL     1      -1.379  -2.965   0.813  0.00  0.00    -0.145 NA
ATOM      3  N   UNL     1      -1.371  -4.181   0.469  0.00  0.00    -0.126 NA
ATOM      4  C   UNL     1      -1.404  -4.547  -0.797  0.00  0.00    +0.189 A 
ATOM      5  S   UNL     1      -1.457  -3.057  -1.585  0.00  0.00    -0.035 S 
ATOM      6  N   UNL     1      -1.401  -5.827  -1.340  0.00  0.00    -0.247 N 
ATOM      7  C   UNL     1      -1.361  -6.903  -0.529  0.00  0.00    +0.308 C 
ATOM      8  O   UNL     1      -1.233  -6.755   0.670  0.00  0.00    -0.252 OA
ATOM      9  N   UNL     1      -1.462  -8.142  -1.049  0.00  0.00    -0.281 N 
ATOM     10  C   UNL     1      -1.535  -9.332  -0.184  0.00  0.00    +0.114 C 
ATOM     11  C   UNL     1      -2.901  -9.984  -0.397  0.00  0.00    +0.054 C 
ATOM     12  C   UNL     1      -3.208 -10.117  -1.865  0.00  0.00    -0.041 A 
ATOM     13  C   UNL     1      -4.173 -11.044  -2.240  0.00  0.00    +0.004 A 
ATOM     14  C   UNL     1      -4.509 -11.209  -3.567  0.00  0.00    +0.000 A 
ATOM     15  C   UNL     1      -3.884 -10.446  -4.535  0.00  0.00    +0.000 A 
ATOM     16  C   UNL     1      -2.924  -9.526  -4.166  0.00  0.00    +0.005 A 
ATOM     17  C   UNL     1      -2.580  -9.363  -2.831  0.00  0.00    -0.027 A 
ATOM     18  C   UNL     1      -1.510  -8.360  -2.499  0.00  0.00    +0.144 C 
ATOM     19  H   UNL     1      -1.429  -5.946  -2.303  0.00  0.00    +0.158 HD
ENDROOT
BRANCH   1  20
ATOM     20  C   UNL     1      -1.440  -0.534   0.013  0.00  0.00    +0.068 C 
BRANCH  20  22
ATOM     21  C   UNL     1      -0.026   1.527   0.014  0.00  0.00    +0.007 C 
ATOM     22  C   UNL     1      -0.004  -0.003   0.006  0.00  0.00    -0.011 C 
ATOM     23  C   UNL     1       0.733  -0.509   1.247  0.00  0.00    +0.007 C 
ENDBRANCH  20  22
ENDBRANCH   1  20
TORSDOF 2
