REMARK  Name = ZINC33232815
REMARK  9 active torsions:
REMARK  status: ('A' for Active; 'I' for Inactive)
REMARK    1  A    between atoms: C_1  and  C_2
REMARK    2  A    between atoms: C_5  and  N_9
REMARK    3  A    between atoms: C_6  and  C_8
REMARK    4  A    between atoms: C_11  and  C_32
REMARK    5  A    between atoms: C_12  and  C_14
REMARK    6  A    between atoms: N_16  and  C_17
REMARK    7  A    between atoms: C_17  and  C_19
REMARK    8  A    between atoms: C_17  and  C_26
REMARK    9  A    between atoms: N_30  and  C_31
REMARK                            x       y       z     vdW  Elec       q    Type
REMARK                         _______ _______ _______ _____ _____    ______ ____
ROOT
ATOM      1  C   UNL     1       1.323   1.641   1.139  0.00  0.00    +0.267 C 
ATOM      2  O   UNL     1       1.341   2.846   1.302  0.00  0.00    -0.268 OA
ATOM      3  N   UNL     1       0.159   0.968   1.217  0.00  0.00    -0.296 N 
ATOM      4  H   UNL     1       0.144  -0.123   1.074  0.00  0.00    +0.150 HD
ENDROOT
BRANCH   1   8
ATOM      5  N   UNL     1       3.932  -0.673   0.436  0.00  0.00    -0.149 N 
ATOM      6  N   UNL     1       4.689   0.505   0.488  0.00  0.00    -0.152 NA
ATOM      7  C   UNL     1       3.858   1.489   0.740  0.00  0.00    +0.093 A 
ATOM      8  C   UNL     1       2.579   0.916   0.855  0.00  0.00    +0.170 A 
ATOM      9  N   UNL     1       2.698  -0.384   0.657  0.00  0.00    -0.142 NA
ATOM     10  C   UNL     1       4.206   2.949   0.882  0.00  0.00    +0.070 C 
BRANCH   5  15
ATOM     11  C   UNL     1       5.977  -5.867  -0.584  0.00  0.00    +0.044 C 
ATOM     12  C   UNL     1       5.434  -4.488  -0.313  0.00  0.00    -0.050 A 
ATOM     13  C   UNL     1       4.107  -4.326   0.041  0.00  0.00    +0.005 A 
ATOM     14  C   UNL     1       3.607  -3.063   0.290  0.00  0.00    +0.030 A 
ATOM     15  C   UNL     1       4.437  -1.955   0.185  0.00  0.00    +0.089 A 
ATOM     16  C   UNL     1       5.768  -2.121  -0.176  0.00  0.00    -0.023 A 
ATOM     17  C   UNL     1       6.264  -3.387  -0.418  0.00  0.00    +0.008 A 
ATOM     18  C   UNL     1       6.671  -0.921  -0.296  0.00  0.00    +0.046 C 
ENDBRANCH   5  15
ENDBRANCH   1   8
BRANCH   3  19
ATOM     19  C   UNL     1      -1.087   1.687   1.493  0.00  0.00    +0.170 C 
BRANCH  19  20
ATOM     20  C   UNL     1      -2.251   0.907   0.939  0.00  0.00    -0.020 A 
ATOM     21  C   UNL     1      -2.273  -0.471   1.047  0.00  0.00    +0.007 A 
ATOM     22  C   UNL     1      -3.344  -1.186   0.544  0.00  0.00    +0.020 A 
ATOM     23  C   UNL     1      -4.387  -0.524  -0.077  0.00  0.00    +0.041 A 
ATOM     24  C   UNL     1      -4.362   0.855  -0.190  0.00  0.00    +0.020 A 
ATOM     25  C   UNL     1      -3.294   1.570   0.319  0.00  0.00    +0.007 A 
ATOM     26 CL   UNL     1      -5.728  -1.423  -0.716  0.00  0.00    -0.084 Cl
ENDBRANCH  19  20
BRANCH  19  27
ATOM     27  C   UNL     1      -1.254   1.850   2.982  0.00  0.00    +0.134 A 
ATOM     28  N   UNL     1      -1.061   0.918   3.875  0.00  0.00    -0.238 NA
ATOM     29  C   UNL     1      -1.303   1.418   5.096  0.00  0.00    +0.130 A 
ATOM     30  C   UNL     1      -1.659   2.709   4.954  0.00  0.00    +0.106 A 
ATOM     31  N   UNL     1      -1.623   2.985   3.614  0.00  0.00    -0.336 N 
ATOM     32  C   UNL     1      -1.930   4.271   2.982  0.00  0.00    +0.150 C 
ENDBRANCH  19  27
ENDBRANCH   3  19
TORSDOF 5
