REMARK  Name = ZINC14720921
REMARK  11 active torsions:
REMARK  status: ('A' for Active; 'I' for Inactive)
REMARK    1  A    between atoms: C_1  and  C_2
REMARK    2  A    between atoms: C_2  and  C_3
REMARK    3  A    between atoms: C_3  and  C_4
REMARK    4  A    between atoms: C_4  and  N_5
REMARK    5  A    between atoms: N_5  and  C_6
REMARK    6  A    between atoms: C_7  and  N_19
REMARK    7  A    between atoms: N_8  and  C_15
REMARK    8  A    between atoms: C_15  and  C_16
REMARK    9  A    between atoms: C_16  and  C_17
REMARK   10  A    between atoms: C_16  and  C_18
REMARK   11  A    between atoms: C_20  and  C_22
REMARK                            x       y       z     vdW  Elec       q    Type
REMARK                         _______ _______ _______ _____ _____    ______ ____
ROOT
ATOM      1  C   UNL     1       0.031  -2.196   1.140  0.00  0.00    +0.140 A 
ATOM      2  C   UNL     1      -1.025  -2.349   0.265  0.00  0.00    +0.127 A 
ATOM      3  N   UNL     1      -0.973  -1.736  -0.965  0.00  0.00    -0.280 N 
ATOM      4  C   UNL     1       0.097  -0.999  -1.313  0.00  0.00    +0.331 A 
ATOM      5  O   UNL     1       0.126  -0.469  -2.407  0.00  0.00    -0.246 OA
ATOM      6  N   UNL     1       1.133  -0.834  -0.472  0.00  0.00    -0.273 N 
ATOM      7  H   UNL     1       1.913  -0.275  -0.752  0.00  0.00    +0.173 HD
ATOM      8  C   UNL     1       1.133  -1.413   0.744  0.00  0.00    +0.277 A 
ATOM      9  O   UNL     1       2.079  -1.261   1.498  0.00  0.00    -0.266 OA
ENDROOT
BRANCH   1  10
ATOM     10  N   UNL     1       0.007  -2.812   2.408  0.00  0.00    -0.259 N 
ATOM     11  C   UNL     1      -0.032  -2.056   3.523  0.00  0.00    +0.271 C 
ATOM     12  O   UNL     1       0.017  -0.844   3.439  0.00  0.00    -0.268 OA
BRANCH  11  13
ATOM     13  C   UNL     1      -0.135  -2.702   4.851  0.00  0.00    +0.146 A 
ATOM     14  C   UNL     1      -0.302  -1.917   5.991  0.00  0.00    +0.072 A 
ATOM     15  C   UNL     1      -0.398  -2.537   7.229  0.00  0.00    +0.025 A 
ATOM     16  C   UNL     1      -0.322  -3.918   7.283  0.00  0.00    +0.041 A 
ATOM     17  C   UNL     1      -0.155  -4.638   6.109  0.00  0.00    +0.130 A 
ATOM     18  N   UNL     1      -0.073  -4.025   4.947  0.00  0.00    -0.229 NA
ATOM     19 CL   UNL     1      -0.060  -6.370   6.172  0.00  0.00    -0.062 Cl
ATOM     20 CL   UNL     1      -0.391  -0.187   5.863  0.00  0.00    -0.081 Cl
ENDBRANCH  11  13
BRANCH  10  21
ATOM     21  C   UNL     1       0.026  -4.273   2.513  0.00  0.00    +0.114 C 
BRANCH  21  22
ATOM     22  C   UNL     1       1.458  -4.748   2.766  0.00  0.00    +0.019 C 
BRANCH  22  24
ATOM     23  C   UNL     1       2.909  -6.749   3.128  0.00  0.00    +0.004 C 
ATOM     24  C   UNL     1       1.477  -6.274   2.876  0.00  0.00    -0.002 C 
ENDBRANCH  22  24
ENDBRANCH  21  22
ENDBRANCH  10  21
ENDBRANCH   1  10
BRANCH   2  25
ATOM     25  N   UNL     1      -2.117  -3.106   0.619  0.00  0.00    -0.343 N 
ATOM     26  H   UNL     1      -2.887  -3.151   0.031  0.00  0.00    +0.144 HD
ATOM     27  H   UNL     1      -2.117  -3.595   1.456  0.00  0.00    +0.144 HD
ENDBRANCH   2  25
BRANCH   3  28
ATOM     28  C   UNL     1      -2.087  -1.890  -1.904  0.00  0.00    +0.131 C 
BRANCH  28  29
ATOM     29  C   UNL     1      -3.107  -0.773  -1.673  0.00  0.00    +0.003 C 
ATOM     30  C   UNL     1      -2.472   0.576  -2.017  0.00  0.00    +0.009 C 
ATOM     31  C   UNL     1      -4.328  -1.004  -2.566  0.00  0.00    +0.009 C 
ENDBRANCH  28  29
ENDBRANCH   3  28
TORSDOF 8
