REMARK  Name = ZINC14851866
REMARK  3 active torsions:
REMARK  status: ('A' for Active; 'I' for Inactive)
REMARK    1  A    between atoms: C_4  and  C_7
REMARK    2  A    between atoms: C_10  and  C_12
REMARK    3  A    between atoms: C_13  and  C_14
REMARK                            x       y       z     vdW  Elec       q    Type
REMARK                         _______ _______ _______ _____ _____    ______ ____
ROOT
ATOM      1  C   UNL     1       2.388   1.081  -0.015  0.00  0.00    +0.244 C 
ATOM      2  O   UNL     1       2.407  -0.135   0.059  0.00  0.00    -0.270 OA
ATOM      3  N   UNL     1       3.543   1.767  -0.124  0.00  0.00    -0.257 N 
ATOM      4  C   UNL     1       3.554   3.237  -0.125  0.00  0.00    +0.210 C 
ATOM      5  C   UNL     1       4.521   3.724  -1.169  0.00  0.00    +0.235 C 
ATOM      6  O   UNL     1       4.331   4.795  -1.706  0.00  0.00    -0.274 OA
ATOM      7  N   UNL     1       5.591   2.985  -1.517  0.00  0.00    -0.283 N 
ATOM      8  C   UNL     1       5.805   1.725  -0.949  0.00  0.00    +0.055 A 
ATOM      9  C   UNL     1       4.771   1.101  -0.246  0.00  0.00    +0.058 A 
ATOM     10  C   UNL     1       4.966  -0.148   0.315  0.00  0.00    +0.025 A 
ATOM     11  C   UNL     1       6.191  -0.777   0.181  0.00  0.00    +0.002 A 
ATOM     12  C   UNL     1       7.217  -0.160  -0.511  0.00  0.00    +0.002 A 
ATOM     13  C   UNL     1       7.028   1.088  -1.076  0.00  0.00    +0.025 A 
ATOM     14  H   UNL     1       6.220   3.330  -2.169  0.00  0.00    +0.155 HD
ENDROOT
BRANCH   1  16
ATOM     15  C   UNL     1      -0.013   1.078   0.018  0.00  0.00    +0.020 C 
ATOM     16  C   UNL     1       1.155   1.772   0.013  0.00  0.00    +0.069 C 
BRANCH  15  20
ATOM     17  C   UNL     1      -3.330   3.484   0.087  0.00  0.00    +0.020 A 
ATOM     18  C   UNL     1      -3.590   2.123   0.066  0.00  0.00    +0.017 A 
ATOM     19  C   UNL     1      -2.538   1.252   0.042  0.00  0.00    +0.016 A 
ATOM     20  C   UNL     1      -1.246   1.769   0.040  0.00  0.00    +0.013 A 
ATOM     21  S   UNL     1      -1.546   3.528   0.079  0.00  0.00    -0.089 S 
BRANCH  17  25
ATOM     22  C   UNL     1      -6.077   6.722   0.169  0.00  0.00    +0.000 A 
ATOM     23  C   UNL     1      -4.716   6.973   0.159  0.00  0.00    +0.001 A 
ATOM     24  C   UNL     1      -3.818   5.926   0.133  0.00  0.00    +0.009 A 
ATOM     25  C   UNL     1      -4.285   4.610   0.115  0.00  0.00    -0.011 A 
ATOM     26  C   UNL     1      -5.660   4.364   0.118  0.00  0.00    +0.009 A 
ATOM     27  C   UNL     1      -6.547   5.420   0.151  0.00  0.00    +0.001 A 
ENDBRANCH  17  25
ENDBRANCH  15  20
ENDBRANCH   1  16
TORSDOF 3
