REMARK  Name = ZINC60042688
REMARK  7 active torsions:
REMARK  status: ('A' for Active; 'I' for Inactive)
REMARK    1  A    between atoms: C_1  and  O_2
REMARK    2  A    between atoms: O_2  and  C_3
REMARK    3  A    between atoms: N_15  and  C_19
REMARK    4  A    between atoms: C_19  and  C_20
REMARK    5  A    between atoms: C_20  and  C_22
REMARK    6  A    between atoms: C_20  and  O_33
REMARK    7  A    between atoms: C_22  and  N_23
REMARK                            x       y       z     vdW  Elec       q    Type
REMARK                         _______ _______ _______ _____ _____    ______ ____
ROOT
ATOM      1  C   UNL     1       0.626  -0.618   1.042  0.00  0.00    +0.120 A 
ATOM      2  C   UNL     1       1.203   0.136   2.053  0.00  0.00    +0.046 A 
ATOM      3  C   UNL     1       1.835  -0.496   3.102  0.00  0.00    +0.010 A 
ATOM      4  C   UNL     1       1.899  -1.883   3.157  0.00  0.00    -0.012 A 
ATOM      5  C   UNL     1       1.323  -2.635   2.156  0.00  0.00    -0.038 A 
ATOM      6  C   UNL     1       0.684  -2.000   1.100  0.00  0.00    +0.049 A 
ATOM      7  C   UNL     1       1.345  -4.141   2.162  0.00  0.00    +0.036 C 
ATOM      8  C   UNL     1       2.432  -4.660   3.100  0.00  0.00    +0.008 C 
ATOM      9  C   UNL     1       2.258  -3.985   4.466  0.00  0.00    +0.040 C 
ATOM     10  C   UNL     1       2.610  -2.510   4.324  0.00  0.00    +0.138 C 
ATOM     11  C   UNL     1       4.105  -2.338   4.178  0.00  0.00    +0.251 C 
ATOM     12  O   UNL     1       4.811  -2.772   3.293  0.00  0.00    -0.272 OA
ATOM     13  N   UNL     1       4.490  -1.601   5.240  0.00  0.00    -0.222 N 
ATOM     14  C   UNL     1       3.452  -1.289   6.026  0.00  0.00    +0.310 C 
ATOM     15  O   UNL     1       3.547  -0.630   7.043  0.00  0.00    -0.252 OA
ATOM     16  N   UNL     1       2.289  -1.786   5.562  0.00  0.00    -0.281 N 
ATOM     17  H   UNL     1       1.413  -1.686   5.966  0.00  0.00    +0.152 HD
ENDROOT
BRANCH   1  19
ATOM     18  C   UNL     1      -0.017   1.425   0.010  0.00  0.00    +0.277 C 
ATOM     19  O   UNL     1       0.002  -0.004   0.002  0.00  0.00    -0.495 OA
ENDBRANCH   1  19
BRANCH  13  20
ATOM     20  C   UNL     1       5.872  -1.191   5.502  0.00  0.00    +0.147 C 
BRANCH  20  21
ATOM     21  C   UNL     1       6.139   0.158   4.832  0.00  0.00    +0.116 C 
BRANCH  21  22
ATOM     22  O   UNL     1       5.936   0.039   3.423  0.00  0.00    -0.392 OA
ATOM     23  H   UNL     1       6.512  -0.610   2.996  0.00  0.00    +0.210 HD
ENDBRANCH  21  22
BRANCH  21  24
ATOM     24  C   UNL     1       7.583   0.586   5.106  0.00  0.00    -0.045 C 
BRANCH  24  25
ATOM     25  N   UNL     1       7.805   1.934   4.566  0.00  0.00    +0.384 N 
ATOM     26  C   UNL     1       9.219   2.303   4.731  0.00  0.00    -0.074 C 
ATOM     27  C   UNL     1       9.495   3.557   3.901  0.00  0.00    +0.017 C 
ATOM     28  C   UNL     1       8.470   4.615   4.218  0.00  0.00    -0.048 A 
ATOM     29  C   UNL     1       8.729   5.926   3.848  0.00  0.00    +0.004 A 
ATOM     30  C   UNL     1       7.812   6.921   4.119  0.00  0.00    +0.000 A 
ATOM     31  C   UNL     1       6.629   6.609   4.763  0.00  0.00    +0.000 A 
ATOM     32  C   UNL     1       6.370   5.305   5.134  0.00  0.00    +0.002 A 
ATOM     33  C   UNL     1       7.292   4.304   4.863  0.00  0.00    -0.061 A 
ATOM     34  C   UNL     1       6.972   2.896   5.293  0.00  0.00    -0.043 C 
ATOM     35  H   UNL     1       7.562   1.949   3.587  0.00  0.00    -0.081 HD
ENDBRANCH  24  25
ENDBRANCH  21  24
ENDBRANCH  20  21
ENDBRANCH  13  20
TORSDOF 6
