REMARK  Name = ZINC65198488
REMARK  7 active torsions:
REMARK  status: ('A' for Active; 'I' for Inactive)
REMARK    1  A    between atoms: C_1  and  N_2
REMARK    2  A    between atoms: N_2  and  C_3
REMARK    3  A    between atoms: C_10  and  C_12
REMARK    4  A    between atoms: N_14  and  N_15
REMARK    5  A    between atoms: N_18  and  C_19
REMARK    6  A    between atoms: C_19  and  C_20
REMARK    7  A    between atoms: C_20  and  C_21
REMARK                            x       y       z     vdW  Elec       q    Type
REMARK                         _______ _______ _______ _____ _____    ______ ____
ROOT
ATOM      1  C   UNL     1      -6.877  -3.444   0.046  0.00  0.00    +0.267 C 
ATOM      2  O   UNL     1      -6.916  -4.661   0.046  0.00  0.00    -0.268 OA
ATOM      3  N   UNL     1      -8.022  -2.733   0.055  0.00  0.00    -0.229 N 
ATOM      4  H   UNL     1      -7.991  -1.763   0.056  0.00  0.00    +0.173 HD
ENDROOT
BRANCH   1  14
ATOM      5  C   UNL     1      -0.018   1.461   0.010  0.00  0.00    +0.131 C 
ATOM      6  N   UNL     1       0.002  -0.004   0.002  0.00  0.00    -0.316 N 
ATOM      7  C   UNL     1       1.281  -0.719  -0.014  0.00  0.00    +0.131 C 
ATOM      8  C   UNL     1      -1.183  -0.710   0.009  0.00  0.00    +0.162 A 
ATOM      9  N   UNL     1      -2.421  -0.255   0.018  0.00  0.00    -0.218 NA
ATOM     10  C   UNL     1      -3.472  -1.065   0.025  0.00  0.00    +0.118 A 
ATOM     11  C   UNL     1      -3.230  -2.451   0.022  0.00  0.00    +0.049 A 
ATOM     12  S   UNL     1      -1.439  -2.477   0.003  0.00  0.00    -0.052 S 
ATOM     13  C   UNL     1      -4.318  -3.296   0.029  0.00  0.00    +0.038 A 
ATOM     14  C   UNL     1      -5.589  -2.754   0.039  0.00  0.00    +0.078 A 
ATOM     15  S   UNL     1      -5.261  -1.002   0.036  0.00  0.00    -0.063 S 
ENDBRANCH   1  14
BRANCH   3  16
ATOM     16  N   UNL     1      -9.257  -3.394   0.063  0.00  0.00    -0.218 N 
ATOM     17  C   UNL     1     -10.402  -2.683   0.071  0.00  0.00    +0.316 C 
ATOM     18  O   UNL     1     -11.474  -3.257   0.078  0.00  0.00    -0.251 OA
ATOM     19  N   UNL     1     -10.359  -1.336   0.072  0.00  0.00    -0.298 N 
ATOM     20  H   UNL     1      -9.289  -4.364   0.062  0.00  0.00    +0.174 HD
ATOM     21  H   UNL     1      -9.504  -0.878   0.067  0.00  0.00    +0.150 HD
BRANCH  19  22
ATOM     22  C   UNL     1     -11.604  -0.563   0.081  0.00  0.00    +0.111 C 
BRANCH  22  23
ATOM     23  C   UNL     1     -11.276   0.931   0.080  0.00  0.00    +0.061 C 
BRANCH  23  24
ATOM     24  C   UNL     1     -12.556   1.726   0.090  0.00  0.00    -0.009 A 
ATOM     25  C   UNL     1     -13.271   2.180   1.148  0.00  0.00    +0.011 A 
ATOM     26  C   UNL     1     -14.429   2.898   0.916  0.00  0.00    +0.008 A 
ATOM     27  C   UNL     1     -14.816   3.127  -0.363  0.00  0.00    +0.045 A 
ATOM     28  S   UNL     1     -13.520   2.321  -1.290  0.00  0.00    -0.102 S 
ENDBRANCH  23  24
ENDBRANCH  22  23
ENDBRANCH  19  22
ENDBRANCH   3  16
TORSDOF 5
