REMARK  Name = ZINC40172632
REMARK  11 active torsions:
REMARK  status: ('A' for Active; 'I' for Inactive)
REMARK    1  A    between atoms: C_1  and  C_2
REMARK    2  A    between atoms: C_2  and  C_3
REMARK    3  A    between atoms: C_3  and  C_5
REMARK    4  A    between atoms: C_3  and  N_16
REMARK    5  A    between atoms: N_7  and  C_8
REMARK    6  A    between atoms: C_12  and  C_15
REMARK    7  A    between atoms: C_13  and  C_14
REMARK    8  A    between atoms: C_20  and  S_21
REMARK    9  A    between atoms: S_21  and  C_22
REMARK   10  A    between atoms: C_22  and  C_23
REMARK   11  A    between atoms: C_23  and  C_24
REMARK                            x       y       z     vdW  Elec       q    Type
REMARK                         _______ _______ _______ _____ _____    ______ ____
ROOT
ATOM      1  N   UNL     1       2.125  -0.090  -1.226  0.00  0.00    -0.279 N 
ATOM      2  C   UNL     1       3.030  -0.438  -0.264  0.00  0.00    +0.216 A 
ATOM      3  N   UNL     1       4.178   0.116  -0.568  0.00  0.00    -0.113 NA
ATOM      4  N   UNL     1       4.008   0.841  -1.756  0.00  0.00    -0.121 NA
ATOM      5  C   UNL     1       2.763   0.700  -2.140  0.00  0.00    +0.194 A 
ATOM      6  N   UNL     1       2.779  -1.240   0.842  0.00  0.00    -0.328 N 
ATOM      7  H   UNL     1       1.892  -1.607   0.983  0.00  0.00    +0.145 HD
ATOM      8  H   UNL     1       3.490  -1.433   1.473  0.00  0.00    +0.145 HD
ENDROOT
BRANCH   1   9
ATOM      9  C   UNL     1       0.718  -0.497  -1.272  0.00  0.00    +0.178 C 
BRANCH   9  10
ATOM     10  C   UNL     1       0.632  -2.000  -1.331  0.00  0.00    +0.240 C 
ATOM     11  O   UNL     1       1.645  -2.666  -1.334  0.00  0.00    -0.273 OA
ATOM     12  N   UNL     1      -0.572  -2.604  -1.380  0.00  0.00    -0.284 N 
ATOM     13  H   UNL     1      -1.383  -2.078  -1.297  0.00  0.00    +0.155 HD
BRANCH  12  14
ATOM     14  C   UNL     1      -0.652  -3.991  -1.551  0.00  0.00    +0.037 A 
ATOM     15  C   UNL     1       0.386  -4.677  -2.168  0.00  0.00    +0.023 A 
ATOM     16  C   UNL     1       0.303  -6.045  -2.335  0.00  0.00    +0.002 A 
ATOM     17  C   UNL     1      -0.811  -6.732  -1.889  0.00  0.00    +0.004 A 
ATOM     18  C   UNL     1      -1.846  -6.052  -1.275  0.00  0.00    -0.046 A 
ATOM     19  C   UNL     1      -1.767  -4.684  -1.099  0.00  0.00    -0.026 A 
ATOM     20  C   UNL     1      -2.893  -3.944  -0.423  0.00  0.00    +0.046 C 
ATOM     21  C   UNL     1      -3.059  -6.804  -0.791  0.00  0.00    +0.044 C 
ENDBRANCH  12  14
ENDBRANCH   9  10
BRANCH   9  23
ATOM     22  C   UNL     1      -0.020   1.537  -0.022  0.00  0.00    +0.006 C 
ATOM     23  C   UNL     1       0.000   0.007  -0.018  0.00  0.00    +0.031 C 
ENDBRANCH   9  23
ENDBRANCH   1   9
BRANCH   5  24
ATOM     24  S   UNL     1       2.038   1.409  -3.582  0.00  0.00    -0.086 S 
BRANCH  24  25
ATOM     25  C   UNL     1       3.400   2.329  -4.351  0.00  0.00    +0.082 C 
BRANCH  25  26
ATOM     26  C   UNL     1       2.901   3.003  -5.630  0.00  0.00    +0.046 C 
BRANCH  26  27
ATOM     27  C   UNL     1       4.032   3.767  -6.269  0.00  0.00    -0.047 A 
ATOM     28  C   UNL     1       4.253   5.088  -5.928  0.00  0.00    +0.003 A 
ATOM     29  C   UNL     1       5.290   5.790  -6.514  0.00  0.00    +0.000 A 
ATOM     30  C   UNL     1       6.107   5.169  -7.440  0.00  0.00    +0.000 A 
ATOM     31  C   UNL     1       5.887   3.847  -7.781  0.00  0.00    +0.000 A 
ATOM     32  C   UNL     1       4.852   3.145  -7.192  0.00  0.00    +0.003 A 
ENDBRANCH  26  27
ENDBRANCH  25  26
ENDBRANCH  24  25
ENDBRANCH   5  24
TORSDOF 8
