REMARK  Name = ZINC09508662
REMARK  9 active torsions:
REMARK  status: ('A' for Active; 'I' for Inactive)
REMARK    1  A    between atoms: C_1  and  C_2
REMARK    2  A    between atoms: C_2  and  C_3
REMARK    3  A    between atoms: C_3  and  N_4
REMARK    4  A    between atoms: C_5  and  N_31
REMARK    5  A    between atoms: C_6  and  C_13
REMARK    6  A    between atoms: C_13  and  C_15
REMARK    7  A    between atoms: C_15  and  N_55
REMARK    8  A    between atoms: N_18  and  C_21
REMARK    9  A    between atoms: C_25  and  C_27
REMARK                            x       y       z     vdW  Elec       q    Type
REMARK                         _______ _______ _______ _____ _____    ______ ____
ROOT
ATOM      1  C   UNL     1       0.628   9.292   0.070  0.00  0.00    +0.003 C 
ENDROOT
BRANCH   1   7
ATOM      2  C   UNL     1       1.669   7.524   1.358  0.00  0.00    -0.059 C 
ATOM      3  C   UNL     1       1.804   6.005   1.486  0.00  0.00    +0.086 C 
ATOM      4  N   UNL     1       0.483   5.419   1.752  0.00  0.00    -0.333 N 
ATOM      5  C   UNL     1      -0.458   5.735   0.668  0.00  0.00    +0.086 C 
ATOM      6  C   UNL     1      -0.594   7.254   0.540  0.00  0.00    -0.059 C 
ATOM      7  N   UNL     1       0.737   7.828   0.251  0.00  0.00    +0.387 N 
ATOM      8  H   UNL     1       1.100   7.411  -0.614  0.00  0.00    -0.081 HD
BRANCH   4   9
ATOM      9  C   UNL     1       0.577   4.039   1.946  0.00  0.00    +0.030 A 
ATOM     10  C   UNL     1       1.813   3.409   1.874  0.00  0.00    +0.023 A 
ATOM     11  C   UNL     1       1.903   2.045   2.066  0.00  0.00    +0.002 A 
ATOM     12  C   UNL     1       0.764   1.305   2.330  0.00  0.00    +0.012 A 
ATOM     13  C   UNL     1      -0.468   1.928   2.397  0.00  0.00    +0.057 A 
ATOM     14  C   UNL     1      -0.564   3.294   2.212  0.00  0.00    +0.035 A 
BRANCH  13  15
ATOM     15  C   UNL     1      -1.707   1.118   2.678  0.00  0.00    +0.417 C 
ATOM     16  F   UNL     1      -1.358  -0.228   2.834  0.00  0.00    -0.166 F 
ATOM     17  F   UNL     1      -2.311   1.581   3.852  0.00  0.00    -0.166 F 
ATOM     18  F   UNL     1      -2.601   1.248   1.611  0.00  0.00    -0.166 F 
ENDBRANCH  13  15
ENDBRANCH   4   9
ENDBRANCH   1   7
BRANCH   1  19
ATOM     19  C   UNL     1       1.941   9.817  -0.449  0.00  0.00    +0.155 C 
ATOM     20  O   UNL     1       2.836   9.045  -0.730  0.00  0.00    -0.294 OA
BRANCH  19  23
ATOM     21  N   UNL     1       3.523  13.081  -1.106  0.00  0.00    -0.281 N 
ATOM     22  C   UNL     1       3.388  11.730  -0.963  0.00  0.00    +0.116 A 
ATOM     23  C   UNL     1       2.132  11.206  -0.609  0.00  0.00    +0.118 A 
ATOM     24  C   UNL     1       1.024  12.150  -0.417  0.00  0.00    +0.266 A 
ATOM     25  O   UNL     1      -0.086  11.752  -0.115  0.00  0.00    -0.267 OA
ATOM     26  N   UNL     1       1.263  13.468  -0.576  0.00  0.00    -0.274 N 
ATOM     27  H   UNL     1       0.521  14.125  -0.439  0.00  0.00    +0.173 HD
ATOM     28  C   UNL     1       2.485  13.911  -0.915  0.00  0.00    +0.331 A 
ATOM     29  O   UNL     1       2.657  15.106  -1.055  0.00  0.00    -0.246 OA
BRANCH  22  30
ATOM     30  N   UNL     1       4.451  10.904  -1.160  0.00  0.00    -0.344 N 
ATOM     31  H   UNL     1       5.203  11.200  -1.696  0.00  0.00    +0.144 HD
ATOM     32  H   UNL     1       4.457  10.018  -0.764  0.00  0.00    +0.144 HD
ENDBRANCH  22  30
BRANCH  21  33
ATOM     33  C   UNL     1       4.827  13.637  -1.476  0.00  0.00    +0.128 C 
BRANCH  33  35
ATOM     34  C   UNL     1       6.296  14.298  -3.385  0.00  0.00    +0.005 C 
ATOM     35  C   UNL     1       4.934  13.718  -3.000  0.00  0.00    +0.018 C 
ENDBRANCH  33  35
ENDBRANCH  21  33
ENDBRANCH  19  23
ENDBRANCH   1  19
TORSDOF 8
