REMARK  Name = ZINC06108491
REMARK  5 active torsions:
REMARK  status: ('A' for Active; 'I' for Inactive)
REMARK    1  A    between atoms: C_1  and  C_2
REMARK    2  A    between atoms: C_2  and  C_21
REMARK    3  A    between atoms: N_5  and  C_9
REMARK    4  A    between atoms: C_9  and  C_10
REMARK    5  A    between atoms: N_12  and  C_13
REMARK                            x       y       z     vdW  Elec       q    Type
REMARK                         _______ _______ _______ _____ _____    ______ ____
ROOT
ATOM      1  C   UNL     1       0.099  -4.849  -1.284  0.00  0.00    +0.047 C 
ATOM      2  C   UNL     1      -1.174  -4.269  -0.664  0.00  0.00    +0.135 C 
ATOM      3  C   UNL     1      -1.370  -2.827  -1.090  0.00  0.00    +0.251 C 
ATOM      4  O   UNL     1      -1.526  -2.412  -2.218  0.00  0.00    -0.272 OA
ATOM      5  N   UNL     1      -1.333  -2.104   0.046  0.00  0.00    -0.215 N 
ATOM      6  C   UNL     1      -1.151  -2.880   1.120  0.00  0.00    +0.310 C 
ATOM      7  O   UNL     1      -1.087  -2.456   2.258  0.00  0.00    -0.252 OA
ATOM      8  N   UNL     1      -1.044  -4.183   0.801  0.00  0.00    -0.281 N 
ATOM      9  H   UNL     1      -0.908  -4.921   1.415  0.00  0.00    +0.152 HD
ENDROOT
BRANCH   2  10
ATOM     10  C   UNL     1      -2.372  -5.101  -1.042  0.00  0.00    -0.015 A 
ATOM     11  C   UNL     1      -3.069  -4.822  -2.203  0.00  0.00    +0.006 A 
ATOM     12  C   UNL     1      -4.167  -5.585  -2.548  0.00  0.00    +0.004 A 
ATOM     13  C   UNL     1      -4.573  -6.630  -1.734  0.00  0.00    -0.044 A 
ATOM     14  C   UNL     1      -3.876  -6.909  -0.574  0.00  0.00    -0.044 A 
ATOM     15  C   UNL     1      -2.772  -6.146  -0.233  0.00  0.00    +0.010 A 
ATOM     16  C   UNL     1      -4.511  -8.087   0.134  0.00  0.00    +0.036 C 
ATOM     17  C   UNL     1      -5.919  -8.219  -0.484  0.00  0.00    +0.009 C 
ATOM     18  C   UNL     1      -5.724  -7.601  -1.885  0.00  0.00    +0.036 C 
ENDBRANCH   2  10
BRANCH   5  19
ATOM     19  C   UNL     1      -1.482  -0.647   0.099  0.00  0.00    +0.214 C 
BRANCH  19  20
ATOM     20  C   UNL     1      -0.126   0.001  -0.015  0.00  0.00    +0.235 C 
ATOM     21  O   UNL     1       0.867  -0.687  -0.130  0.00  0.00    -0.274 OA
ATOM     22  N   UNL     1      -0.016   1.344   0.009  0.00  0.00    -0.283 N 
ATOM     23  H   UNL     1      -0.814   1.895   0.032  0.00  0.00    +0.155 HD
BRANCH  22  24
ATOM     24  C   UNL     1       1.250   1.943  -0.003  0.00  0.00    +0.052 A 
ATOM     25  C   UNL     1       2.288   1.362  -0.718  0.00  0.00    +0.027 A 
ATOM     26  C   UNL     1       3.534   1.958  -0.733  0.00  0.00    +0.040 A 
ATOM     27  C   UNL     1       3.752   3.128  -0.026  0.00  0.00    +0.125 A 
ATOM     28  C   UNL     1       2.720   3.708   0.692  0.00  0.00    +0.060 A 
ATOM     29  C   UNL     1       1.470   3.118   0.706  0.00  0.00    +0.065 A 
ATOM     30 CL   UNL     1       0.176   3.844   1.608  0.00  0.00    -0.082 Cl
ATOM     31  F   UNL     1       4.973   3.706  -0.039  0.00  0.00    -0.205 F 
ENDBRANCH  22  24
ENDBRANCH  19  20
ENDBRANCH   5  19
TORSDOF 4
