REMARK  Name = ZINC26440985
REMARK  2 active torsions:
REMARK  status: ('A' for Active; 'I' for Inactive)
REMARK    1  A    between atoms: C_6  and  C_10
REMARK    2  A    between atoms: C_8  and  N_9
REMARK                            x       y       z     vdW  Elec       q    Type
REMARK                         _______ _______ _______ _____ _____    ______ ____
ROOT
ATOM      1  C   UNL     1      -0.777   1.604   1.245  0.00  0.00    +0.011 C 
ATOM      2  C   UNL     1      -2.214   1.773   0.697  0.00  0.00    +0.041 C 
ATOM      3  C   UNL     1      -2.045   2.000  -0.787  0.00  0.00    +0.013 A 
ATOM      4  C   UNL     1      -0.784   1.607  -1.184  0.00  0.00    +0.050 A 
ATOM      5  N   UNL     1      -0.443   1.728  -2.460  0.00  0.00    -0.229 NA
ATOM      6  C   UNL     1      -1.288   2.218  -3.345  0.00  0.00    +0.236 A 
ATOM      7  N   UNL     1      -2.501   2.605  -3.009  0.00  0.00    -0.209 NA
ATOM      8  C   UNL     1      -2.917   2.514  -1.748  0.00  0.00    +0.123 A 
ATOM      9  C   UNL     1      -0.013   1.086   0.008  0.00  0.00    +0.056 C 
ENDROOT
BRANCH   6  10
ATOM     10  C   UNL     1      -0.854   2.337  -4.783  0.00  0.00    +0.452 C 
ATOM     11  F   UNL     1      -1.740   3.174  -5.470  0.00  0.00    -0.163 F 
ATOM     12  F   UNL     1       0.435   2.879  -4.838  0.00  0.00    -0.163 F 
ATOM     13  F   UNL     1      -0.853   1.071  -5.377  0.00  0.00    -0.163 F 
ENDBRANCH   6  10
BRANCH   8  14
ATOM     14  N   UNL     1      -4.193   2.922  -1.396  0.00  0.00    -0.343 N 
ATOM     15  H   UNL     1      -4.872   3.325  -2.161  0.00  0.00    +0.144 HD
ATOM     16  H   UNL     1      -4.527   2.842  -0.351  0.00  0.00    +0.144 HD
ENDBRANCH   8  14
TORSDOF 2
