REMARK  Name = ZINC59022142
REMARK  8 active torsions:
REMARK  status: ('A' for Active; 'I' for Inactive)
REMARK    1  A    between atoms: C_1  and  C_2
REMARK    2  A    between atoms: C_7  and  N_8
REMARK    3  A    between atoms: C_9  and  C_11
REMARK    4  A    between atoms: C_11  and  S_12
REMARK    5  A    between atoms: S_12  and  C_13
REMARK    6  A    between atoms: N_18  and  N_19
REMARK    7  A    between atoms: C_20  and  C_21
REMARK    8  A    between atoms: C_20  and  C_22
REMARK                            x       y       z     vdW  Elec       q    Type
REMARK                         _______ _______ _______ _____ _____    ______ ____
ROOT
ATOM      1  C   UNL     1      -2.794  -0.400   7.980  0.00  0.00    +0.211 A 
ATOM      2  N   UNL     1      -2.303  -0.773   9.166  0.00  0.00    -0.186 NA
ATOM      3  C   UNL     1      -2.086   0.291   9.910  0.00  0.00    +0.232 A 
ATOM      4  N   UNL     1      -2.442   1.380   9.195  0.00  0.00    -0.245 N 
ATOM      5  N   UNL     1      -2.890   0.908   7.950  0.00  0.00    -0.144 NA
ATOM      6  N   UNL     1      -1.582   0.294  11.198  0.00  0.00    -0.205 N 
ATOM      7  H   UNL     1      -1.457   1.134  11.668  0.00  0.00    +0.177 HD
ATOM      8  H   UNL     1      -2.393   2.305   9.482  0.00  0.00    +0.192 HD
ENDROOT
BRANCH   6   9
ATOM      9  N   UNL     1      -1.254  -0.915  11.824  0.00  0.00    -0.184 NA
ATOM     10  C   UNL     1      -0.875  -0.921  13.067  0.00  0.00    +0.063 C 
ATOM     11  C   UNL     1      -0.353  -2.190  13.689  0.00  0.00    +0.068 C 
BRANCH  10  12
ATOM     12  C   UNL     1      -0.958   0.313  13.868  0.00  0.00    -0.002 A 
ATOM     13  C   UNL     1      -2.022   1.211  13.661  0.00  0.00    +0.010 A 
ATOM     14  C   UNL     1      -2.119   2.354  14.386  0.00  0.00    +0.009 A 
ATOM     15  C   UNL     1      -1.148   2.654  15.360  0.00  0.00    -0.018 A 
ATOM     16  C   UNL     1      -1.228   3.831  16.123  0.00  0.00    +0.008 A 
ATOM     17  C   UNL     1      -0.274   4.096  17.058  0.00  0.00    +0.001 A 
ATOM     18  C   UNL     1       0.784   3.215  17.273  0.00  0.00    +0.001 A 
ATOM     19  C   UNL     1       0.896   2.065  16.553  0.00  0.00    +0.008 A 
ATOM     20  C   UNL     1      -0.071   1.758  15.579  0.00  0.00    -0.017 A 
ATOM     21  C   UNL     1       0.011   0.579  14.823  0.00  0.00    +0.018 A 
ENDBRANCH  10  12
ENDBRANCH   6   9
BRANCH   1  22
ATOM     22  S   UNL     1      -3.233  -1.488   6.665  0.00  0.00    -0.075 S 
BRANCH  22  23
ATOM     23  C   UNL     1      -3.814  -0.380   5.353  0.00  0.00    +0.173 C 
BRANCH  23  25
ATOM     24  N   UNL     1      -4.695  -0.578   3.050  0.00  0.00    -0.285 N 
ATOM     25  C   UNL     1      -4.226  -1.194   4.154  0.00  0.00    +0.227 C 
ATOM     26  O   UNL     1      -4.136  -2.403   4.181  0.00  0.00    -0.275 OA
ATOM     27  H   UNL     1      -4.715   0.391   3.007  0.00  0.00    +0.155 HD
BRANCH  24  34
ATOM     28  C   UNL     1      -6.692   0.551   1.367  0.00  0.00    +0.046 C 
ATOM     29  C   UNL     1      -6.126  -0.824   1.120  0.00  0.00    -0.028 A 
ATOM     30  C   UNL     1      -6.572  -1.572   0.048  0.00  0.00    +0.025 A 
ATOM     31  C   UNL     1      -6.053  -2.834  -0.179  0.00  0.00    +0.041 A 
ATOM     32  C   UNL     1      -5.086  -3.350   0.666  0.00  0.00    +0.022 A 
ATOM     33  C   UNL     1      -4.637  -2.606   1.739  0.00  0.00    +0.025 A 
ATOM     34  C   UNL     1      -5.152  -1.337   1.966  0.00  0.00    +0.036 A 
ATOM     35 CL   UNL     1      -6.617  -3.773  -1.526  0.00  0.00    -0.084 Cl
ENDBRANCH  24  34
ENDBRANCH  23  25
ENDBRANCH  22  23
ENDBRANCH   1  22
TORSDOF 6
