REMARK  Name = ZINC59878124
REMARK  8 active torsions:
REMARK  status: ('A' for Active; 'I' for Inactive)
REMARK    1  A    between atoms: C_4  and  N_7
REMARK    2  A    between atoms: C_8  and  C_23
REMARK    3  A    between atoms: C_11  and  S_12
REMARK    4  A    between atoms: S_12  and  C_13
REMARK    5  A    between atoms: C_13  and  C_14
REMARK    6  A    between atoms: C_17  and  C_19
REMARK    7  A    between atoms: C_23  and  N_24
REMARK    8  A    between atoms: N_24  and  C_25
REMARK                            x       y       z     vdW  Elec       q    Type
REMARK                         _______ _______ _______ _____ _____    ______ ____
ROOT
ATOM      1  N   UNL     1       3.624  -0.653  -0.036  0.00  0.00    -0.273 N 
ATOM      2  C   UNL     1       4.115  -1.449  -1.037  0.00  0.00    +0.156 A 
ATOM      3  N   UNL     1       5.279  -1.886  -0.648  0.00  0.00    -0.132 NA
ATOM      4  N   UNL     1       5.558  -1.426   0.519  0.00  0.00    -0.122 NA
ATOM      5  C   UNL     1       4.580  -0.658   0.942  0.00  0.00    +0.197 A 
ENDROOT
BRANCH   1   9
ATOM      6  C   UNL     1      -0.017   1.379   0.010  0.00  0.00    +0.000 A 
ATOM      7  C   UNL     1       1.170   2.089   0.002  0.00  0.00    +0.002 A 
ATOM      8  C   UNL     1       2.377   1.419  -0.013  0.00  0.00    +0.026 A 
ATOM      9  C   UNL     1       2.399   0.031  -0.021  0.00  0.00    +0.050 A 
ATOM     10  C   UNL     1       1.207  -0.680  -0.013  0.00  0.00    +0.026 A 
ATOM     11  C   UNL     1       0.002  -0.004   0.002  0.00  0.00    +0.002 A 
ENDBRANCH   1   9
BRANCH   5  12
ATOM     12  S   UNL     1       4.512   0.200   2.479  0.00  0.00    -0.076 S 
BRANCH  12  13
ATOM     13  C   UNL     1       6.076  -0.229   3.291  0.00  0.00    +0.175 C 
BRANCH  13  14
ATOM     14  C   UNL     1       6.147   0.449   4.635  0.00  0.00    +0.227 A 
ATOM     15  N   UNL     1       5.729  -0.040   5.768  0.00  0.00    -0.112 NA
ATOM     16  N   UNL     1       5.949   0.812   6.708  0.00  0.00    -0.112 NA
ATOM     17  C   UNL     1       6.515   1.872   6.206  0.00  0.00    +0.220 A 
ATOM     18  O   UNL     1       6.658   1.666   4.886  0.00  0.00    -0.424 OA
BRANCH  17  19
ATOM     19  C   UNL     1       6.938   3.102   6.967  0.00  0.00    +0.077 C 
ATOM     20  C   UNL     1       7.510   2.798   8.361  0.00  0.00    +0.013 C 
ATOM     21  C   UNL     1       6.744   4.034   8.860  0.00  0.00    +0.001 C 
ATOM     22  C   UNL     1       5.777   3.811   7.685  0.00  0.00    +0.013 C 
ENDBRANCH  17  19
ENDBRANCH  13  14
ENDBRANCH  12  13
ENDBRANCH   5  12
BRANCH   2  23
ATOM     23  C   UNL     1       3.434  -1.762  -2.345  0.00  0.00    +0.178 C 
BRANCH  23  24
ATOM     24  N   UNL     1       3.818  -0.764  -3.346  0.00  0.00    -0.337 N 
ATOM     25  H   UNL     1       4.426  -0.047  -3.108  0.00  0.00    +0.147 HD
BRANCH  24  26
ATOM     26  C   UNL     1       3.310  -0.847  -4.645  0.00  0.00    +0.028 A 
ATOM     27  C   UNL     1       2.435  -1.870  -4.986  0.00  0.00    +0.024 A 
ATOM     28  C   UNL     1       1.933  -1.949  -6.271  0.00  0.00    +0.022 A 
ATOM     29  C   UNL     1       2.302  -1.009  -7.217  0.00  0.00    +0.041 A 
ATOM     30  C   UNL     1       3.173   0.012  -6.880  0.00  0.00    +0.022 A 
ATOM     31  C   UNL     1       3.673   0.098  -5.596  0.00  0.00    +0.024 A 
ATOM     32 CL   UNL     1       1.670  -1.112  -8.831  0.00  0.00    -0.084 Cl
ENDBRANCH  24  26
ENDBRANCH  23  24
ENDBRANCH   2  23
TORSDOF 8
