REMARK  Name = ZINC06481595
REMARK  15 active torsions:
REMARK  status: ('A' for Active; 'I' for Inactive)
REMARK    1  A    between atoms: C_1  and  C_2
REMARK    2  A    between atoms: C_2  and  C_3
REMARK    3  A    between atoms: C_3  and  C_4
REMARK    4  A    between atoms: C_4  and  C_5
REMARK    5  A    between atoms: C_8  and  C_12
REMARK    6  A    between atoms: C_8  and  C_13
REMARK    7  A    between atoms: N_18  and  C_19
REMARK    8  A    between atoms: C_19  and  C_20
REMARK    9  A    between atoms: C_20  and  N_21
REMARK   10  A    between atoms: C_24  and  C_27
REMARK   11  A    between atoms: C_27  and  C_38
REMARK   12  A    between atoms: C_29  and  C_34
REMARK   13  A    between atoms: C_34  and  C_35
REMARK   14  A    between atoms: C_35  and  C_36
REMARK   15  A    between atoms: C_36  and  C_37
REMARK                            x       y       z     vdW  Elec       q    Type
REMARK                         _______ _______ _______ _____ _____    ______ ____
ROOT
ATOM      1  C   UNL     1       4.299  -0.109   6.214  0.00  0.00    +0.122 C 
ENDROOT
BRANCH   1   7
ATOM      2  C   UNL     1       7.601  -1.053   9.500  0.00  0.00    +0.094 A 
ATOM      3  C   UNL     1       7.535  -2.313   9.008  0.00  0.00    +0.075 A 
ATOM      4  S   UNL     1       6.302  -2.108   7.731  0.00  0.00    -0.060 S 
ATOM      5  C   UNL     1       6.005  -0.414   7.973  0.00  0.00    +0.159 A 
ATOM      6  N   UNL     1       6.830  -0.126   8.961  0.00  0.00    -0.226 NA
ATOM      7  N   UNL     1       5.130   0.422   7.298  0.00  0.00    -0.322 N 
ATOM      8  H   UNL     1       5.067   1.359   7.542  0.00  0.00    +0.148 HD
BRANCH   2  11
ATOM      9  C   UNL     1       7.911   0.580  12.577  0.00  0.00    +0.102 C 
ATOM     10  C   UNL     1       8.308   0.740  11.092  0.00  0.00    +0.069 C 
ATOM     11  C   UNL     1       8.536  -0.715  10.632  0.00  0.00    +0.153 C 
ATOM     12  O   UNL     1       8.252  -1.560  11.784  0.00  0.00    -0.452 OA
ATOM     13  C   UNL     1       8.353  -0.833  12.912  0.00  0.00    +0.311 C 
ATOM     14  O   UNL     1       8.726  -1.231  13.990  0.00  0.00    -0.251 OA
ATOM     15  C   UNL     1       9.988  -0.904  10.188  0.00  0.00    +0.063 C 
BRANCH   9  16
ATOM     16  C   UNL     1       8.654   1.597  13.445  0.00  0.00    +0.015 C 
BRANCH  16  17
ATOM     17  C   UNL     1       8.151   1.500  14.887  0.00  0.00    +0.001 C 
BRANCH  17  19
ATOM     18  C   UNL     1       8.391   2.421  17.197  0.00  0.00    +0.004 C 
ATOM     19  C   UNL     1       8.893   2.518  15.755  0.00  0.00    -0.003 C 
ENDBRANCH  17  19
ENDBRANCH  16  17
ENDBRANCH   9  16
ENDBRANCH   2  11
ENDBRANCH   1   7
BRANCH   1  20
ATOM     20  C   UNL     1       3.430   1.013   5.641  0.00  0.00    +0.122 C 
BRANCH  20  21
ATOM     21  N   UNL     1       2.599   0.482   4.558  0.00  0.00    -0.322 N 
ATOM     22  C   UNL     1       1.724   1.318   3.882  0.00  0.00    +0.159 A 
ATOM     23  N   UNL     1       0.903   1.031   2.890  0.00  0.00    -0.226 NA
ATOM     24  C   UNL     1       0.129   1.957   2.355  0.00  0.00    +0.094 A 
ATOM     25  C   UNL     1       0.199   3.218   2.843  0.00  0.00    +0.075 A 
ATOM     26  S   UNL     1       1.428   3.012   4.124  0.00  0.00    -0.060 S 
ATOM     27  H   UNL     1       2.662  -0.455   4.313  0.00  0.00    +0.148 HD
BRANCH  24  28
ATOM     28  C   UNL     1      -0.806   1.619   1.223  0.00  0.00    +0.153 C 
ATOM     29  C   UNL     1      -0.013   1.086   0.008  0.00  0.00    +0.069 C 
ATOM     30  C   UNL     1      -0.829   1.632  -1.185  0.00  0.00    +0.102 C 
ATOM     31  C   UNL     1      -1.724   2.695  -0.587  0.00  0.00    +0.311 C 
ATOM     32  O   UNL     1      -2.549   3.333  -1.198  0.00  0.00    -0.251 OA
ATOM     33  O   UNL     1      -1.465   2.824   0.722  0.00  0.00    -0.452 OA
ATOM     34  C   UNL     1      -1.846   0.591   1.675  0.00  0.00    +0.063 C 
BRANCH  30  35
ATOM     35  C   UNL     1       0.103   2.246  -2.231  0.00  0.00    +0.015 C 
BRANCH  35  36
ATOM     36  C   UNL     1      -0.712   2.667  -3.456  0.00  0.00    +0.001 C 
BRANCH  36  37
ATOM     37  C   UNL     1       0.220   3.282  -4.502  0.00  0.00    -0.003 C 
ATOM     38  C   UNL     1      -0.594   3.702  -5.727  0.00  0.00    +0.004 C 
ENDBRANCH  36  37
ENDBRANCH  35  36
ENDBRANCH  30  35
ENDBRANCH  24  28
ENDBRANCH  20  21
ENDBRANCH   1  20
TORSDOF 11
