REMARK  Name = ZINC39653538
REMARK  14 active torsions:
REMARK  status: ('A' for Active; 'I' for Inactive)
REMARK    1  A    between atoms: C_1  and  C_2
REMARK    2  A    between atoms: C_2  and  O_3
REMARK    3  A    between atoms: O_3  and  C_4
REMARK    4  A    between atoms: C_6  and  C_12
REMARK    5  A    between atoms: C_9  and  O_10
REMARK    6  A    between atoms: O_10  and  C_11
REMARK    7  A    between atoms: C_12  and  C_13
REMARK    8  A    between atoms: C_13  and  N_14
REMARK    9  A    between atoms: C_15  and  C_17
REMARK   10  A    between atoms: C_28  and  C_30
REMARK   11  A    between atoms: C_30  and  C_31
REMARK   12  A    between atoms: C_31  and  C_32
REMARK   13  A    between atoms: C_35  and  O_38
REMARK   14  A    between atoms: O_38  and  C_39
REMARK                            x       y       z     vdW  Elec       q    Type
REMARK                         _______ _______ _______ _____ _____    ______ ____
ROOT
ATOM      1  C   UNL     1      -4.097  -7.559   2.031  0.00  0.00    +0.100 C 
ATOM      2  C   UNL     1      -4.020  -6.920   3.436  0.00  0.00    +0.121 C 
ATOM      3  N   UNL     1      -5.343  -6.282   3.630  0.00  0.00    -0.300 N 
ATOM      4  C   UNL     1      -6.306  -7.242   3.039  0.00  0.00    +0.115 C 
ATOM      5  C   UNL     1      -5.598  -7.772   1.776  0.00  0.00    -0.004 C 
ATOM      6  C   UNL     1      -5.896  -9.256   1.587  0.00  0.00    -0.010 C 
ATOM      7  C   UNL     1      -7.385  -9.438   1.276  0.00  0.00    -0.082 C 
ATOM      8  N   UNL     1      -7.728  -8.690   0.060  0.00  0.00    +0.379 N 
ATOM      9  C   UNL     1      -7.526  -7.253   0.282  0.00  0.00    -0.082 C 
ATOM     10  C   UNL     1      -6.044  -6.980   0.551  0.00  0.00    -0.010 C 
ATOM     11  C   UNL     1      -5.611  -5.097   4.213  0.00  0.00    +0.216 C 
ATOM     12  O   UNL     1      -6.756  -4.708   4.297  0.00  0.00    -0.276 OA
ATOM     13  H   UNL     1      -7.139  -8.998  -0.699  0.00  0.00    -0.086 HD
ATOM     14  H   UNL     1      -8.694  -8.860  -0.176  0.00  0.00    -0.086 HD
ENDROOT
BRANCH   1  16
ATOM     15  N   UNL     1      -2.961  -7.127  -0.123  0.00  0.00    -0.315 N 
ATOM     16  C   UNL     1      -3.516  -6.627   0.999  0.00  0.00    +0.218 C 
ATOM     17  O   UNL     1      -3.548  -5.428   1.177  0.00  0.00    -0.275 OA
ATOM     18  H   UNL     1      -2.935  -8.086  -0.266  0.00  0.00    +0.149 HD
BRANCH  15  19
ATOM     19  C   UNL     1      -2.396  -6.221  -1.127  0.00  0.00    +0.109 C 
BRANCH  19  20
ATOM     20  C   UNL     1      -1.834  -7.038  -2.292  0.00  0.00    +0.054 C 
BRANCH  20  23
ATOM     21  C   UNL     1       0.611  -4.876  -4.196  0.00  0.00    +0.162 A 
ATOM     22  C   UNL     1       0.075  -5.733  -3.247  0.00  0.00    +0.053 A 
ATOM     23  C   UNL     1      -1.254  -6.106  -3.325  0.00  0.00    -0.042 A 
ATOM     24  C   UNL     1      -2.051  -5.627  -4.348  0.00  0.00    +0.007 A 
ATOM     25  C   UNL     1      -1.523  -4.772  -5.297  0.00  0.00    +0.049 A 
ATOM     26  C   UNL     1      -0.193  -4.389  -5.222  0.00  0.00    +0.162 A 
BRANCH  26  27
ATOM     27  O   UNL     1       0.326  -3.544  -6.152  0.00  0.00    -0.491 OA
ATOM     28  C   UNL     1      -0.558  -3.084  -7.176  0.00  0.00    +0.277 C 
ENDBRANCH  26  27
BRANCH  21  29
ATOM     29  O   UNL     1       1.917  -4.508  -4.121  0.00  0.00    -0.489 OA
BRANCH  29  31
ATOM     30  C   UNL     1       4.118  -4.523  -3.122  0.00  0.00    +0.048 C 
ATOM     31  C   UNL     1       2.683  -5.047  -3.041  0.00  0.00    +0.226 C 
ENDBRANCH  29  31
ENDBRANCH  21  29
ENDBRANCH  20  23
ENDBRANCH  19  20
ENDBRANCH  15  19
ENDBRANCH   1  16
BRANCH  11  32
ATOM     32  C   UNL     1      -4.487  -4.255   4.759  0.00  0.00    +0.100 C 
BRANCH  32  33
ATOM     33  C   UNL     1      -5.059  -2.970   5.362  0.00  0.00    +0.044 C 
BRANCH  33  34
ATOM     34  C   UNL     1      -3.935  -2.128   5.909  0.00  0.00    -0.047 A 
ATOM     35  C   UNL     1      -3.524  -2.292   7.219  0.00  0.00    +0.007 A 
ATOM     36  C   UNL     1      -2.494  -1.521   7.723  0.00  0.00    +0.046 A 
ATOM     37  C   UNL     1      -1.872  -0.582   6.913  0.00  0.00    +0.120 A 
ATOM     38  C   UNL     1      -2.286  -0.420   5.599  0.00  0.00    +0.046 A 
ATOM     39  C   UNL     1      -3.313  -1.197   5.098  0.00  0.00    +0.007 A 
BRANCH  37  40
ATOM     40  O   UNL     1      -0.859   0.178   7.406  0.00  0.00    -0.495 OA
ATOM     41  C   UNL     1      -0.266   1.125   6.515  0.00  0.00    +0.277 C 
ENDBRANCH  37  40
ENDBRANCH  33  34
ENDBRANCH  32  33
ENDBRANCH  11  32
TORSDOF 11
