REMARK  Name = ZINC00525521
REMARK  10 active torsions:
REMARK  status: ('A' for Active; 'I' for Inactive)
REMARK    1  A    between atoms: C_1  and  C_2
REMARK    2  A    between atoms: C_2  and  C_3
REMARK    3  A    between atoms: C_3  and  C_5
REMARK    4  A    between atoms: C_3  and  N_6
REMARK    5  A    between atoms: C_7  and  C_9
REMARK    6  A    between atoms: N_20  and  C_23
REMARK    7  A    between atoms: C_21  and  N_22
REMARK    8  A    between atoms: C_23  and  C_24
REMARK    9  A    between atoms: C_24  and  C_25
REMARK   10  A    between atoms: C_24  and  C_26
REMARK                            x       y       z     vdW  Elec       q    Type
REMARK                         _______ _______ _______ _____ _____    ______ ____
ROOT
ATOM      1  C   UNL     1       2.183   0.590  -0.016  0.00  0.00    +0.103 A 
ATOM      2  C   UNL     1       1.379   1.823  -0.001  0.00  0.00    +0.122 A 
ATOM      3  C   UNL     1      -0.017   1.376   0.010  0.00  0.00    +0.162 A 
ATOM      4  N   UNL     1      -0.982   2.270   0.019  0.00  0.00    -0.226 NA
ATOM      5  C   UNL     1      -0.682   3.575   0.029  0.00  0.00    +0.092 A 
ATOM      6  C   UNL     1      -1.708   4.538   0.044  0.00  0.00    +0.030 A 
ATOM      7  C   UNL     1      -1.395   5.861   0.049  0.00  0.00    +0.002 A 
ATOM      8  C   UNL     1      -0.067   6.284   0.039  0.00  0.00    +0.002 A 
ATOM      9  C   UNL     1       0.952   5.383   0.024  0.00  0.00    +0.030 A 
ATOM     10  C   UNL     1       0.668   4.005   0.018  0.00  0.00    +0.090 A 
ATOM     11  N   UNL     1       1.663   3.110   0.003  0.00  0.00    -0.241 NA
ATOM     12  N   UNL     1       0.002  -0.004   0.002  0.00  0.00    -0.312 N 
ATOM     13  C   UNL     1       1.281  -0.469  -0.013  0.00  0.00    +0.112 A 
ENDROOT
BRANCH   1  15
ATOM     14  N   UNL     1       4.325   0.446   1.130  0.00  0.00    -0.309 N 
ATOM     15  C   UNL     1       3.641   0.496  -0.031  0.00  0.00    +0.250 C 
ATOM     16  O   UNL     1       4.238   0.463  -1.091  0.00  0.00    -0.270 OA
ATOM     17  H   UNL     1       3.849   0.473   1.975  0.00  0.00    +0.149 HD
BRANCH  14  18
ATOM     18  C   UNL     1       5.787   0.353   1.115  0.00  0.00    +0.070 C 
ATOM     19  C   UNL     1       6.387   1.755   0.991  0.00  0.00    +0.028 C 
BRANCH  18  21
ATOM     20  C   UNL     1       5.772  -1.741   2.478  0.00  0.00    +0.005 C 
ATOM     21  C   UNL     1       6.270  -0.296   2.414  0.00  0.00    +0.018 C 
ENDBRANCH  18  21
ENDBRANCH  14  18
ENDBRANCH   1  15
BRANCH  13  22
ATOM     22  N   UNL     1       1.631  -1.794  -0.023  0.00  0.00    -0.344 N 
ATOM     23  H   UNL     1       0.942  -2.478  -0.020  0.00  0.00    +0.144 HD
ATOM     24  H   UNL     1       2.567  -2.049  -0.033  0.00  0.00    +0.144 HD
ENDBRANCH  13  22
BRANCH  12  25
ATOM     25  C   UNL     1      -1.192  -0.853   0.009  0.00  0.00    +0.128 C 
BRANCH  25  26
ATOM     26  C   UNL     1      -1.621  -1.140  -1.432  0.00  0.00    +0.003 C 
ATOM     27  C   UNL     1      -0.540  -1.968  -2.130  0.00  0.00    +0.009 C 
ATOM     28  C   UNL     1      -2.937  -1.921  -1.426  0.00  0.00    +0.009 C 
ENDBRANCH  25  26
ENDBRANCH  12  25
TORSDOF 6
