REMARK  Name = ZINC43527761
REMARK  10 active torsions:
REMARK  status: ('A' for Active; 'I' for Inactive)
REMARK    1  A    between atoms: C_1  and  C_2
REMARK    2  A    between atoms: C_4  and  C_30
REMARK    3  A    between atoms: C_6  and  C_8
REMARK    4  A    between atoms: C_17  and  C_19
REMARK    5  A    between atoms: C_19  and  O_20
REMARK    6  A    between atoms: O_20  and  C_21
REMARK    7  A    between atoms: N_23  and  C_24
REMARK    8  A    between atoms: C_33  and  N_36
REMARK    9  A    between atoms: N_36  and  C_37
REMARK   10  A    between atoms: N_36  and  C_38
REMARK                            x       y       z     vdW  Elec       q    Type
REMARK                         _______ _______ _______ _____ _____    ______ ____
ROOT
ATOM      1  C   UNL     1      -0.211  -2.694   2.191  0.00  0.00    +0.024 C 
ATOM      2  C   UNL     1      -1.055  -3.970   2.144  0.00  0.00    -0.068 C 
ATOM      3  N   UNL     1      -0.206  -5.142   2.372  0.00  0.00    +0.384 N 
ATOM      4  C   UNL     1       0.813  -5.251   1.326  0.00  0.00    -0.078 C 
ATOM      5  C   UNL     1       1.719  -4.019   1.346  0.00  0.00    -0.015 C 
ATOM      6  C   UNL     1       1.250  -3.074   2.464  0.00  0.00    -0.007 C 
ATOM      7  C   UNL     1       1.311  -3.836   3.795  0.00  0.00    -0.008 C 
ATOM      8  C   UNL     1       0.417  -5.077   3.695  0.00  0.00    -0.030 C 
ATOM      9  H   UNL     1      -0.785  -5.967   2.331  0.00  0.00    -0.081 HD
ENDROOT
BRANCH   1  15
ATOM     10  C   UNL     1      -0.357   1.497  -0.323  0.00  0.00    +0.088 C 
ATOM     11  C   UNL     1      -0.377  -0.009  -0.324  0.00  0.00    +0.127 A 
ATOM     12  N   UNL     1      -0.476  -0.647  -1.472  0.00  0.00    -0.232 NA
ATOM     13  C   UNL     1      -0.497  -1.978  -1.510  0.00  0.00    +0.075 A 
ATOM     14  C   UNL     1      -0.410  -2.690  -0.309  0.00  0.00    +0.052 A 
ATOM     15  C   UNL     1      -0.307  -1.976   0.870  0.00  0.00    +0.047 A 
ATOM     16  N   UNL     1      -0.288  -0.652   0.824  0.00  0.00    -0.237 NA
BRANCH  13  17
ATOM     17  C   UNL     1      -0.609  -2.693  -2.803  0.00  0.00    +0.001 A 
ATOM     18  C   UNL     1      -0.635  -4.088  -2.830  0.00  0.00    +0.012 A 
ATOM     19  C   UNL     1      -0.741  -4.750  -4.034  0.00  0.00    +0.024 A 
ATOM     20  C   UNL     1      -0.821  -4.030  -5.221  0.00  0.00    +0.029 A 
ATOM     21  C   UNL     1      -0.795  -2.639  -5.196  0.00  0.00    +0.024 A 
ATOM     22  C   UNL     1      -0.696  -1.972  -3.994  0.00  0.00    +0.012 A 
BRANCH  20  23
ATOM     23  N   UNL     1      -0.928  -4.702  -6.437  0.00  0.00    -0.336 N 
ATOM     24  C   UNL     1      -0.831  -6.163  -6.477  0.00  0.00    +0.129 C 
ATOM     25  C   UNL     1      -1.137  -3.948  -7.675  0.00  0.00    +0.129 C 
ENDBRANCH  20  23
ENDBRANCH  13  17
ENDBRANCH   1  15
BRANCH   8  26
ATOM     26  C   UNL     1       1.263  -6.332   3.920  0.00  0.00    +0.219 C 
BRANCH  26  27
ATOM     27  O   UNL     1       0.421  -7.486   3.886  0.00  0.00    -0.452 OA
BRANCH  27  28
ATOM     28  C   UNL     1       1.014  -8.681   4.069  0.00  0.00    +0.404 C 
ATOM     29  O   UNL     1       2.213  -8.743   4.251  0.00  0.00    -0.226 OA
ATOM     30  N   UNL     1       0.277  -9.809   4.049  0.00  0.00    -0.251 N 
ATOM     31  H   UNL     1      -0.667  -9.768   3.828  0.00  0.00    +0.158 HD
BRANCH  30  32
ATOM     32  C   UNL     1       0.873 -11.040   4.346  0.00  0.00    +0.036 A 
ATOM     33  C   UNL     1       0.454 -12.192   3.694  0.00  0.00    +0.023 A 
ATOM     34  C   UNL     1       1.044 -13.405   3.990  0.00  0.00    +0.002 A 
ATOM     35  C   UNL     1       2.051 -13.473   4.934  0.00  0.00    +0.000 A 
ATOM     36  C   UNL     1       2.471 -12.328   5.586  0.00  0.00    +0.002 A 
ATOM     37  C   UNL     1       1.888 -11.111   5.290  0.00  0.00    +0.023 A 
ENDBRANCH  30  32
ENDBRANCH  27  28
ENDBRANCH  26  27
ENDBRANCH   8  26
TORSDOF 7
