REMARK  Name = ZINC07095184
REMARK  7 active torsions:
REMARK  status: ('A' for Active; 'I' for Inactive)
REMARK    1  A    between atoms: C_1  and  C_2
REMARK    2  A    between atoms: C_2  and  C_4
REMARK    3  A    between atoms: C_2  and  S_13
REMARK    4  A    between atoms: N_6  and  C_7
REMARK    5  A    between atoms: C_7  and  C_8
REMARK    6  A    between atoms: S_13  and  C_14
REMARK    7  A    between atoms: N_21  and  C_24
REMARK                            x       y       z     vdW  Elec       q    Type
REMARK                         _______ _______ _______ _____ _____    ______ ____
ROOT
ATOM      1  C   UNL     1      -0.189  -0.057  -2.809  0.00  0.00    +0.194 A 
ATOM      2  N   UNL     1      -1.298   0.616  -2.518  0.00  0.00    -0.183 NA
ATOM      3  C   UNL     1      -2.114   1.039  -3.473  0.00  0.00    +0.285 A 
ATOM      4  O   UNL     1      -3.240   1.724  -3.167  0.00  0.00    -0.265 OA
ATOM      5  C   UNL     1      -1.783   0.760  -4.812  0.00  0.00    +0.105 A 
ATOM      6  C   UNL     1      -2.384   1.037  -6.060  0.00  0.00    +0.150 A 
ATOM      7  N   UNL     1      -1.634   0.536  -7.001  0.00  0.00    -0.172 NA
ATOM      8  N   UNL     1      -0.517  -0.089  -6.432  0.00  0.00    -0.214 N 
ATOM      9  C   UNL     1      -0.598   0.043  -5.075  0.00  0.00    +0.171 A 
ATOM     10  N   UNL     1       0.164  -0.337  -4.053  0.00  0.00    -0.202 NA
ENDROOT
BRANCH   8  11
ATOM     11  C   UNL     1       0.507  -0.738  -7.134  0.00  0.00    +0.068 A 
ATOM     12  C   UNL     1       1.813  -0.684  -6.667  0.00  0.00    +0.028 A 
ATOM     13  C   UNL     1       2.820  -1.325  -7.361  0.00  0.00    +0.002 A 
ATOM     14  C   UNL     1       2.529  -2.019  -8.521  0.00  0.00    +0.000 A 
ATOM     15  C   UNL     1       1.229  -2.074  -8.990  0.00  0.00    +0.002 A 
ATOM     16  C   UNL     1       0.217  -1.440  -8.297  0.00  0.00    +0.028 A 
ENDBRANCH   8  11
BRANCH   1  17
ATOM     17  S   UNL     1       0.851  -0.589  -1.490  0.00  0.00    -0.073 S 
BRANCH  17  19
ATOM     18  C   UNL     1      -0.019   1.526   0.010  0.00  0.00    +0.029 C 
ATOM     19  C   UNL     1       0.002  -0.004   0.002  0.00  0.00    +0.137 C 
BRANCH  19  20
ATOM     20  C   UNL     1       0.731  -0.503   1.223  0.00  0.00    +0.226 C 
ATOM     21  O   UNL     1       1.911  -0.775   1.156  0.00  0.00    -0.275 OA
ATOM     22  N   UNL     1       0.071  -0.647   2.389  0.00  0.00    -0.310 N 
ATOM     23  H   UNL     1      -0.872  -0.430   2.443  0.00  0.00    +0.149 HD
BRANCH  22  24
ATOM     24  C   UNL     1       0.780  -1.133   3.576  0.00  0.00    +0.146 C 
BRANCH  24  25
ATOM     25  C   UNL     1      -0.176  -1.203   4.739  0.00  0.00    +0.007 A 
ATOM     26  C   UNL     1      -0.957  -2.235   5.141  0.00  0.00    +0.013 A 
ATOM     27  C   UNL     1      -1.766  -2.072   6.250  0.00  0.00    +0.008 A 
ATOM     28  C   UNL     1      -1.754  -0.884   6.903  0.00  0.00    +0.045 A 
ATOM     29  S   UNL     1      -0.569   0.050   5.949  0.00  0.00    -0.100 S 
ENDBRANCH  24  25
ENDBRANCH  22  24
ENDBRANCH  19  20
ENDBRANCH  17  19
ENDBRANCH   1  17
TORSDOF 6
