REMARK  Name = ZINC53986046
REMARK  6 active torsions:
REMARK  status: ('A' for Active; 'I' for Inactive)
REMARK    1  A    between atoms: C_1  and  C_2
REMARK    2  A    between atoms: C_5  and  N_9
REMARK    3  A    between atoms: C_6  and  C_8
REMARK    4  A    between atoms: N_12  and  C_13
REMARK    5  A    between atoms: C_13  and  C_15
REMARK    6  A    between atoms: C_13  and  C_16
REMARK                            x       y       z     vdW  Elec       q    Type
REMARK                         _______ _______ _______ _____ _____    ______ ____
ROOT
ATOM      1  N   UNL     1       0.058  -4.170  -0.021  0.00  0.00    -0.269 N 
ATOM      2  C   UNL     1      -0.041  -4.839  -1.187  0.00  0.00    +0.304 C 
ATOM      3  O   UNL     1      -0.054  -4.229  -2.239  0.00  0.00    -0.252 OA
ATOM      4  N   UNL     1      -0.124  -6.184  -1.187  0.00  0.00    -0.290 N 
ATOM      5  H   UNL     1       0.135  -4.659   0.814  0.00  0.00    +0.156 HD
ATOM      6  H   UNL     1      -0.114  -6.671  -0.348  0.00  0.00    +0.151 HD
ENDROOT
BRANCH   1  11
ATOM      7  C   UNL     1       0.025   1.503   0.006  0.00  0.00    +0.044 C 
ATOM      8  C   UNL     1       0.034  -0.004  -0.001  0.00  0.00    -0.050 A 
ATOM      9  C   UNL     1       0.631  -0.685  -1.046  0.00  0.00    +0.005 A 
ATOM     10  C   UNL     1       0.641  -2.066  -1.055  0.00  0.00    +0.024 A 
ATOM     11  C   UNL     1       0.050  -2.771  -0.014  0.00  0.00    +0.038 A 
ATOM     12  C   UNL     1      -0.549  -2.083   1.033  0.00  0.00    -0.029 A 
ATOM     13  C   UNL     1      -0.551  -0.702   1.039  0.00  0.00    +0.008 A 
ATOM     14  C   UNL     1      -1.192  -2.844   2.164  0.00  0.00    +0.045 C 
ENDBRANCH   1  11
BRANCH   4  15
ATOM     15  C   UNL     1      -0.231  -6.911  -2.454  0.00  0.00    +0.137 C 
ATOM     16  C   UNL     1       1.168  -7.144  -3.028  0.00  0.00    +0.036 C 
BRANCH  15  17
ATOM     17  C   UNL     1      -0.905  -8.238  -2.217  0.00  0.00    +0.126 A 
ATOM     18  C   UNL     1      -1.805  -8.799  -3.036  0.00  0.00    +0.055 A 
ATOM     19  C   UNL     1      -2.186 -10.072  -2.413  0.00  0.00    +0.020 A 
ATOM     20  C   UNL     1      -3.062 -11.101  -2.757  0.00  0.00    +0.011 A 
ATOM     21  C   UNL     1      -3.190 -12.185  -1.933  0.00  0.00    +0.001 A 
ATOM     22  C   UNL     1      -2.455 -12.267  -0.759  0.00  0.00    +0.004 A 
ATOM     23  C   UNL     1      -1.584 -11.259  -0.404  0.00  0.00    +0.047 A 
ATOM     24  C   UNL     1      -1.439 -10.149  -1.227  0.00  0.00    +0.135 A 
ATOM     25  O   UNL     1      -0.685  -9.034  -1.156  0.00  0.00    -0.458 OA
ENDBRANCH  15  17
ENDBRANCH   4  15
TORSDOF 3
