REMARK  Name = ZINC34748151
REMARK  6 active torsions:
REMARK  status: ('A' for Active; 'I' for Inactive)
REMARK    1  A    between atoms: C_1  and  C_2
REMARK    2  A    between atoms: C_2  and  C_3
REMARK    3  A    between atoms: C_3  and  N_4
REMARK    4  A    between atoms: N_17  and  C_20
REMARK    5  A    between atoms: C_20  and  C_21
REMARK    6  A    between atoms: N_23  and  C_24
REMARK                            x       y       z     vdW  Elec       q    Type
REMARK                         _______ _______ _______ _____ _____    ______ ____
ROOT
ATOM      1  N   UNL     1      -2.512  -3.145   0.662  0.00  0.00    -0.280 N 
ATOM      2  C   UNL     1      -2.539  -3.920  -0.438  0.00  0.00    +0.264 A 
ATOM      3  O   UNL     1      -3.591  -4.385  -0.843  0.00  0.00    -0.267 OA
ATOM      4  C   UNL     1      -1.314  -4.189  -1.126  0.00  0.00    +0.076 A 
ATOM      5  C   UNL     1      -1.114  -5.002  -2.337  0.00  0.00    -0.023 A 
ATOM      6  C   UNL     1       0.143  -5.106  -2.797  0.00  0.00    -0.004 A 
ATOM      7  S   UNL     1       1.127  -4.145  -1.672  0.00  0.00    -0.073 S 
ATOM      8  C   UNL     1      -0.162  -3.606  -0.579  0.00  0.00    +0.117 A 
ATOM      9  N   UNL     1      -0.203  -2.850   0.513  0.00  0.00    -0.208 NA
ATOM     10  C   UNL     1      -1.345  -2.613   1.125  0.00  0.00    +0.202 A 
ATOM     11  N   UNL     1      -1.359  -1.824   2.248  0.00  0.00    -0.304 N 
ATOM     12  C   UNL     1      -1.567  -0.371   2.148  0.00  0.00    +0.089 C 
ATOM     13  C   UNL     1      -0.463   0.333   2.944  0.00  0.00    -0.059 C 
ATOM     14  N   UNL     1      -0.446  -0.184   4.318  0.00  0.00    +0.387 N 
ATOM     15  C   UNL     1      -0.083  -1.607   4.313  0.00  0.00    -0.059 C 
ATOM     16  C   UNL     1      -1.174  -2.408   3.585  0.00  0.00    +0.089 C 
ATOM     17  C   UNL     1       0.226  -5.962  -4.033  0.00  0.00    +0.043 C 
ATOM     18  C   UNL     1      -1.104  -6.746  -4.052  0.00  0.00    +0.010 C 
ATOM     19  C   UNL     1      -2.034  -5.804  -3.262  0.00  0.00    +0.037 C 
ATOM     20  H   UNL     1      -1.361  -0.073   4.729  0.00  0.00    -0.081 HD
ENDROOT
BRANCH   1  21
ATOM     21  C   UNL     1      -3.761  -2.864   1.374  0.00  0.00    +0.128 C 
BRANCH  21  23
ATOM     22  C   UNL     1      -5.737  -1.340   1.501  0.00  0.00    +0.005 C 
ATOM     23  C   UNL     1      -4.433  -1.634   0.758  0.00  0.00    +0.018 C 
ENDBRANCH  21  23
ENDBRANCH   1  21
BRANCH  14  24
ATOM     24  C   UNL     1       0.537   0.567   5.110  0.00  0.00    +0.019 C 
BRANCH  24  25
ATOM     25  C   UNL     1       0.469   0.122   6.548  0.00  0.00    +0.201 C 
ATOM     26  O   UNL     1      -0.321  -0.736   6.881  0.00  0.00    -0.278 OA
ATOM     27  N   UNL     1       1.286   0.678   7.465  0.00  0.00    -0.287 N 
ATOM     28  H   UNL     1       1.865   1.415   7.215  0.00  0.00    +0.155 HD
BRANCH  27  29
ATOM     29  C   UNL     1       1.298   0.193   8.777  0.00  0.00    +0.033 A 
ATOM     30  C   UNL     1       2.485   0.164   9.498  0.00  0.00    +0.023 A 
ATOM     31  C   UNL     1       2.494  -0.316  10.793  0.00  0.00    +0.002 A 
ATOM     32  C   UNL     1       1.322  -0.767  11.372  0.00  0.00    +0.000 A 
ATOM     33  C   UNL     1       0.139  -0.741  10.657  0.00  0.00    +0.002 A 
ATOM     34  C   UNL     1       0.122  -0.256   9.364  0.00  0.00    +0.023 A 
ENDBRANCH  27  29
ENDBRANCH  24  25
ENDBRANCH  14  24
TORSDOF 5
