REMARK  Name = ZINC39606480
REMARK  12 active torsions:
REMARK  status: ('A' for Active; 'I' for Inactive)
REMARK    1  A    between atoms: C_1  and  C_2
REMARK    2  A    between atoms: C_2  and  C_3
REMARK    3  A    between atoms: C_3  and  C_5
REMARK    4  A    between atoms: C_3  and  C_6
REMARK    5  A    between atoms: C_6  and  N_7
REMARK    6  A    between atoms: C_8  and  C_10
REMARK    7  A    between atoms: C_21  and  C_23
REMARK    8  A    between atoms: C_25  and  C_32
REMARK    9  A    between atoms: N_27  and  C_28
REMARK   10  A    between atoms: C_28  and  C_29
REMARK   11  A    between atoms: C_28  and  C_30
REMARK   12  A    between atoms: C_28  and  C_31
REMARK                            x       y       z     vdW  Elec       q    Type
REMARK                         _______ _______ _______ _____ _____    ______ ____
ROOT
ATOM      1  C   UNL     1      -1.833  -7.062   0.016  0.00  0.00    +0.100 C 
ATOM      2  C   UNL     1      -2.845  -6.156  -0.722  0.00  0.00    +0.121 C 
ATOM      3  N   UNL     1      -3.605  -7.079  -1.597  0.00  0.00    -0.295 N 
ATOM      4  C   UNL     1      -3.795  -8.297  -0.773  0.00  0.00    +0.115 C 
ATOM      5  C   UNL     1      -2.462  -8.465  -0.017  0.00  0.00    -0.004 C 
ATOM      6  C   UNL     1      -2.719  -8.962   1.402  0.00  0.00    -0.010 C 
ATOM      7  C   UNL     1      -3.290 -10.382   1.346  0.00  0.00    -0.082 C 
ATOM      8  N   UNL     1      -2.340 -11.267   0.660  0.00  0.00    +0.379 N 
ATOM      9  C   UNL     1      -2.171 -10.835  -0.733  0.00  0.00    -0.082 C 
ATOM     10  C   UNL     1      -1.552  -9.435  -0.764  0.00  0.00    -0.010 C 
ATOM     11  C   UNL     1      -4.028  -6.861  -2.858  0.00  0.00    +0.265 C 
ATOM     12  O   UNL     1      -4.609  -7.740  -3.466  0.00  0.00    -0.268 OA
ATOM     13  H   UNL     1      -1.450 -11.232   1.133  0.00  0.00    -0.086 HD
ATOM     14  H   UNL     1      -2.691 -12.213   0.678  0.00  0.00    -0.086 HD
ENDROOT
BRANCH  11  15
ATOM     15  C   UNL     1      -3.788  -5.559  -3.500  0.00  0.00    +0.124 A 
ATOM     16  C   UNL     1      -3.249  -4.428  -2.909  0.00  0.00    +0.057 A 
ATOM     17  C   UNL     1      -3.223  -3.461  -3.917  0.00  0.00    +0.061 A 
ATOM     18  N   UNL     1      -3.712  -4.001  -5.004  0.00  0.00    -0.175 NA
ATOM     19  N   UNL     1      -4.045  -5.225  -4.799  0.00  0.00    -0.254 N 
ATOM     20  C   UNL     1      -2.722  -2.047  -3.777  0.00  0.00    +0.067 C 
BRANCH  19  21
ATOM     21  C   UNL     1      -4.619  -6.123  -5.804  0.00  0.00    +0.056 C 
ATOM     22  C   UNL     1      -5.909  -6.740  -5.260  0.00  0.00    +0.036 C 
ATOM     23  C   UNL     1      -4.928  -5.334  -7.077  0.00  0.00    +0.036 C 
ATOM     24  C   UNL     1      -3.618  -7.235  -6.124  0.00  0.00    +0.036 C 
ENDBRANCH  19  21
ENDBRANCH  11  15
BRANCH   1  26
ATOM     25  N   UNL     1       0.626  -7.327  -0.027  0.00  0.00    -0.315 N 
ATOM     26  C   UNL     1      -0.509  -7.064  -0.704  0.00  0.00    +0.218 C 
ATOM     27  O   UNL     1      -0.465  -6.828  -1.893  0.00  0.00    -0.275 OA
ATOM     28  H   UNL     1       0.602  -7.430   0.938  0.00  0.00    +0.149 HD
BRANCH  25  29
ATOM     29  C   UNL     1       1.895  -7.459  -0.747  0.00  0.00    +0.107 C 
BRANCH  29  30
ATOM     30  C   UNL     1       3.001  -7.847   0.236  0.00  0.00    +0.003 C 
ATOM     31  C   UNL     1       3.271  -6.680   1.187  0.00  0.00    +0.009 C 
BRANCH  30  33
ATOM     32  C   UNL     1       5.345  -8.689   0.433  0.00  0.00    +0.004 C 
ATOM     33  C   UNL     1       4.277  -8.181  -0.538  0.00  0.00    +0.001 C 
ENDBRANCH  30  33
ENDBRANCH  29  30
ENDBRANCH  25  29
ENDBRANCH   1  26
TORSDOF 6
