REMARK  Name = ZINC62396279
REMARK  9 active torsions:
REMARK  status: ('A' for Active; 'I' for Inactive)
REMARK    1  A    between atoms: C_1  and  C_2
REMARK    2  A    between atoms: C_2  and  C_3
REMARK    3  A    between atoms: C_3  and  C_4
REMARK    4  A    between atoms: C_7  and  C_22
REMARK    5  A    between atoms: C_8  and  C_12
REMARK    6  A    between atoms: C_13  and  C_21
REMARK    7  A    between atoms: C_15  and  O_19
REMARK    8  A    between atoms: C_17  and  C_18
REMARK    9  A    between atoms: O_19  and  C_20
REMARK                            x       y       z     vdW  Elec       q    Type
REMARK                         _______ _______ _______ _____ _____    ______ ____
ROOT
ATOM      1  C   UNL     1      -1.928  -2.228   0.845  0.00  0.00    +0.102 A 
ATOM      2  N   UNL     1      -2.203  -3.269   0.119  0.00  0.00    -0.161 NA
ATOM      3  N   UNL     1      -1.527  -4.473   0.291  0.00  0.00    -0.195 N 
ATOM      4  C   UNL     1      -1.524  -5.762  -0.258  0.00  0.00    +0.170 A 
ATOM      5  C   UNL     1      -0.551  -6.488   0.422  0.00  0.00    +0.110 A 
ATOM      6  N   UNL     1       0.000  -5.675   1.331  0.00  0.00    -0.219 NA
ATOM      7  C   UNL     1      -0.564  -4.499   1.261  0.00  0.00    +0.197 A 
ATOM      8  S   UNL     1      -0.624  -2.840   1.899  0.00  0.00    -0.033 S 
ENDROOT
BRANCH   5   9
ATOM      9  C   UNL     1      -0.190  -7.904   0.183  0.00  0.00    +0.009 A 
ATOM     10  C   UNL     1       1.124  -8.246  -0.141  0.00  0.00    -0.037 A 
ATOM     11  C   UNL     1       1.456  -9.565  -0.362  0.00  0.00    +0.049 A 
ATOM     12  C   UNL     1       0.485 -10.553  -0.264  0.00  0.00    +0.121 A 
ATOM     13  C   UNL     1      -0.823 -10.217   0.057  0.00  0.00    +0.049 A 
ATOM     14  C   UNL     1      -1.161  -8.900   0.286  0.00  0.00    -0.037 A 
ATOM     15  C   UNL     1      -2.580  -8.536   0.640  0.00  0.00    +0.044 C 
ATOM     16  C   UNL     1       2.178  -7.174  -0.248  0.00  0.00    +0.044 C 
BRANCH  12  17
ATOM     17  O   UNL     1       0.816 -11.853  -0.483  0.00  0.00    -0.495 OA
ATOM     18  C   UNL     1      -0.231 -12.818  -0.366  0.00  0.00    +0.277 C 
ENDBRANCH  12  17
ENDBRANCH   5   9
BRANCH   4  19
ATOM     19  C   UNL     1      -2.362  -6.241  -1.316  0.00  0.00    +0.121 C 
ATOM     20  N   UNL     1      -3.027  -6.621  -2.155  0.00  0.00    -0.189 NA
ENDBRANCH   4  19
BRANCH   1  21
ATOM     21  C   UNL     1      -2.547  -0.854   0.804  0.00  0.00    +0.064 C 
BRANCH  21  23
ATOM     22  C   UNL     1      -4.261   0.579  -0.316  0.00  0.00    +0.004 C 
ATOM     23  C   UNL     1      -3.632  -0.816  -0.274  0.00  0.00    +0.003 C 
ENDBRANCH  21  23
ENDBRANCH   1  21
TORSDOF 5
