REMARK  Name = ZINC09068952
REMARK  13 active torsions:
REMARK  status: ('A' for Active; 'I' for Inactive)
REMARK    1  A    between atoms: C_1  and  C_2
REMARK    2  A    between atoms: C_2  and  C_3
REMARK    3  A    between atoms: C_3  and  C_4
REMARK    4  A    between atoms: C_7  and  C_11
REMARK    5  A    between atoms: C_7  and  C_12
REMARK    6  A    between atoms: N_17  and  C_18
REMARK    7  A    between atoms: C_18  and  C_19
REMARK    8  A    between atoms: C_19  and  N_20
REMARK    9  A    between atoms: C_23  and  C_26
REMARK   10  A    between atoms: C_26  and  C_36
REMARK   11  A    between atoms: C_28  and  C_33
REMARK   12  A    between atoms: C_33  and  C_34
REMARK   13  A    between atoms: C_34  and  C_35
REMARK                            x       y       z     vdW  Elec       q    Type
REMARK                         _______ _______ _______ _____ _____    ______ ____
ROOT
ATOM      1  C   UNL     1      -1.290   1.681   0.017  0.00  0.00    +0.122 C 
ENDROOT
BRANCH   1   7
ATOM      2  C   UNL     1       3.449   2.040  -0.020  0.00  0.00    +0.094 A 
ATOM      3  C   UNL     1       3.212   3.374  -0.011  0.00  0.00    +0.075 A 
ATOM      4  S   UNL     1       1.426   3.394  -0.001  0.00  0.00    -0.060 S 
ATOM      5  C   UNL     1       1.180   1.675  -0.000  0.00  0.00    +0.159 A 
ATOM      6  N   UNL     1       2.417   1.218  -0.015  0.00  0.00    -0.226 NA
ATOM      7  N   UNL     1      -0.011   0.966   0.007  0.00  0.00    -0.322 N 
ATOM      8  H   UNL     1       0.002  -0.004   0.002  0.00  0.00    +0.148 HD
BRANCH   2  11
ATOM      9  C   UNL     1       6.115  -0.289  -1.024  0.00  0.00    +0.102 C 
ATOM     10  C   UNL     1       4.853  -0.032  -0.171  0.00  0.00    +0.069 C 
ATOM     11  C   UNL     1       4.859   1.508  -0.037  0.00  0.00    +0.153 C 
ATOM     12  O   UNL     1       5.565   1.974  -1.224  0.00  0.00    -0.452 OA
ATOM     13  C   UNL     1       6.473   1.063  -1.602  0.00  0.00    +0.311 C 
ATOM     14  O   UNL     1       7.434   1.287  -2.301  0.00  0.00    -0.251 OA
ATOM     15  C   UNL     1       5.604   1.931   1.231  0.00  0.00    +0.063 C 
BRANCH   9  16
ATOM     16  C   UNL     1       5.808  -1.285  -2.143  0.00  0.00    +0.014 C 
BRANCH  16  18
ATOM     17  C   UNL     1       6.790  -2.616  -4.016  0.00  0.00    +0.004 C 
ATOM     18  C   UNL     1       7.097  -1.620  -2.897  0.00  0.00    -0.003 C 
ENDBRANCH  16  18
ENDBRANCH   9  16
ENDBRANCH   2  11
ENDBRANCH   1   7
BRANCH   1  19
ATOM     19  C   UNL     1      -2.439   0.671   0.017  0.00  0.00    +0.122 C 
BRANCH  19  20
ATOM     20  N   UNL     1      -3.717   1.386   0.027  0.00  0.00    -0.322 N 
ATOM     21  C   UNL     1      -4.908   0.677   0.029  0.00  0.00    +0.159 A 
ATOM     22  N   UNL     1      -6.146   1.135   0.043  0.00  0.00    -0.226 NA
ATOM     23  C   UNL     1      -7.178   0.312   0.038  0.00  0.00    +0.094 A 
ATOM     24  C   UNL     1      -6.941  -1.022   0.030  0.00  0.00    +0.075 A 
ATOM     25  S   UNL     1      -5.154  -1.042   0.021  0.00  0.00    -0.060 S 
ATOM     26  H   UNL     1      -3.731   2.356   0.033  0.00  0.00    +0.148 HD
BRANCH  23  27
ATOM     27  C   UNL     1      -8.588   0.844   0.048  0.00  0.00    +0.153 C 
ATOM     28  C   UNL     1      -8.582   2.387   0.145  0.00  0.00    +0.069 C 
ATOM     29  C   UNL     1      -9.840   2.664   0.997  0.00  0.00    +0.102 C 
ATOM     30  C   UNL     1     -10.195   1.327   1.610  0.00  0.00    +0.311 C 
ATOM     31  O   UNL     1     -11.153   1.119   2.317  0.00  0.00    -0.251 OA
ATOM     32  O   UNL     1      -9.289   0.407   1.250  0.00  0.00    -0.452 OA
ATOM     33  C   UNL     1      -9.339   0.388  -1.204  0.00  0.00    +0.063 C 
BRANCH  29  34
ATOM     34  C   UNL     1      -9.527   3.686   2.092  0.00  0.00    +0.014 C 
BRANCH  34  35
ATOM     35  C   UNL     1     -10.797   3.980   2.893  0.00  0.00    -0.003 C 
ATOM     36  C   UNL     1     -10.485   5.001   3.989  0.00  0.00    +0.004 C 
ENDBRANCH  34  35
ENDBRANCH  29  34
ENDBRANCH  23  27
ENDBRANCH  19  20
ENDBRANCH   1  19
TORSDOF 9
