REMARK  Name = ZINC40245414
REMARK  4 active torsions:
REMARK  status: ('A' for Active; 'I' for Inactive)
REMARK    1  A    between atoms: C_4  and  C_8
REMARK    2  A    between atoms: C_8  and  C_10
REMARK    3  A    between atoms: C_8  and  O_18
REMARK    4  A    between atoms: C_13  and  N_15
REMARK                            x       y       z     vdW  Elec       q    Type
REMARK                         _______ _______ _______ _____ _____    ______ ____
ROOT
ATOM      1  C   UNL     1       3.712  -0.708  -0.038  0.00  0.00    +0.211 C 
ENDROOT
BRANCH   1   5
ATOM      2  C   UNL     1      -0.017   1.379   0.010  0.00  0.00    +0.016 A 
ATOM      3  C   UNL     1       1.171   2.086   0.002  0.00  0.00    +0.017 A 
ATOM      4  C   UNL     1       2.378   1.411  -0.013  0.00  0.00    +0.024 A 
ATOM      5  C   UNL     1       2.397   0.028  -0.021  0.00  0.00    +0.003 A 
ATOM      6  C   UNL     1       1.210  -0.679  -0.013  0.00  0.00    +0.023 A 
ATOM      7  C   UNL     1       0.002  -0.004   0.002  0.00  0.00    +0.018 A 
ATOM      8 BR   UNL     1      -1.623  -0.972   0.013  0.00  0.00    -0.050 Br
ATOM      9 BR   UNL     1       4.002   2.379  -0.024  0.00  0.00    -0.050 Br
ENDBRANCH   1   5
BRANCH   1  10
ATOM     10  C   UNL     1       4.196  -0.838  -1.459  0.00  0.00    +0.141 A 
ATOM     11  C   UNL     1       5.130  -0.067  -2.045  0.00  0.00    +0.050 A 
ATOM     12  C   UNL     1       5.273  -0.535  -3.372  0.00  0.00    +0.076 A 
ATOM     13  C   UNL     1       4.418  -1.563  -3.517  0.00  0.00    +0.280 A 
ATOM     14  O   UNL     1       3.772  -1.746  -2.354  0.00  0.00    -0.436 OA
BRANCH  13  15
ATOM     15  N   UNL     1       4.226  -2.362  -4.748  0.00  0.00    +0.093 N 
ATOM     16  O   UNL     1       4.870  -2.109  -5.740  0.00  0.00    -0.123 OA
ATOM     17  O   UNL     1       3.425  -3.267  -4.763  0.00  0.00    -0.123 OA
ENDBRANCH  13  15
ENDBRANCH   1  10
BRANCH   1  18
ATOM     18  O   UNL     1       3.537  -2.009   0.526  0.00  0.00    -0.379 OA
ATOM     19  H   UNL     1       2.896  -2.559   0.056  0.00  0.00    +0.211 HD
ENDBRANCH   1  18
TORSDOF 4
