REMARK  Name = ZINC35097890
REMARK  11 active torsions:
REMARK  status: ('A' for Active; 'I' for Inactive)
REMARK    1  A    between atoms: C_1  and  C_2
REMARK    2  A    between atoms: C_2  and  C_3
REMARK    3  A    between atoms: C_3  and  C_5
REMARK    4  A    between atoms: C_3  and  C_6
REMARK    5  A    between atoms: C_6  and  C_8
REMARK    6  A    between atoms: C_6  and  N_24
REMARK    7  A    between atoms: C_14  and  C_17
REMARK    8  A    between atoms: N_20  and  C_21
REMARK    9  A    between atoms: C_21  and  C_22
REMARK   10  A    between atoms: C_21  and  C_23
REMARK   11  A    between atoms: C_25  and  C_27
REMARK                            x       y       z     vdW  Elec       q    Type
REMARK                         _______ _______ _______ _____ _____    ______ ____
ROOT
ATOM      1  C   UNL     1      -1.418  -2.093   0.138  0.00  0.00    +0.162 C 
ENDROOT
BRANCH   1   2
ATOM      2  C   UNL     1      -0.724  -2.505   1.411  0.00  0.00    +0.236 C 
ATOM      3  O   UNL     1       0.325  -3.111   1.361  0.00  0.00    -0.274 OA
ATOM      4  N   UNL     1      -1.270  -2.201   2.605  0.00  0.00    -0.297 N 
ATOM      5  C   UNL     1      -2.591  -1.560   2.682  0.00  0.00    +0.127 C 
ATOM      6  C   UNL     1      -2.463  -0.269   3.498  0.00  0.00    +0.128 C 
ATOM      7  N   UNL     1      -1.748  -0.571   4.747  0.00  0.00    -0.280 N 
ATOM      8  C   UNL     1      -0.428  -1.211   4.670  0.00  0.00    +0.092 C 
ATOM      9  C   UNL     1      -0.559  -2.508   3.853  0.00  0.00    +0.130 C 
ATOM     10  C   UNL     1       0.563  -0.265   3.988  0.00  0.00    +0.030 C 
ATOM     11  C   UNL     1      -2.295  -0.267   5.941  0.00  0.00    +0.303 C 
ATOM     12  O   UNL     1      -1.744  -0.614   6.967  0.00  0.00    -0.253 OA
ATOM     13  N   UNL     1      -3.451   0.423   5.996  0.00  0.00    -0.297 N 
ATOM     14  H   UNL     1      -3.927   0.638   5.179  0.00  0.00    +0.150 HD
BRANCH  13  15
ATOM     15  C   UNL     1      -3.989   0.849   7.291  0.00  0.00    +0.068 C 
ATOM     16  C   UNL     1      -4.884   2.073   7.094  0.00  0.00    +0.027 C 
ATOM     17  C   UNL     1      -4.809  -0.290   7.901  0.00  0.00    +0.027 C 
ENDBRANCH  13  15
ENDBRANCH   1   2
BRANCH   1  18
ATOM     18  N   UNL     1      -1.000  -2.976  -0.954  0.00  0.00    -0.300 N 
ATOM     19  C   UNL     1      -1.804  -3.156  -2.021  0.00  0.00    +0.247 C 
ATOM     20  O   UNL     1      -2.876  -2.585  -2.077  0.00  0.00    -0.270 OA
ATOM     21  H   UNL     1      -0.145  -3.432  -0.909  0.00  0.00    +0.150 HD
BRANCH  19  22
ATOM     22  C   UNL     1      -1.383  -4.046  -3.121  0.00  0.00    +0.072 A 
ATOM     23  C   UNL     1      -0.155  -4.708  -3.057  0.00  0.00    +0.016 A 
ATOM     24  C   UNL     1       0.232  -5.538  -4.088  0.00  0.00    +0.001 A 
ATOM     25  C   UNL     1      -0.592  -5.718  -5.186  0.00  0.00    +0.003 A 
ATOM     26  C   UNL     1      -1.809  -5.066  -5.258  0.00  0.00    +0.039 A 
ATOM     27  C   UNL     1      -2.214  -4.235  -4.229  0.00  0.00    +0.135 A 
ATOM     28  F   UNL     1      -3.406  -3.603  -4.298  0.00  0.00    -0.205 F 
ENDBRANCH  19  22
ENDBRANCH   1  18
BRANCH   1  29
ATOM     29  C   UNL     1      -1.044  -0.649  -0.203  0.00  0.00    +0.015 C 
ATOM     30  C   UNL     1      -1.774  -0.220  -1.477  0.00  0.00    +0.010 C 
BRANCH  29  32
ATOM     31  C   UNL     1       0.858   0.910  -0.641  0.00  0.00    +0.004 C 
ATOM     32  C   UNL     1       0.467  -0.553  -0.424  0.00  0.00    +0.002 C 
ENDBRANCH  29  32
ENDBRANCH   1  29
TORSDOF 6
