REMARK  Name = ZINC36583721
REMARK  12 active torsions:
REMARK  status: ('A' for Active; 'I' for Inactive)
REMARK    1  A    between atoms: C_1  and  C_2
REMARK    2  A    between atoms: C_2  and  C_3
REMARK    3  A    between atoms: C_2  and  C_4
REMARK    4  A    between atoms: C_2  and  N_5
REMARK    5  A    between atoms: N_5  and  C_6
REMARK    6  A    between atoms: C_6  and  C_8
REMARK    7  A    between atoms: C_6  and  C_15
REMARK    8  A    between atoms: C_13  and  O_14
REMARK    9  A    between atoms: N_17  and  C_18
REMARK   10  A    between atoms: C_24  and  C_26
REMARK   11  A    between atoms: C_28  and  N_35
REMARK   12  A    between atoms: C_30  and  N_32
REMARK                            x       y       z     vdW  Elec       q    Type
REMARK                         _______ _______ _______ _____ _____    ______ ____
ROOT
ATOM      1  N   UNL     1       0.921  -0.746  -1.151  0.00  0.00    -0.277 N 
ATOM      2  C   UNL     1       0.422  -0.345   0.036  0.00  0.00    +0.248 C 
ATOM      3  O   UNL     1      -0.700  -0.676   0.367  0.00  0.00    -0.270 OA
ENDROOT
BRANCH   2   4
ATOM      4  C   UNL     1       1.240   0.496   0.935  0.00  0.00    +0.041 A 
ATOM      5  C   UNL     1       2.495   0.948   0.523  0.00  0.00    +0.046 A 
ATOM      6  C   UNL     1       3.253   1.733   1.367  0.00  0.00    +0.129 A 
ATOM      7  C   UNL     1       2.772   2.073   2.619  0.00  0.00    +0.065 A 
ATOM      8  C   UNL     1       1.528   1.629   3.033  0.00  0.00    +0.129 A 
ATOM      9  C   UNL     1       0.758   0.847   2.197  0.00  0.00    +0.046 A 
BRANCH   8  10
ATOM     10  N   UNL     1       1.022   1.997   4.374  0.00  0.00    +0.057 N 
ATOM     11  O   UNL     1       1.694   2.686   5.106  0.00  0.00    -0.126 OA
ATOM     12  O   UNL     1      -0.065   1.609   4.737  0.00  0.00    -0.126 OA
ENDBRANCH   8  10
BRANCH   6  13
ATOM     13  N   UNL     1       4.584   2.213   0.932  0.00  0.00    +0.057 N 
ATOM     14  O   UNL     1       5.041   1.850  -0.126  0.00  0.00    -0.126 OA
ATOM     15  O   UNL     1       5.213   2.969   1.635  0.00  0.00    -0.126 OA
ENDBRANCH   6  13
ENDBRANCH   2   4
BRANCH   1  17
ATOM     16  C   UNL     1       0.856  -1.790  -3.361  0.00  0.00    +0.031 C 
ATOM     17  C   UNL     1       0.109  -1.576  -2.043  0.00  0.00    +0.030 C 
ATOM     18  C   UNL     1      -1.224  -0.877  -2.320  0.00  0.00    +0.031 C 
ATOM     19  C   UNL     1      -0.154  -2.931  -1.382  0.00  0.00    +0.031 C 
ENDBRANCH   1  17
BRANCH   1  20
ATOM     20  C   UNL     1       2.274  -0.351  -1.548  0.00  0.00    +0.196 C 
BRANCH  20  21
ATOM     21  C   UNL     1       2.338   1.148  -1.691  0.00  0.00    +0.023 A 
ATOM     22  C   UNL     1       1.453   1.948  -0.994  0.00  0.00    +0.009 A 
ATOM     23  C   UNL     1       1.511   3.323  -1.125  0.00  0.00    +0.001 A 
ATOM     24  C   UNL     1       2.455   3.901  -1.953  0.00  0.00    +0.004 A 
ATOM     25  C   UNL     1       3.342   3.107  -2.652  0.00  0.00    +0.046 A 
ATOM     26  C   UNL     1       3.290   1.726  -2.518  0.00  0.00    +0.122 A 
BRANCH  26  27
ATOM     27  O   UNL     1       4.165   0.942  -3.200  0.00  0.00    -0.506 OA
ATOM     28  H   UNL     1       3.854   0.674  -4.076  0.00  0.00    +0.292 HD
ENDBRANCH  26  27
ENDBRANCH  20  21
BRANCH  20  29
ATOM     29  C   UNL     1       3.257  -0.797  -0.495  0.00  0.00    +0.238 C 
ATOM     30  O   UNL     1       2.875  -1.452   0.451  0.00  0.00    -0.273 OA
ATOM     31  N   UNL     1       4.559  -0.468  -0.607  0.00  0.00    -0.311 N 
ATOM     32  H   UNL     1       4.847   0.141  -1.304  0.00  0.00    +0.149 HD
BRANCH  31  33
ATOM     33  C   UNL     1       5.539  -1.032   0.326  0.00  0.00    +0.073 C 
ATOM     34  C   UNL     1       5.491  -0.258   1.645  0.00  0.00    +0.022 C 
ATOM     35  C   UNL     1       6.514  -0.846   2.618  0.00  0.00    +0.002 C 
ATOM     36  C   UNL     1       7.915  -0.736   2.013  0.00  0.00    +0.000 C 
ATOM     37  C   UNL     1       7.963  -1.510   0.694  0.00  0.00    +0.002 C 
ATOM     38  C   UNL     1       6.940  -0.922  -0.279  0.00  0.00    +0.022 C 
ENDBRANCH  31  33
ENDBRANCH  20  29
ENDBRANCH   1  20
TORSDOF 9
