REMARK  Name = ZINC65271868
REMARK  8 active torsions:
REMARK  status: ('A' for Active; 'I' for Inactive)
REMARK    1  A    between atoms: C_1  and  C_2
REMARK    2  A    between atoms: C_2  and  C_3
REMARK    3  A    between atoms: C_6  and  C_9
REMARK    4  A    between atoms: C_10  and  C_29
REMARK    5  A    between atoms: C_19  and  N_22
REMARK    6  A    between atoms: N_25  and  C_26
REMARK    7  A    between atoms: C_26  and  C_27
REMARK    8  A    between atoms: C_26  and  C_28
REMARK                            x       y       z     vdW  Elec       q    Type
REMARK                         _______ _______ _______ _____ _____    ______ ____
ROOT
ATOM      1  C   UNL     1       4.856  -2.066   5.103  0.00  0.00    +0.126 C 
ATOM      2  C   UNL     1       4.718  -3.138   5.917  0.00  0.00    +0.018 C 
ATOM      3  C   UNL     1       3.373  -3.362   6.407  0.00  0.00    +0.148 C 
ATOM      4  N   UNL     1       2.430  -2.541   6.039  0.00  0.00    -0.113 NA
ATOM      5  S   UNL     1       3.194  -1.426   5.052  0.00  0.00    +0.101 S 
ATOM      6  O   UNL     1       2.700  -1.609   3.732  0.00  0.00    -0.146 OA
ATOM      7  O   UNL     1       3.191  -0.174   5.724  0.00  0.00    -0.146 OA
ATOM      8  N   UNL     1       3.095  -4.423   7.246  0.00  0.00    -0.314 N 
ATOM      9  C   UNL     1       1.778  -5.072   7.221  0.00  0.00    +0.108 C 
ATOM     10  C   UNL     1       1.210  -5.090   8.643  0.00  0.00    +0.041 C 
ATOM     11  C   UNL     1       2.220  -5.753   9.583  0.00  0.00    +0.077 C 
ATOM     12  C   UNL     1       3.518  -4.944   9.592  0.00  0.00    +0.041 C 
ATOM     13  C   UNL     1       4.115  -4.928   8.176  0.00  0.00    +0.108 C 
ATOM     14  C   UNL     1       5.875  -4.031   6.285  0.00  0.00    +0.049 C 
ENDROOT
BRANCH   1  18
ATOM     15  C   UNL     1       8.344  -0.596   3.187  0.00  0.00    -0.048 A 
ATOM     16  C   UNL     1       7.168  -0.727   2.469  0.00  0.00    +0.004 A 
ATOM     17  C   UNL     1       6.030  -1.204   3.085  0.00  0.00    +0.010 A 
ATOM     18  C   UNL     1       6.067  -1.556   4.438  0.00  0.00    +0.002 A 
ATOM     19  C   UNL     1       7.258  -1.421   5.155  0.00  0.00    +0.010 A 
ATOM     20  C   UNL     1       8.389  -0.947   4.524  0.00  0.00    +0.004 A 
BRANCH  15  22
ATOM     21  C   UNL     1      10.368  -1.242   1.909  0.00  0.00    +0.009 C 
ATOM     22  C   UNL     1       9.582  -0.073   2.506  0.00  0.00    +0.032 C 
ENDBRANCH  15  22
ENDBRANCH   1  18
BRANCH  11  23
ATOM     23  N   UNL     1       1.666  -5.802  10.939  0.00  0.00    -0.296 N 
ATOM     24  C   UNL     1       2.094  -6.738  11.808  0.00  0.00    +0.300 C 
ATOM     25  O   UNL     1       2.939  -7.543  11.468  0.00  0.00    -0.253 OA
ATOM     26  N   UNL     1       1.584  -6.783  13.055  0.00  0.00    -0.297 N 
ATOM     27  H   UNL     1       0.991  -5.160  11.210  0.00  0.00    +0.151 HD
ATOM     28  H   UNL     1       0.910  -6.141  13.327  0.00  0.00    +0.150 HD
BRANCH  26  29
ATOM     29  C   UNL     1       2.050  -7.801  14.000  0.00  0.00    +0.068 C 
ATOM     30  C   UNL     1       3.321  -7.309  14.695  0.00  0.00    +0.027 C 
ATOM     31  C   UNL     1       0.964  -8.060  15.047  0.00  0.00    +0.027 C 
ENDBRANCH  26  29
ENDBRANCH  11  23
TORSDOF 4
