REMARK  Name = ZINC39197073
REMARK  5 active torsions:
REMARK  status: ('A' for Active; 'I' for Inactive)
REMARK    1  A    between atoms: C_5  and  C_7
REMARK    2  A    between atoms: C_9  and  N_31
REMARK    3  A    between atoms: N_10  and  C_12
REMARK    4  A    between atoms: C_15  and  C_18
REMARK    5  A    between atoms: N_20  and  C_21
REMARK                            x       y       z     vdW  Elec       q    Type
REMARK                         _______ _______ _______ _____ _____    ______ ____
ROOT
ATOM      1  C   UNL     1       2.776  -5.370  -0.050  0.00  0.00    +0.067 A 
ATOM      2  C   UNL     1       2.416  -6.527   0.632  0.00  0.00    +0.028 A 
ATOM      3  C   UNL     1       3.250  -7.622   0.623  0.00  0.00    +0.015 A 
ATOM      4  C   UNL     1       4.461  -7.570  -0.072  0.00  0.00    +0.037 A 
ATOM      5  C   UNL     1       4.821  -6.406  -0.756  0.00  0.00    +0.015 A 
ATOM      6  C   UNL     1       3.979  -5.316  -0.748  0.00  0.00    +0.028 A 
ENDROOT
BRANCH   1  10
ATOM      7  C   UNL     1       1.246  -2.165  -0.023  0.00  0.00    +0.096 A 
ATOM      8  C   UNL     1       0.120  -3.011  -0.022  0.00  0.00    +0.073 A 
ATOM      9  C   UNL     1       0.565  -4.295  -0.032  0.00  0.00    +0.120 A 
ATOM     10  N   UNL     1       1.927  -4.261  -0.040  0.00  0.00    -0.218 N 
ATOM     11  N   UNL     1       2.326  -2.918  -0.039  0.00  0.00    -0.165 NA
BRANCH   7  16
ATOM     12  C   UNL     1      -0.017   1.376   0.010  0.00  0.00    +0.001 A 
ATOM     13  C   UNL     1       1.170   2.087   0.002  0.00  0.00    +0.001 A 
ATOM     14  C   UNL     1       2.382   1.421  -0.013  0.00  0.00    +0.020 A 
ATOM     15  C   UNL     1       2.413   0.039  -0.022  0.00  0.00    +0.050 A 
ATOM     16  C   UNL     1       1.220  -0.682  -0.014  0.00  0.00    +0.020 A 
ATOM     17  C   UNL     1       0.002  -0.004   0.002  0.00  0.00    +0.011 A 
ATOM     18 CL   UNL     1       3.934  -0.796  -0.043  0.00  0.00    -0.083 Cl
ENDBRANCH   7  16
BRANCH   9  19
ATOM     19  N   UNL     1      -0.228  -5.439  -0.035  0.00  0.00    -0.343 N 
ATOM     20  H   UNL     1      -1.195  -5.359  -0.029  0.00  0.00    +0.144 HD
ATOM     21  H   UNL     1       0.186  -6.316  -0.042  0.00  0.00    +0.144 HD
ENDBRANCH   9  19
ENDBRANCH   1  10
BRANCH   4  22
ATOM     22  C   UNL     1       5.359  -8.742  -0.083  0.00  0.00    +0.244 C 
ATOM     23  O   UNL     1       5.045  -9.754   0.513  0.00  0.00    -0.270 OA
ATOM     24  N   UNL     1       6.527  -8.690  -0.755  0.00  0.00    -0.306 N 
ATOM     25  H   UNL     1       6.777  -7.882  -1.230  0.00  0.00    +0.150 HD
BRANCH  24  26
ATOM     26  C   UNL     1       7.417  -9.852  -0.766  0.00  0.00    +0.036 C 
ATOM     27  C   UNL     1       6.689 -11.047  -1.384  0.00  0.00    +0.029 C 
ATOM     28  C   UNL     1       7.619 -12.262  -1.395  0.00  0.00    -0.008 C 
ATOM     29  C   UNL     1       8.866 -11.941  -2.223  0.00  0.00    +0.007 C 
ATOM     30  C   UNL     1       9.594 -10.747  -1.605  0.00  0.00    -0.008 C 
ATOM     31  C   UNL     1       8.664  -9.532  -1.593  0.00  0.00    +0.029 C 
ATOM     32  C   UNL     1      10.007 -11.087  -0.171  0.00  0.00    +0.007 C 
ATOM     33  C   UNL     1       8.760 -11.407   0.656  0.00  0.00    -0.008 C 
ATOM     34  C   UNL     1       8.032 -12.602   0.038  0.00  0.00    +0.007 C 
ATOM     35  C   UNL     1       7.830 -10.193   0.668  0.00  0.00    +0.029 C 
ENDBRANCH  24  26
ENDBRANCH   4  22
TORSDOF 5
