REMARK  Name = ZINC09846919
REMARK  12 active torsions:
REMARK  status: ('A' for Active; 'I' for Inactive)
REMARK    1  A    between atoms: C_1  and  C_2
REMARK    2  A    between atoms: C_2  and  O_3
REMARK    3  A    between atoms: O_3  and  C_4
REMARK    4  A    between atoms: C_4  and  C_6
REMARK    5  A    between atoms: C_7  and  N_36
REMARK    6  A    between atoms: C_14  and  O_27
REMARK    7  A    between atoms: C_21  and  C_25
REMARK    8  A    between atoms: C_21  and  C_26
REMARK    9  A    between atoms: C_23  and  C_24
REMARK   10  A    between atoms: O_27  and  C_28
REMARK   11  A    between atoms: C_32  and  C_34
REMARK   12  A    between atoms: C_32  and  C_35
REMARK                            x       y       z     vdW  Elec       q    Type
REMARK                         _______ _______ _______ _____ _____    ______ ____
ROOT
ATOM      1  C   UNL     1      -1.870   2.046   3.723  0.00  0.00    +0.117 C 
ATOM      2  C   UNL     1      -0.517   2.016   3.587  0.00  0.00    +0.195 C 
ATOM      3  O   UNL     1       0.062   2.008   2.378  0.00  0.00    -0.446 OA
ATOM      4  C   UNL     1      -0.635   1.609   1.297  0.00  0.00    +0.116 C 
ATOM      5  C   UNL     1      -1.980   1.621   1.288  0.00  0.00    +0.057 C 
ATOM      6  C   UNL     1      -2.748   2.064   2.507  0.00  0.00    +0.142 C 
ATOM      7  C   UNL     1      -3.351   3.414   2.290  0.00  0.00    +0.002 A 
ATOM      8  C   UNL     1      -2.846   4.675   2.053  0.00  0.00    +0.052 A 
ATOM      9  C   UNL     1      -3.767   5.717   1.896  0.00  0.00    +0.121 A 
ATOM     10  C   UNL     1      -5.140   5.519   1.972  0.00  0.00    +0.055 A 
ATOM     11  C   UNL     1      -5.652   4.255   2.212  0.00  0.00    +0.003 A 
ATOM     12  C   UNL     1      -4.719   3.212   2.370  0.00  0.00    +0.050 A 
ATOM     13  N   UNL     1      -5.054   1.886   2.617  0.00  0.00    -0.260 N 
ATOM     14  C   UNL     1      -3.938   1.140   2.716  0.00  0.00    +0.241 C 
ATOM     15  O   UNL     1      -3.890  -0.052   2.933  0.00  0.00    -0.274 OA
ATOM     16  C   UNL     1      -6.455   1.460   2.735  0.00  0.00    +0.055 C 
ATOM     17  C   UNL     1      -7.397   2.612   2.555  0.00  0.00    +0.002 C 
ATOM     18  C   UNL     1      -7.066   3.871   2.321  0.00  0.00    -0.043 C 
ATOM     19  C   UNL     1      -8.142   4.915   2.165  0.00  0.00    +0.044 C 
ATOM     20  C   UNL     1      -6.748   0.404   1.667  0.00  0.00    +0.036 C 
ATOM     21  C   UNL     1      -6.676   0.845   4.118  0.00  0.00    +0.036 C 
ATOM     22  C   UNL     1      -2.709   1.219   0.151  0.00  0.00    +0.165 C 
ATOM     23  O   UNL     1      -3.923   1.222   0.189  0.00  0.00    -0.292 OA
ATOM     24  C   UNL     1      -2.010   0.787  -1.109  0.00  0.00    +0.086 C 
ATOM     25  C   UNL     1      -0.648   1.485  -1.185  0.00  0.00    -0.021 C 
ATOM     26  C   UNL     1       0.140   1.151   0.084  0.00  0.00    +0.081 C 
ATOM     27  C   UNL     1      -0.851   2.999  -1.280  0.00  0.00    +0.012 C 
ATOM     28  C   UNL     1       0.120   0.992  -2.412  0.00  0.00    +0.012 C 
ENDROOT
BRANCH   2  29
ATOM     29  N   UNL     1       0.269   1.994   4.708  0.00  0.00    -0.329 N 
ATOM     30  H   UNL     1      -0.139   1.926   5.585  0.00  0.00    +0.145 HD
ATOM     31  H   UNL     1       1.234   2.046   4.625  0.00  0.00    +0.145 HD
ENDBRANCH   2  29
BRANCH   1  32
ATOM     32  C   UNL     1      -2.446   2.061   5.003  0.00  0.00    +0.342 C 
ATOM     33  O   UNL     1      -2.861   3.106   5.472  0.00  0.00    -0.245 OA
BRANCH  32  34
ATOM     34  O   UNL     1      -2.539   0.917   5.715  0.00  0.00    -0.462 OA
BRANCH  34  36
ATOM     35  C   UNL     1      -3.342  -0.420   7.561  0.00  0.00    +0.048 C 
ATOM     36  C   UNL     1      -3.235   0.984   6.961  0.00  0.00    +0.229 C 
ENDBRANCH  34  36
ENDBRANCH  32  34
ENDBRANCH   1  32
BRANCH   9  37
ATOM     37  O   UNL     1      -3.299   6.972   1.661  0.00  0.00    -0.495 OA
ATOM     38  C   UNL     1      -4.271   8.008   1.508  0.00  0.00    +0.277 C 
ENDBRANCH   9  37
TORSDOF 5
