REMARK  Name = ZINC39673695
REMARK  9 active torsions:
REMARK  status: ('A' for Active; 'I' for Inactive)
REMARK    1  A    between atoms: C_1  and  C_2
REMARK    2  A    between atoms: C_2  and  C_3
REMARK    3  A    between atoms: C_3  and  C_4
REMARK    4  A    between atoms: C_4  and  C_6
REMARK    5  A    between atoms: C_4  and  N_7
REMARK    6  A    between atoms: C_8  and  C_10
REMARK    7  A    between atoms: C_21  and  C_23
REMARK    8  A    between atoms: C_23  and  O_24
REMARK    9  A    between atoms: O_24  and  C_25
REMARK                            x       y       z     vdW  Elec       q    Type
REMARK                         _______ _______ _______ _____ _____    ______ ____
ROOT
ATOM      1  C   UNL     1      -2.345  -4.283  -1.025  0.00  0.00    +0.100 C 
ATOM      2  C   UNL     1      -3.290  -3.481  -0.104  0.00  0.00    +0.121 C 
ATOM      3  N   UNL     1      -4.242  -4.487   0.423  0.00  0.00    -0.297 N 
ATOM      4  C   UNL     1      -3.408  -5.687   0.676  0.00  0.00    +0.115 C 
ATOM      5  C   UNL     1      -2.424  -5.730  -0.510  0.00  0.00    -0.004 C 
ATOM      6  C   UNL     1      -1.051  -6.199  -0.038  0.00  0.00    -0.010 C 
ATOM      7  C   UNL     1      -1.143  -7.659   0.415  0.00  0.00    -0.082 C 
ATOM      8  N   UNL     1      -1.610  -8.491  -0.700  0.00  0.00    +0.379 N 
ATOM      9  C   UNL     1      -2.970  -8.094  -1.086  0.00  0.00    -0.082 C 
ATOM     10  C   UNL     1      -2.955  -6.652  -1.603  0.00  0.00    -0.010 C 
ATOM     11  C   UNL     1      -5.566  -4.345   0.626  0.00  0.00    +0.253 C 
ATOM     12  O   UNL     1      -6.215  -5.269   1.068  0.00  0.00    -0.272 OA
ATOM     13  H   UNL     1      -0.991  -8.374  -1.488  0.00  0.00    -0.086 HD
ATOM     14  H   UNL     1      -1.612  -9.460  -0.418  0.00  0.00    -0.086 HD
ENDROOT
BRANCH   1  16
ATOM     15  N   UNL     1      -0.092  -3.866  -1.959  0.00  0.00    -0.312 N 
ATOM     16  C   UNL     1      -0.935  -3.763  -0.912  0.00  0.00    +0.218 C 
ATOM     17  O   UNL     1      -0.559  -3.250   0.121  0.00  0.00    -0.275 OA
ATOM     18  H   UNL     1      -0.393  -4.276  -2.785  0.00  0.00    +0.149 HD
BRANCH  15  19
ATOM     19  C   UNL     1       1.278  -3.360  -1.849  0.00  0.00    +0.070 C 
ATOM     20  C   UNL     1       2.168  -4.430  -1.215  0.00  0.00    +0.028 C 
BRANCH  19  21
ATOM     21  C   UNL     1       1.808  -3.015  -3.242  0.00  0.00    +0.022 C 
BRANCH  21  23
ATOM     22  C   UNL     1       1.525  -1.514  -5.220  0.00  0.00    +0.004 C 
ATOM     23  C   UNL     1       0.995  -1.859  -3.826  0.00  0.00    -0.002 C 
ENDBRANCH  21  23
ENDBRANCH  19  21
ENDBRANCH  15  19
ENDBRANCH   1  16
BRANCH  11  24
ATOM     24  C   UNL     1      -6.242  -3.036   0.305  0.00  0.00    +0.324 C 
BRANCH  24  25
ATOM     25  O   UNL     1      -7.636  -3.133   0.604  0.00  0.00    -0.483 OA
BRANCH  25  26
ATOM     26  C   UNL     1      -8.395  -2.031   0.369  0.00  0.00    +0.123 A 
ATOM     27  C   UNL     1      -7.811  -0.881  -0.144  0.00  0.00    +0.046 A 
ATOM     28  C   UNL     1      -8.585   0.238  -0.383  0.00  0.00    +0.005 A 
ATOM     29  C   UNL     1      -9.941   0.214  -0.111  0.00  0.00    +0.020 A 
ATOM     30  C   UNL     1     -10.525  -0.931   0.401  0.00  0.00    +0.044 A 
ATOM     31  C   UNL     1      -9.756  -2.055   0.636  0.00  0.00    +0.065 A 
ATOM     32 CL   UNL     1     -12.227  -0.958   0.742  0.00  0.00    -0.083 Cl
ENDBRANCH  25  26
ENDBRANCH  24  25
ENDBRANCH  11  24
TORSDOF 7
