REMARK  Name = ZINC09243761
REMARK  14 active torsions:
REMARK  status: ('A' for Active; 'I' for Inactive)
REMARK    1  A    between atoms: C_1  and  C_2
REMARK    2  A    between atoms: C_4  and  O_36
REMARK    3  A    between atoms: C_5  and  C_9
REMARK    4  A    between atoms: N_17  and  C_32
REMARK    5  A    between atoms: C_18  and  C_20
REMARK    6  A    between atoms: C_24  and  O_26
REMARK    7  A    between atoms: O_26  and  C_27
REMARK    8  A    between atoms: C_27  and  C_28
REMARK    9  A    between atoms: C_28  and  C_29
REMARK   10  A    between atoms: C_29  and  C_30
REMARK   11  A    between atoms: C_29  and  C_31
REMARK   12  A    between atoms: C_32  and  C_33
REMARK   13  A    between atoms: C_33  and  C_34
REMARK   14  A    between atoms: C_34  and  O_35
REMARK                            x       y       z     vdW  Elec       q    Type
REMARK                         _______ _______ _______ _____ _____    ______ ____
ROOT
ATOM      1  C   UNL     1      -0.190  -4.648  -0.085  0.00  0.00    +0.102 A 
ATOM      2  C   UNL     1       0.060  -5.307   1.123  0.00  0.00    +0.035 A 
ATOM      3  C   UNL     1       0.107  -6.653   0.815  0.00  0.00    +0.126 A 
ATOM      4  N   UNL     1      -0.112  -6.742  -0.530  0.00  0.00    -0.272 N 
ATOM      5  H   UNL     1      -0.137  -7.569  -1.036  0.00  0.00    +0.189 HD
ATOM      6  N   UNL     1      -0.286  -5.568  -1.024  0.00  0.00    -0.173 NA
ATOM      7  C   UNL     1       0.367  -7.404   2.048  0.00  0.00    +0.265 C 
ATOM      8  O   UNL     1       0.467  -8.615   2.115  0.00  0.00    -0.268 OA
ATOM      9  N   UNL     1       0.481  -6.565   3.093  0.00  0.00    -0.285 N 
ATOM     10  C   UNL     1       0.299  -5.193   2.604  0.00  0.00    +0.141 C 
ENDROOT
BRANCH   1  15
ATOM     11  C   UNL     1      -0.726   1.044  -0.817  0.00  0.00    +0.045 C 
ATOM     12  C   UNL     1      -0.588  -0.444  -0.627  0.00  0.00    -0.029 A 
ATOM     13  C   UNL     1      -1.508  -1.300  -1.204  0.00  0.00    +0.050 A 
ATOM     14  C   UNL     1      -1.385  -2.669  -1.032  0.00  0.00    +0.126 A 
ATOM     15  C   UNL     1      -0.329  -3.182  -0.275  0.00  0.00    +0.045 A 
ATOM     16  C   UNL     1       0.594  -2.313   0.302  0.00  0.00    +0.034 A 
ATOM     17  C   UNL     1       0.463  -0.950   0.119  0.00  0.00    +0.045 A 
ATOM     18 CL   UNL     1       1.617   0.134   0.832  0.00  0.00    -0.083 Cl
BRANCH  14  19
ATOM     19  O   UNL     1      -2.290  -3.510  -1.597  0.00  0.00    -0.506 OA
ATOM     20  H   UNL     1      -2.054  -3.801  -2.489  0.00  0.00    +0.292 HD
ENDBRANCH  14  19
ENDBRANCH   1  15
BRANCH  10  21
ATOM     21  C   UNL     1      -0.891  -4.556   3.274  0.00  0.00    -0.019 A 
ATOM     22  C   UNL     1      -2.056  -5.280   3.445  0.00  0.00    +0.006 A 
ATOM     23  C   UNL     1      -3.150  -4.699   4.059  0.00  0.00    +0.004 A 
ATOM     24  C   UNL     1      -3.081  -3.393   4.504  0.00  0.00    +0.045 A 
ATOM     25  C   UNL     1      -1.913  -2.665   4.334  0.00  0.00    +0.121 A 
ATOM     26  C   UNL     1      -0.815  -3.252   3.722  0.00  0.00    +0.051 A 
BRANCH  25  27
ATOM     27  O   UNL     1      -1.843  -1.379   4.770  0.00  0.00    -0.492 OA
BRANCH  27  28
ATOM     28  C   UNL     1      -3.010  -0.842   5.396  0.00  0.00    +0.229 C 
BRANCH  28  29
ATOM     29  C   UNL     1      -2.742   0.604   5.817  0.00  0.00    +0.044 C 
BRANCH  29  30
ATOM     30  C   UNL     1      -3.992   1.180   6.487  0.00  0.00    -0.014 C 
ATOM     31  C   UNL     1      -3.685   2.581   7.019  0.00  0.00    +0.007 C 
ATOM     32  C   UNL     1      -5.127   1.260   5.465  0.00  0.00    +0.007 C 
ENDBRANCH  29  30
ENDBRANCH  28  29
ENDBRANCH  27  28
ENDBRANCH  25  27
ENDBRANCH  10  21
BRANCH   9  33
ATOM     33  C   UNL     1       0.741  -6.954   4.482  0.00  0.00    +0.111 C 
BRANCH  33  34
ATOM     34  C   UNL     1       2.250  -6.986   4.729  0.00  0.00    +0.047 C 
BRANCH  34  35
ATOM     35  C   UNL     1       2.522  -7.392   6.178  0.00  0.00    +0.157 C 
BRANCH  35  36
ATOM     36  O   UNL     1       3.932  -7.422   6.409  0.00  0.00    -0.395 OA
ATOM     37  H   UNL     1       4.178  -7.672   7.310  0.00  0.00    +0.209 HD
ENDBRANCH  35  36
ENDBRANCH  34  35
ENDBRANCH  33  34
ENDBRANCH   9  33
TORSDOF 11
