REMARK  Name = ZINC40845294
REMARK  14 active torsions:
REMARK  status: ('A' for Active; 'I' for Inactive)
REMARK    1  A    between atoms: C_1  and  C_2
REMARK    2  A    between atoms: C_5  and  C_25
REMARK    3  A    between atoms: C_6  and  O_8
REMARK    4  A    between atoms: O_8  and  C_9
REMARK    5  A    between atoms: C_9  and  C_10
REMARK    6  A    between atoms: N_12  and  N_13
REMARK    7  A    between atoms: C_14  and  C_15
REMARK    8  A    between atoms: C_17  and  O_23
REMARK    9  A    between atoms: C_20  and  O_21
REMARK   10  A    between atoms: O_21  and  C_22
REMARK   11  A    between atoms: O_23  and  C_24
REMARK   12  A    between atoms: C_25  and  C_26
REMARK   13  A    between atoms: C_25  and  C_27
REMARK   14  A    between atoms: C_25  and  C_28
REMARK                            x       y       z     vdW  Elec       q    Type
REMARK                         _______ _______ _______ _____ _____    ______ ____
ROOT
ATOM      1  C   UNL     1       0.063  -2.932   4.751  0.00  0.00    +0.270 C 
ATOM      2  O   UNL     1       0.078  -4.133   4.584  0.00  0.00    -0.270 OA
ATOM      3  N   UNL     1       0.062  -2.425   6.000  0.00  0.00    -0.204 N 
ATOM      4  H   UNL     1       0.050  -1.465   6.134  0.00  0.00    +0.177 HD
ENDROOT
BRANCH   3   5
ATOM      5  N   UNL     1       0.078  -3.286   7.105  0.00  0.00    -0.188 NA
ATOM      6  C   UNL     1       0.077  -2.798   8.308  0.00  0.00    +0.142 C 
BRANCH   6   7
ATOM      7  C   UNL     1       0.095  -3.704   9.470  0.00  0.00    +0.040 A 
ATOM      8  C   UNL     1       0.088  -3.183  10.766  0.00  0.00    +0.058 A 
ATOM      9  C   UNL     1       0.104  -4.039  11.853  0.00  0.00    +0.121 A 
ATOM     10  C   UNL     1       0.126  -5.414  11.657  0.00  0.00    +0.049 A 
ATOM     11  C   UNL     1       0.134  -5.937  10.378  0.00  0.00    +0.050 A 
ATOM     12  C   UNL     1       0.112  -5.092   9.281  0.00  0.00    +0.129 A 
BRANCH  12  13
ATOM     13  O   UNL     1       0.114  -5.608   8.024  0.00  0.00    -0.494 OA
ATOM     14  C   UNL     1       0.132  -7.032   7.907  0.00  0.00    +0.277 C 
ENDBRANCH  12  13
BRANCH   9  15
ATOM     15  O   UNL     1       0.097  -3.534  13.115  0.00  0.00    -0.495 OA
ATOM     16  C   UNL     1       0.115  -4.474  14.191  0.00  0.00    +0.277 C 
ENDBRANCH   9  15
ENDBRANCH   6   7
ENDBRANCH   3   5
BRANCH   1  17
ATOM     17  C   UNL     1       0.045  -2.006   3.562  0.00  0.00    +0.326 C 
BRANCH  17  18
ATOM     18  O   UNL     1       0.050  -2.776   2.358  0.00  0.00    -0.482 OA
BRANCH  18  24
ATOM     19  C   UNL     1      -0.018   1.503   0.010  0.00  0.00    +0.044 C 
ATOM     20  C   UNL     1       0.002  -0.004   0.002  0.00  0.00    -0.047 A 
ATOM     21  C   UNL     1       0.006  -0.688  -1.200  0.00  0.00    +0.004 A 
ATOM     22  C   UNL     1       0.024  -2.071  -1.211  0.00  0.00    +0.008 A 
ATOM     23  C   UNL     1       0.039  -2.772  -0.020  0.00  0.00    -0.000 A 
ATOM     24  C   UNL     1       0.035  -2.088   1.186  0.00  0.00    +0.125 A 
ATOM     25  C   UNL     1       0.023  -0.700   1.195  0.00  0.00    +0.049 A 
BRANCH  23  26
ATOM     26  C   UNL     1       0.059  -4.279  -0.033  0.00  0.00    -0.009 C 
ATOM     27  C   UNL     1       0.058  -4.777  -1.480  0.00  0.00    +0.015 C 
ATOM     28  C   UNL     1       1.318  -4.779   0.678  0.00  0.00    +0.015 C 
ATOM     29  C   UNL     1      -1.181  -4.811   0.690  0.00  0.00    +0.015 C 
ENDBRANCH  23  26
ENDBRANCH  18  24
ENDBRANCH  17  18
ENDBRANCH   1  17
TORSDOF 8
