REMARK  Name = ZINC37130546
REMARK  7 active torsions:
REMARK  status: ('A' for Active; 'I' for Inactive)
REMARK    1  A    between atoms: C_1  and  C_2
REMARK    2  A    between atoms: C_5  and  N_10
REMARK    3  A    between atoms: C_6  and  C_9
REMARK    4  A    between atoms: C_7  and  O_8
REMARK    5  A    between atoms: N_10  and  C_11
REMARK    6  A    between atoms: C_11  and  C_13
REMARK    7  A    between atoms: C_11  and  C_14
REMARK                            x       y       z     vdW  Elec       q    Type
REMARK                         _______ _______ _______ _____ _____    ______ ____
ROOT
ATOM      1  N   UNL     1      -0.209  -4.095  -0.102  0.00  0.00    -0.337 N 
ATOM      2  H   UNL     1      -0.271  -4.526   0.764  0.00  0.00    +0.147 HD
ENDROOT
BRANCH   1   7
ATOM      3  C   UNL     1      -0.896   1.521  -0.541  0.00  0.00    +0.047 C 
ATOM      4  C   UNL     1      -0.714   0.029  -0.423  0.00  0.00    -0.009 A 
ATOM      5  C   UNL     1      -0.457  -0.726  -1.552  0.00  0.00    +0.009 A 
ATOM      6  C   UNL     1      -0.289  -2.093  -1.448  0.00  0.00    +0.024 A 
ATOM      7  C   UNL     1      -0.378  -2.712  -0.207  0.00  0.00    +0.034 A 
ATOM      8  C   UNL     1      -0.636  -1.955   0.927  0.00  0.00    +0.012 A 
ATOM      9  C   UNL     1      -0.798  -0.583   0.819  0.00  0.00    +0.124 A 
ATOM     10  C   UNL     1      -0.733  -2.624   2.274  0.00  0.00    +0.049 C 
BRANCH   9  11
ATOM     11  O   UNL     1      -1.046   0.162   1.929  0.00  0.00    -0.506 OA
ATOM     12  H   UNL     1      -1.985   0.262   2.134  0.00  0.00    +0.292 HD
ENDBRANCH   9  11
ENDBRANCH   1   7
BRANCH   1  13
ATOM     13  C   UNL     1       0.063  -4.893  -1.300  0.00  0.00    +0.099 C 
ATOM     14  C   UNL     1       1.566  -4.889  -1.586  0.00  0.00    +0.033 C 
BRANCH  13  15
ATOM     15  C   UNL     1      -0.403  -6.308  -1.077  0.00  0.00    -0.014 A 
ATOM     16  C   UNL     1      -0.453  -6.826   0.204  0.00  0.00    +0.006 A 
ATOM     17  C   UNL     1      -0.880  -8.124   0.408  0.00  0.00    +0.000 A 
ATOM     18  C   UNL     1      -1.258  -8.906  -0.667  0.00  0.00    +0.001 A 
ATOM     19  C   UNL     1      -1.208  -8.390  -1.948  0.00  0.00    +0.015 A 
ATOM     20  C   UNL     1      -0.785  -7.088  -2.153  0.00  0.00    +0.023 A 
ATOM     21 BR   UNL     1      -0.724  -6.379  -3.905  0.00  0.00    -0.050 Br
ENDBRANCH  13  15
ENDBRANCH   1  13
TORSDOF 4
