REMARK  Name = ZINC63732006
REMARK  7 active torsions:
REMARK  status: ('A' for Active; 'I' for Inactive)
REMARK    1  A    between atoms: C_7  and  C_10
REMARK    2  A    between atoms: C_10  and  C_11
REMARK    3  A    between atoms: C_11  and  C_13
REMARK    4  A    between atoms: C_11  and  N_23
REMARK    5  A    between atoms: N_15  and  C_16
REMARK    6  A    between atoms: N_23  and  S_24
REMARK    7  A    between atoms: S_24  and  C_27
REMARK                            x       y       z     vdW  Elec       q    Type
REMARK                         _______ _______ _______ _____ _____    ______ ____
ROOT
ATOM      1  C   UNL     1       0.457  -3.653  -1.462  0.00  0.00    +0.166 C 
ENDROOT
BRANCH   1   2
ATOM      2  C   UNL     1      -0.385  -4.904  -1.452  0.00  0.00    +0.232 C 
ATOM      3  O   UNL     1      -1.459  -4.916  -2.016  0.00  0.00    -0.274 OA
ATOM      4  N   UNL     1       0.057  -6.008  -0.819  0.00  0.00    -0.311 N 
ATOM      5  H   UNL     1       0.915  -5.998  -0.368  0.00  0.00    +0.149 HD
BRANCH   4   6
ATOM      6  C   UNL     1      -0.761  -7.224  -0.810  0.00  0.00    +0.073 C 
ATOM      7  C   UNL     1      -1.823  -7.103   0.302  0.00  0.00    +0.022 C 
ATOM      8  C   UNL     1      -2.945  -8.058  -0.003  0.00  0.00    +0.002 C 
ATOM      9  C   UNL     1      -2.772  -9.415   0.706  0.00  0.00    +0.000 C 
ATOM     10  C   UNL     1      -1.320  -9.927   0.670  0.00  0.00    +0.000 C 
ATOM     11  C   UNL     1      -0.665  -9.709  -0.667  0.00  0.00    +0.002 C 
ATOM     12  C   UNL     1       0.108  -8.376  -0.623  0.00  0.00    +0.022 C 
ENDBRANCH   4   6
ENDBRANCH   1   2
BRANCH   1  13
ATOM     13  N   UNL     1      -0.238  -2.603  -2.210  0.00  0.00    -0.178 NA
ATOM     14  H   UNL     1      -1.205  -2.539  -2.172  0.00  0.00    +0.149 HD
BRANCH  13  15
ATOM     15  S   UNL     1       0.628  -1.524  -3.121  0.00  0.00    +0.059 S 
ATOM     16  O   UNL     1      -0.318  -0.661  -3.736  0.00  0.00    -0.153 OA
ATOM     17  O   UNL     1       1.674  -1.040  -2.291  0.00  0.00    -0.153 OA
BRANCH  15  18
ATOM     18  C   UNL     1       1.395  -2.437  -4.418  0.00  0.00    +0.106 A 
ATOM     19  C   UNL     1       2.653  -2.981  -4.229  0.00  0.00    +0.030 A 
ATOM     20  C   UNL     1       3.258  -3.697  -5.243  0.00  0.00    +0.025 A 
ATOM     21  C   UNL     1       2.601  -3.870  -6.454  0.00  0.00    +0.037 A 
ATOM     22  C   UNL     1       1.339  -3.322  -6.641  0.00  0.00    -0.024 A 
ATOM     23  C   UNL     1       0.737  -2.612  -5.622  0.00  0.00    +0.034 A 
ATOM     24  C   UNL     1       0.627  -3.511  -7.956  0.00  0.00    +0.046 C 
ATOM     25  C   UNL     1       1.650  -3.528  -9.093  0.00  0.00    +0.101 C 
ATOM     26  C   UNL     1       2.777  -4.465  -8.754  0.00  0.00    +0.218 C 
ATOM     27  O   UNL     1       3.305  -5.111  -9.634  0.00  0.00    -0.275 OA
ATOM     28  N   UNL     1       3.208  -4.594  -7.486  0.00  0.00    -0.285 N 
ATOM     29  H   UNL     1       3.944  -5.193  -7.285  0.00  0.00    +0.155 HD
ENDBRANCH  15  18
ENDBRANCH  13  15
ENDBRANCH   1  13
BRANCH   1  30
ATOM     30  C   UNL     1       0.691  -3.186  -0.024  0.00  0.00    +0.063 C 
BRANCH  30  37
ATOM     31  C   UNL     1      -0.016   1.348   0.009  0.00  0.00    +0.001 A 
ATOM     32  C   UNL     1       1.166   2.101   0.002  0.00  0.00    +0.002 A 
ATOM     33  C   UNL     1       2.391   1.535  -0.013  0.00  0.00    +0.026 A 
ATOM     34  C   UNL     1       2.529   0.120  -0.022  0.00  0.00    +0.043 A 
ATOM     35  N   UNL     1       3.587  -0.654  -0.037  0.00  0.00    -0.380 N 
ATOM     36  C   UNL     1       3.143  -2.053  -0.041  0.00  0.00    +0.144 C 
ATOM     37  C   UNL     1       1.631  -2.008  -0.025  0.00  0.00    -0.040 C 
ATOM     38  C   UNL     1       1.295  -0.698  -0.014  0.00  0.00    -0.001 A 
ATOM     39  C   UNL     1       0.002  -0.004   0.002  0.00  0.00    +0.010 A 
ATOM     40  H   UNL     1       4.509  -0.353  -0.045  0.00  0.00    +0.160 HD
ENDBRANCH  30  37
ENDBRANCH   1  30
TORSDOF 7
