REMARK  Name = ZINC46728398
REMARK  3 active torsions:
REMARK  status: ('A' for Active; 'I' for Inactive)
REMARK    1  A    between atoms: C_9  and  C_12
REMARK    2  A    between atoms: C_12  and  N_13
REMARK    3  A    between atoms: C_20  and  C_23
REMARK                            x       y       z     vdW  Elec       q    Type
REMARK                         _______ _______ _______ _____ _____    ______ ____
ROOT
ATOM      1  N   UNL     1       6.008  -1.982  -0.760  0.00  0.00    -0.296 N 
ATOM      2  C   UNL     1       7.280  -2.393  -0.587  0.00  0.00    +0.302 C 
ATOM      3  O   UNL     1       7.533  -3.257   0.231  0.00  0.00    -0.253 OA
ATOM      4  N   UNL     1       8.271  -1.847  -1.319  0.00  0.00    -0.285 N 
ATOM      5  C   UNL     1       7.999  -0.724  -2.227  0.00  0.00    +0.109 C 
ATOM      6  C   UNL     1       8.514  -1.084  -3.624  0.00  0.00    +0.020 C 
ATOM      7  C   UNL     1       9.990  -1.477  -3.534  0.00  0.00    +0.015 C 
ATOM      8  C   UNL     1      10.139  -2.705  -2.634  0.00  0.00    +0.110 C 
ATOM      9  C   UNL     1       9.644  -2.360  -1.221  0.00  0.00    +0.121 C 
ATOM     10  H   UNL     1       5.815  -1.243  -1.359  0.00  0.00    +0.150 HD
ENDROOT
BRANCH   8  11
ATOM     11  C   UNL     1      11.611  -3.118  -2.572  0.00  0.00    +0.394 C 
ATOM     12  F   UNL     1      12.369  -2.063  -2.051  0.00  0.00    -0.170 F 
ATOM     13  F   UNL     1      11.746  -4.240  -1.749  0.00  0.00    -0.170 F 
ATOM     14  F   UNL     1      12.064  -3.426  -3.859  0.00  0.00    -0.170 F 
ENDBRANCH   8  11
BRANCH   1  15
ATOM     15  C   UNL     1       4.918  -2.651  -0.046  0.00  0.00    +0.153 C 
BRANCH  15  24
ATOM     16  C   UNL     1      -0.019   1.373   0.007  0.00  0.00    +0.004 A 
ATOM     17  C   UNL     1       1.167   2.084   0.000  0.00  0.00    +0.004 A 
ATOM     18  C   UNL     1       2.376   1.415  -0.013  0.00  0.00    +0.049 A 
ATOM     19  C   UNL     1       2.402   0.028  -0.021  0.00  0.00    +0.163 A 
ATOM     20  C   UNL     1       1.210  -0.686  -0.018  0.00  0.00    +0.162 A 
ATOM     21  C   UNL     1       0.000  -0.009  -0.002  0.00  0.00    +0.049 A 
ATOM     22  O   UNL     1       1.214  -2.047  -0.033  0.00  0.00    -0.485 OA
ATOM     23  C   UNL     1       2.440  -2.692   0.327  0.00  0.00    +0.275 C 
ATOM     24  C   UNL     1       3.587  -1.996  -0.419  0.00  0.00    +0.228 C 
ATOM     25  O   UNL     1       3.601  -0.617  -0.031  0.00  0.00    -0.480 OA
ENDBRANCH  15  24
ENDBRANCH   1  15
TORSDOF 3
