REMARK  Name = ZINC39749562
REMARK  14 active torsions:
REMARK  status: ('A' for Active; 'I' for Inactive)
REMARK    1  A    between atoms: C_1  and  C_2
REMARK    2  A    between atoms: C_2  and  C_4
REMARK    3  A    between atoms: C_2  and  S_13
REMARK    4  A    between atoms: N_6  and  C_7
REMARK    5  A    between atoms: S_13  and  C_14
REMARK    6  A    between atoms: C_17  and  C_20
REMARK    7  A    between atoms: N_18  and  C_19
REMARK    8  A    between atoms: C_20  and  C_22
REMARK    9  A    between atoms: C_20  and  N_25
REMARK   10  A    between atoms: C_22  and  C_23
REMARK   11  A    between atoms: C_22  and  C_24
REMARK   12  A    between atoms: C_26  and  C_28
REMARK   13  A    between atoms: C_31  and  O_34
REMARK   14  A    between atoms: O_34  and  C_35
REMARK                            x       y       z     vdW  Elec       q    Type
REMARK                         _______ _______ _______ _____ _____    ______ ____
ROOT
ATOM      1  C   UNL     1      -0.189  -0.057  -2.809  0.00  0.00    +0.192 A 
ATOM      2  N   UNL     1      -1.312   0.614  -2.696  0.00  0.00    -0.122 NA
ATOM      3  N   UNL     1      -1.808   0.835  -3.860  0.00  0.00    -0.132 NA
ATOM      4  C   UNL     1      -1.040   0.322  -4.779  0.00  0.00    +0.155 A 
ATOM      5  N   UNL     1       0.022  -0.259  -4.143  0.00  0.00    -0.308 N 
ATOM      6  C   UNL     1       1.151  -0.957  -4.763  0.00  0.00    +0.152 C 
ENDROOT
BRANCH   1   7
ATOM      7  S   UNL     1       0.851  -0.589  -1.490  0.00  0.00    -0.074 S 
BRANCH   7   9
ATOM      8  C   UNL     1      -0.019   1.526   0.010  0.00  0.00    +0.029 C 
ATOM      9  C   UNL     1       0.002  -0.004   0.002  0.00  0.00    +0.137 C 
BRANCH   9  10
ATOM     10  C   UNL     1       0.731  -0.503   1.223  0.00  0.00    +0.226 C 
ATOM     11  O   UNL     1       1.911  -0.775   1.156  0.00  0.00    -0.275 OA
ATOM     12  N   UNL     1       0.071  -0.647   2.389  0.00  0.00    -0.312 N 
ATOM     13  H   UNL     1      -0.872  -0.430   2.443  0.00  0.00    +0.149 HD
BRANCH  12  14
ATOM     14  C   UNL     1       0.780  -1.133   3.576  0.00  0.00    +0.073 C 
ATOM     15  C   UNL     1       0.801  -2.663   3.568  0.00  0.00    +0.022 C 
ATOM     16  C   UNL     1       1.541  -3.169   4.808  0.00  0.00    +0.002 C 
ATOM     17  C   UNL     1       0.825  -2.676   6.066  0.00  0.00    +0.000 C 
ATOM     18  C   UNL     1       0.804  -1.146   6.075  0.00  0.00    +0.002 C 
ATOM     19  C   UNL     1       0.064  -0.639   4.835  0.00  0.00    +0.022 C 
ENDBRANCH  12  14
ENDBRANCH   9  10
ENDBRANCH   7   9
ENDBRANCH   1   7
BRANCH   4  20
ATOM     20  C   UNL     1      -1.274   0.367  -6.267  0.00  0.00    +0.144 C 
BRANCH  20  21
ATOM     21  N   UNL     1      -1.680   1.720  -6.657  0.00  0.00    -0.301 N 
ATOM     22  C   UNL     1      -1.465   2.151  -7.915  0.00  0.00    +0.245 C 
ATOM     23  O   UNL     1      -0.933   1.418  -8.727  0.00  0.00    -0.270 OA
ATOM     24  H   UNL     1      -2.104   2.304  -6.009  0.00  0.00    +0.150 HD
BRANCH  22  25
ATOM     25  C   UNL     1      -1.874   3.514  -8.308  0.00  0.00    +0.037 A 
ATOM     26  C   UNL     1      -2.479   4.360  -7.375  0.00  0.00    +0.016 A 
ATOM     27  C   UNL     1      -2.859   5.631  -7.745  0.00  0.00    +0.046 A 
ATOM     28  C   UNL     1      -2.642   6.072  -9.045  0.00  0.00    +0.120 A 
ATOM     29  C   UNL     1      -2.040   5.234  -9.976  0.00  0.00    +0.046 A 
ATOM     30  C   UNL     1      -1.652   3.964  -9.612  0.00  0.00    +0.016 A 
BRANCH  28  31
ATOM     31  O   UNL     1      -3.018   7.325  -9.406  0.00  0.00    -0.495 OA
ATOM     32  C   UNL     1      -2.765   7.714 -10.758  0.00  0.00    +0.277 C 
ENDBRANCH  28  31
ENDBRANCH  22  25
ENDBRANCH  20  21
BRANCH  20  33
ATOM     33  C   UNL     1      -2.378  -0.624  -6.639  0.00  0.00    +0.011 C 
ATOM     34  C   UNL     1      -2.616  -0.579  -8.150  0.00  0.00    +0.009 C 
ATOM     35  C   UNL     1      -1.954  -2.037  -6.232  0.00  0.00    +0.009 C 
ENDBRANCH  20  33
ENDBRANCH   4  20
TORSDOF 9
