REMARK  Name = ZINC64002589
REMARK  12 active torsions:
REMARK  status: ('A' for Active; 'I' for Inactive)
REMARK    1  A    between atoms: C_4  and  C_7
REMARK    2  A    between atoms: C_9  and  C_17
REMARK    3  A    between atoms: C_17  and  C_19
REMARK    4  A    between atoms: C_19  and  O_20
REMARK    5  A    between atoms: O_20  and  C_21
REMARK    6  A    between atoms: C_21  and  C_23
REMARK    7  A    between atoms: C_23  and  C_24
REMARK    8  A    between atoms: C_24  and  N_25
REMARK    9  A    between atoms: C_26  and  C_28
REMARK   10  A    between atoms: C_28  and  C_29
REMARK   11  A    between atoms: C_29  and  C_30
REMARK   12  A    between atoms: C_30  and  C_32
REMARK                            x       y       z     vdW  Elec       q    Type
REMARK                         _______ _______ _______ _____ _____    ______ ____
ROOT
ATOM      1  C   UNL     1       4.579  -1.093   3.820  0.00  0.00    +0.311 C 
ENDROOT
BRANCH   1   2
ATOM      2  C   UNL     1       4.247  -0.425   2.511  0.00  0.00    +0.199 C 
ATOM      3  O   UNL     1       4.150   0.784   2.454  0.00  0.00    -0.289 OA
BRANCH   2   5
ATOM      4  C   UNL     1       3.711  -0.707  -0.038  0.00  0.00    +0.144 C 
ATOM      5  C   UNL     1       4.049  -1.204   1.351  0.00  0.00    +0.034 C 
ATOM      6  C   UNL     1       4.122  -2.581   1.246  0.00  0.00    +0.007 A 
ATOM      7  C   UNL     1       4.398  -3.604   2.183  0.00  0.00    +0.010 A 
ATOM      8  C   UNL     1       4.405  -4.899   1.795  0.00  0.00    +0.001 A 
ATOM      9  C   UNL     1       4.143  -5.291   0.472  0.00  0.00    +0.002 A 
ATOM     10  C   UNL     1       3.868  -4.394  -0.498  0.00  0.00    +0.026 A 
ATOM     11  C   UNL     1       3.841  -2.961  -0.161  0.00  0.00    +0.044 A 
ATOM     12  N   UNL     1       3.611  -1.900  -0.884  0.00  0.00    -0.373 N 
ATOM     13  H   UNL     1       3.405  -1.900  -1.831  0.00  0.00    +0.161 HD
BRANCH   4  17
ATOM     14  C   UNL     1      -0.017   1.378   0.010  0.00  0.00    +0.000 A 
ATOM     15  C   UNL     1       1.171   2.086   0.002  0.00  0.00    +0.000 A 
ATOM     16  C   UNL     1       2.377   1.411  -0.013  0.00  0.00    +0.006 A 
ATOM     17  C   UNL     1       2.396   0.029  -0.020  0.00  0.00    -0.021 A 
ATOM     18  C   UNL     1       1.208  -0.679  -0.012  0.00  0.00    +0.006 A 
ATOM     19  C   UNL     1       0.002  -0.004   0.002  0.00  0.00    +0.000 A 
ENDBRANCH   4  17
ENDBRANCH   2   5
ENDBRANCH   1   2
BRANCH   1  20
ATOM     20  O   UNL     1       4.731  -0.101   4.837  0.00  0.00    -0.457 OA
BRANCH  20  21
ATOM     21  C   UNL     1       5.030  -0.534   6.072  0.00  0.00    +0.309 C 
ATOM     22  O   UNL     1       5.159  -1.717   6.282  0.00  0.00    -0.251 OA
BRANCH  21  23
ATOM     23  C   UNL     1       5.206   0.454   7.195  0.00  0.00    +0.139 C 
BRANCH  23  24
ATOM     24  C   UNL     1       5.540  -0.295   8.487  0.00  0.00    +0.115 C 
BRANCH  24  25
ATOM     25  N   UNL     1       5.711   0.666   9.579  0.00  0.00    -0.315 N 
ATOM     26  C   UNL     1       6.011   0.230  10.819  0.00  0.00    +0.213 C 
ATOM     27  O   UNL     1       6.141  -0.957  11.030  0.00  0.00    -0.276 OA
ATOM     28  H   UNL     1       5.607   1.615   9.410  0.00  0.00    +0.149 HD
BRANCH  26  29
ATOM     29  C   UNL     1       6.187   1.219  11.942  0.00  0.00    +0.103 C 
BRANCH  29  30
ATOM     30  C   UNL     1       6.521   0.469  13.234  0.00  0.00    +0.084 C 
BRANCH  30  31
ATOM     31  C   UNL     1       6.697   1.458  14.357  0.00  0.00    +0.147 C 
ATOM     32  O   UNL     1       6.568   2.640  14.147  0.00  0.00    -0.296 OA
BRANCH  31  33
ATOM     33  C   UNL     1       7.033   0.972  15.743  0.00  0.00    +0.120 C 
ATOM     34  C   UNL     1       5.753   0.678  16.570  0.00  0.00    +0.049 C 
ATOM     35  C   UNL     1       5.930   1.105  17.991  0.00  0.00    -0.019 C 
ATOM     36  C   UNL     1       6.889   1.953  18.307  0.00  0.00    +0.037 C 
ATOM     37  S   UNL     1       7.739   2.321  16.780  0.00  0.00    -0.122 S 
ENDBRANCH  31  33
ENDBRANCH  30  31
ENDBRANCH  29  30
ENDBRANCH  26  29
ENDBRANCH  24  25
ENDBRANCH  23  24
ENDBRANCH  21  23
ENDBRANCH  20  21
ENDBRANCH   1  20
TORSDOF 12
