REMARK  Name = ZINC39596489
REMARK  12 active torsions:
REMARK  status: ('A' for Active; 'I' for Inactive)
REMARK    1  A    between atoms: C_1  and  C_2
REMARK    2  A    between atoms: C_2  and  C_4
REMARK    3  A    between atoms: C_2  and  O_33
REMARK    4  A    between atoms: C_4  and  N_5
REMARK    5  A    between atoms: C_6  and  C_8
REMARK    6  A    between atoms: C_19  and  C_21
REMARK    7  A    between atoms: C_21  and  C_23
REMARK    8  A    between atoms: C_21  and  O_26
REMARK    9  A    between atoms: C_23  and  C_24
REMARK   10  A    between atoms: C_23  and  C_25
REMARK   11  A    between atoms: O_26  and  C_27
REMARK   12  A    between atoms: O_33  and  C_34
REMARK                            x       y       z     vdW  Elec       q    Type
REMARK                         _______ _______ _______ _____ _____    ______ ____
ROOT
ATOM      1  C   UNL     1       2.563  -4.906   1.582  0.00  0.00    +0.100 C 
ATOM      2  C   UNL     1       3.667  -4.679   0.524  0.00  0.00    +0.121 C 
ATOM      3  N   UNL     1       4.833  -4.194   1.299  0.00  0.00    -0.297 N 
ATOM      4  C   UNL     1       4.814  -5.004   2.540  0.00  0.00    +0.115 C 
ATOM      5  C   UNL     1       3.321  -5.123   2.903  0.00  0.00    -0.004 C 
ATOM      6  C   UNL     1       3.022  -6.510   3.462  0.00  0.00    -0.010 C 
ATOM      7  C   UNL     1       3.739  -6.680   4.804  0.00  0.00    -0.082 C 
ATOM      8  N   UNL     1       3.284  -5.645   5.740  0.00  0.00    +0.379 N 
ATOM      9  C   UNL     1       3.658  -4.317   5.238  0.00  0.00    -0.082 C 
ATOM     10  C   UNL     1       2.937  -4.047   3.915  0.00  0.00    -0.010 C 
ATOM     11  C   UNL     1       5.713  -3.233   0.952  0.00  0.00    +0.257 C 
ATOM     12  O   UNL     1       6.667  -3.000   1.664  0.00  0.00    -0.272 OA
ATOM     13  H   UNL     1       2.280  -5.697   5.834  0.00  0.00    -0.086 HD
ATOM     14  H   UNL     1       3.712  -5.796   6.641  0.00  0.00    -0.086 HD
ENDROOT
BRANCH   1  16
ATOM     15  N   UNL     1       0.334  -3.837   1.647  0.00  0.00    -0.312 N 
ATOM     16  C   UNL     1       1.673  -3.694   1.681  0.00  0.00    +0.218 C 
ATOM     17  O   UNL     1       2.163  -2.590   1.790  0.00  0.00    -0.275 OA
ATOM     18  H   UNL     1      -0.058  -4.720   1.560  0.00  0.00    +0.149 HD
BRANCH  15  19
ATOM     19  C   UNL     1      -0.532  -2.659   1.743  0.00  0.00    +0.148 C 
BRANCH  19  21
ATOM     20  C   UNL     1      -2.900  -1.865   1.781  0.00  0.00    +0.053 C 
ATOM     21  C   UNL     1      -1.997  -3.095   1.681  0.00  0.00    +0.187 C 
BRANCH  21  22
ATOM     22  O   UNL     1      -2.241  -3.767   0.443  0.00  0.00    -0.488 OA
BRANCH  22  23
ATOM     23  C   UNL     1      -3.259  -4.668   0.421  0.00  0.00    +0.121 A 
ATOM     24  C   UNL     1      -3.475  -5.444  -0.709  0.00  0.00    +0.048 A 
ATOM     25  C   UNL     1      -4.509  -6.359  -0.730  0.00  0.00    +0.042 A 
ATOM     26  C   UNL     1      -5.330  -6.503   0.376  0.00  0.00    +0.124 A 
ATOM     27  C   UNL     1      -5.116  -5.730   1.504  0.00  0.00    +0.042 A 
ATOM     28  C   UNL     1      -4.078  -4.818   1.530  0.00  0.00    +0.048 A 
ATOM     29  F   UNL     1      -6.341  -7.399   0.353  0.00  0.00    -0.205 F 
ENDBRANCH  22  23
ENDBRANCH  21  22
ENDBRANCH  19  21
ENDBRANCH  15  19
ENDBRANCH   1  16
BRANCH  11  30
ATOM     30  C   UNL     1       5.511  -2.450  -0.319  0.00  0.00    +0.261 C 
BRANCH  30  31
ATOM     31  C   UNL     1       5.248  -0.982   0.024  0.00  0.00    +0.033 C 
ATOM     32  C   UNL     1       5.163  -0.164  -1.267  0.00  0.00    +0.011 C 
ATOM     33  C   UNL     1       3.928  -0.865   0.789  0.00  0.00    +0.011 C 
ENDBRANCH  30  31
BRANCH  30  34
ATOM     34  O   UNL     1       6.684  -2.547  -1.130  0.00  0.00    -0.479 OA
BRANCH  34  35
ATOM     35  C   UNL     1       6.500  -2.617  -2.474  0.00  0.00    +0.122 A 
ATOM     36  C   UNL     1       7.595  -2.673  -3.324  0.00  0.00    +0.045 A 
ATOM     37  C   UNL     1       7.406  -2.745  -4.690  0.00  0.00    +0.004 A 
ATOM     38  C   UNL     1       6.125  -2.761  -5.212  0.00  0.00    +0.000 A 
ATOM     39  C   UNL     1       5.032  -2.705  -4.367  0.00  0.00    +0.004 A 
ATOM     40  C   UNL     1       5.216  -2.639  -3.000  0.00  0.00    +0.045 A 
ENDBRANCH  34  35
ENDBRANCH  30  34
ENDBRANCH  11  30
TORSDOF 9
