REMARK  Name = ZINC39746937
REMARK  4 active torsions:
REMARK  status: ('A' for Active; 'I' for Inactive)
REMARK    1  A    between atoms: C_1  and  C_2
REMARK    2  A    between atoms: C_2  and  C_4
REMARK    3  A    between atoms: C_2  and  S_17
REMARK    4  A    between atoms: S_17  and  C_18
REMARK                            x       y       z     vdW  Elec       q    Type
REMARK                         _______ _______ _______ _____ _____    ______ ____
ROOT
ATOM      1  C   UNL     1      -1.427  -0.520   0.004  0.00  0.00    +0.230 C 
ATOM      2  O   UNL     1      -1.991  -0.783  -1.037  0.00  0.00    -0.274 OA
ATOM      3  N   UNL     1      -2.103  -0.575   1.169  0.00  0.00    -0.285 N 
ATOM      4  C   UNL     1      -2.720  -1.686   1.521  0.00  0.00    +0.036 C 
ATOM      5  C   UNL     1      -2.558  -2.903   0.716  0.00  0.00    +0.025 C 
ATOM      6  C   UNL     1      -3.185  -4.042   1.070  0.00  0.00    +0.032 C 
ATOM      7  C   UNL     1      -4.033  -4.073   2.265  0.00  0.00    +0.095 C 
ATOM      8  N   UNL     1      -4.757  -5.005   2.856  0.00  0.00    -0.190 NA
ATOM      9  C   UNL     1      -5.348  -4.484   3.944  0.00  0.00    +0.369 C 
ATOM     10  O   UNL     1      -6.161  -5.178   4.776  0.00  0.00    -0.243 OA
ATOM     11  N   UNL     1      -5.037  -3.218   4.101  0.00  0.00    -0.190 NA
ATOM     12  C   UNL     1      -4.203  -2.856   3.083  0.00  0.00    +0.097 C 
ATOM     13  C   UNL     1      -3.569  -1.709   2.732  0.00  0.00    +0.053 C 
ATOM     14  H   UNL     1      -2.136   0.203   1.747  0.00  0.00    +0.155 HD
ENDROOT
BRANCH   1  16
ATOM     15  C   UNL     1       0.151   1.391   0.094  0.00  0.00    +0.029 C 
ATOM     16  C   UNL     1       0.029  -0.131  -0.005  0.00  0.00    +0.137 C 
BRANCH  16  17
ATOM     17  S   UNL     1       0.797  -0.701  -1.546  0.00  0.00    -0.073 S 
BRANCH  17  18
ATOM     18  C   UNL     1       2.503  -0.309  -1.342  0.00  0.00    +0.197 A 
ATOM     19  N   UNL     1       3.051   0.260  -0.292  0.00  0.00    -0.122 NA
ATOM     20  N   UNL     1       4.317   0.401  -0.470  0.00  0.00    -0.129 NA
ATOM     21  C   UNL     1       4.655  -0.073  -1.655  0.00  0.00    +0.162 A 
ATOM     22  N   UNL     1       3.500  -0.546  -2.241  0.00  0.00    -0.278 N 
ATOM     23  C   UNL     1       3.537  -1.108  -3.487  0.00  0.00    +0.095 A 
ATOM     24  C   UNL     1       4.702  -1.210  -4.157  0.00  0.00    +0.018 A 
ATOM     25  C   UNL     1       5.898  -0.740  -3.583  0.00  0.00    +0.005 A 
ATOM     26  C   UNL     1       5.878  -0.171  -2.348  0.00  0.00    +0.049 A 
ENDBRANCH  17  18
ENDBRANCH  16  17
ENDBRANCH   1  16
TORSDOF 3
