REMARK  Name = ZINC44649552
REMARK  8 active torsions:
REMARK  status: ('A' for Active; 'I' for Inactive)
REMARK    1  A    between atoms: C_1  and  C_2
REMARK    2  A    between atoms: C_2  and  C_4
REMARK    3  A    between atoms: C_2  and  S_15
REMARK    4  A    between atoms: C_4  and  C_6
REMARK    5  A    between atoms: S_15  and  C_16
REMARK    6  A    between atoms: C_20  and  C_29
REMARK    7  A    between atoms: N_21  and  C_22
REMARK    8  A    between atoms: C_29  and  N_30
REMARK                            x       y       z     vdW  Elec       q    Type
REMARK                         _______ _______ _______ _____ _____    ______ ____
ROOT
ATOM      1  C   UNL     1      -0.177   0.035  -2.836  0.00  0.00    +0.241 C 
ATOM      2  N   UNL     1      -1.501  -0.586  -2.658  0.00  0.00    -0.238 N 
ATOM      3  N   UNL     1      -2.415   0.470  -2.555  0.00  0.00    -0.176 NA
ATOM      4  C   UNL     1      -1.832   1.609  -2.644  0.00  0.00    +0.105 C 
ATOM      5  N   UNL     1      -0.459   1.481  -2.821  0.00  0.00    -0.260 N 
ATOM      6  H   UNL     1      -1.700  -1.535  -2.620  0.00  0.00    +0.171 HD
ENDROOT
BRANCH   5   7
ATOM      7  C   UNL     1       0.471   2.516  -2.956  0.00  0.00    +0.038 A 
ATOM      8  C   UNL     1       1.794   2.226  -3.261  0.00  0.00    +0.026 A 
ATOM      9  C   UNL     1       2.711   3.251  -3.394  0.00  0.00    +0.040 A 
ATOM     10  C   UNL     1       2.312   4.565  -3.223  0.00  0.00    +0.124 A 
ATOM     11  C   UNL     1       0.993   4.856  -2.919  0.00  0.00    +0.040 A 
ATOM     12  C   UNL     1       0.071   3.836  -2.791  0.00  0.00    +0.026 A 
ATOM     13  F   UNL     1       3.211   5.566  -3.354  0.00  0.00    -0.205 F 
ENDBRANCH   5   7
BRANCH   1  14
ATOM     14  S   UNL     1       0.926  -0.413  -1.468  0.00  0.00    -0.107 S 
BRANCH  14  16
ATOM     15  C   UNL     1      -0.101   1.654  -0.001  0.00  0.00    +0.027 C 
ATOM     16  C   UNL     1       0.032   0.130   0.013  0.00  0.00    +0.117 C 
BRANCH  16  17
ATOM     17  C   UNL     1       0.791  -0.297   1.243  0.00  0.00    +0.174 C 
ATOM     18  O   UNL     1       1.989  -0.483   1.183  0.00  0.00    -0.291 OA
BRANCH  17  19
ATOM     19  C   UNL     1       0.109  -0.479   2.465  0.00  0.00    +0.024 C 
ATOM     20  C   UNL     1       0.653  -0.860   3.678  0.00  0.00    +0.006 A 
ATOM     21  C   UNL     1       1.972  -1.174   4.085  0.00  0.00    +0.010 A 
ATOM     22  C   UNL     1       2.224  -1.524   5.366  0.00  0.00    +0.001 A 
ATOM     23  C   UNL     1       1.216  -1.594   6.341  0.00  0.00    +0.002 A 
ATOM     24  C   UNL     1      -0.074  -1.315   6.057  0.00  0.00    +0.026 A 
ATOM     25  C   UNL     1      -0.436  -0.924   4.684  0.00  0.00    +0.043 A 
ATOM     26  N   UNL     1      -1.577  -0.607   4.142  0.00  0.00    -0.380 N 
ATOM     27  C   UNL     1      -1.370  -0.294   2.724  0.00  0.00    +0.152 C 
ATOM     28  H   UNL     1      -2.429  -0.579   4.604  0.00  0.00    +0.160 HD
ENDBRANCH  17  19
ENDBRANCH  16  17
ENDBRANCH  14  16
ENDBRANCH   1  14
BRANCH   4  29
ATOM     29  C   UNL     1      -2.551   2.932  -2.569  0.00  0.00    -0.004 C 
BRANCH  29  30
ATOM     30  N   UNL     1      -4.000   2.700  -2.526  0.00  0.00    +0.384 N 
ATOM     31  C   UNL     1      -4.434   2.084  -3.786  0.00  0.00    -0.078 C 
ATOM     32  C   UNL     1      -5.929   1.765  -3.715  0.00  0.00    -0.019 C 
ATOM     33  C   UNL     1      -6.711   3.062  -3.483  0.00  0.00    -0.004 C 
ATOM     34  C   UNL     1      -6.199   3.733  -2.205  0.00  0.00    -0.019 C 
ATOM     35  C   UNL     1      -4.694   3.979  -2.333  0.00  0.00    -0.078 C 
ATOM     36  H   UNL     1      -4.218   2.081  -1.759  0.00  0.00    -0.081 HD
ENDBRANCH  29  30
ENDBRANCH   4  29
TORSDOF 7
