REMARK  Name = ZINC12563430
REMARK  1 active torsions:
REMARK  status: ('A' for Active; 'I' for Inactive)
REMARK    1  A    between atoms: C_16  and  C_19
REMARK                            x       y       z     vdW  Elec       q    Type
REMARK                         _______ _______ _______ _____ _____    ______ ____
ROOT
ATOM      1  C   UNL     1       0.232   1.631  -0.049  0.00  0.00    +0.001 A 
ATOM      2  C   UNL     1       1.466   2.260  -0.056  0.00  0.00    +0.002 A 
ATOM      3  C   UNL     1       2.635   1.522  -0.069  0.00  0.00    +0.024 A 
ATOM      4  C   UNL     1       2.576   0.138  -0.068  0.00  0.00    +0.040 A 
ATOM      5  C   UNL     1       1.320  -0.497  -0.041  0.00  0.00    +0.038 A 
ATOM      6  C   UNL     1       0.153   0.251  -0.043  0.00  0.00    +0.013 A 
ATOM      7  C   UNL     1       1.322  -1.973   0.022  0.00  0.00    +0.145 A 
ATOM      8  N   UNL     1       0.337  -2.817  -0.111  0.00  0.00    -0.227 NA
ATOM      9  C   UNL     1       0.809  -4.073  -0.011  0.00  0.00    +0.090 A 
ATOM     10  C   UNL     1       0.171  -5.317  -0.089  0.00  0.00    +0.030 A 
ATOM     11  C   UNL     1       0.958  -6.433   0.052  0.00  0.00    +0.002 A 
ATOM     12  C   UNL     1       2.324  -6.350   0.263  0.00  0.00    +0.002 A 
ATOM     13  C   UNL     1       2.982  -5.135   0.348  0.00  0.00    +0.028 A 
ATOM     14  C   UNL     1       2.209  -3.986   0.212  0.00  0.00    +0.071 A 
ATOM     15  N   UNL     1       2.505  -2.660   0.249  0.00  0.00    -0.300 N 
ATOM     16  C   UNL     1       3.775  -1.972   0.498  0.00  0.00    +0.207 C 
ATOM     17  N   UNL     1       3.732  -0.637  -0.114  0.00  0.00    -0.320 N 
ATOM     18  H   UNL     1       4.521  -0.290  -0.557  0.00  0.00    +0.148 HD
ENDROOT
BRANCH  16  19
ATOM     19  C   UNL     1       3.991  -1.838   1.983  0.00  0.00    +0.013 A 
ATOM     20  C   UNL     1       2.936  -2.026   2.856  0.00  0.00    +0.009 A 
ATOM     21  C   UNL     1       3.134  -1.904   4.218  0.00  0.00    +0.002 A 
ATOM     22  C   UNL     1       4.388  -1.593   4.710  0.00  0.00    +0.021 A 
ATOM     23  C   UNL     1       5.445  -1.405   3.839  0.00  0.00    +0.060 A 
ATOM     24  C   UNL     1       5.248  -1.534   2.474  0.00  0.00    +0.066 A 
ATOM     25 CL   UNL     1       6.576  -1.306   1.379  0.00  0.00    -0.082 Cl
ATOM     26 CL   UNL     1       7.020  -1.016   4.456  0.00  0.00    -0.082 Cl
ENDBRANCH  16  19
TORSDOF 1
