REMARK  Name = ZINC36490205
REMARK  15 active torsions:
REMARK  status: ('A' for Active; 'I' for Inactive)
REMARK    1  A    between atoms: C_1  and  C_2
REMARK    2  A    between atoms: C_2  and  C_3
REMARK    3  A    between atoms: C_3  and  C_4
REMARK    4  A    between atoms: C_4  and  C_5
REMARK    5  A    between atoms: C_5  and  C_6
REMARK    6  A    between atoms: N_8  and  C_9
REMARK    7  A    between atoms: N_8  and  C_15
REMARK    8  A    between atoms: C_15  and  C_17
REMARK    9  A    between atoms: C_15  and  C_26
REMARK   10  A    between atoms: C_17  and  C_19
REMARK   11  A    between atoms: C_17  and  C_20
REMARK   12  A    between atoms: N_28  and  C_29
REMARK   13  A    between atoms: C_29  and  S_30
REMARK   14  A    between atoms: S_30  and  C_33
REMARK   15  A    between atoms: C_36  and  C_39
REMARK                            x       y       z     vdW  Elec       q    Type
REMARK                         _______ _______ _______ _____ _____    ______ ____
ROOT
ATOM      1  C   UNL     1       2.013  -6.138  -3.611  0.00  0.00    +0.169 C 
ENDROOT
BRANCH   1   2
ATOM      2  C   UNL     1       3.382  -6.766  -3.648  0.00  0.00    +0.235 C 
ATOM      3  O   UNL     1       4.372  -6.068  -3.588  0.00  0.00    -0.274 OA
ATOM      4  N   UNL     1       3.507  -8.105  -3.748  0.00  0.00    -0.295 N 
ATOM      5  H   UNL     1       2.716  -8.663  -3.796  0.00  0.00    +0.150 HD
BRANCH   4   6
ATOM      6  C   UNL     1       4.838  -8.715  -3.784  0.00  0.00    +0.278 C 
BRANCH   6   7
ATOM      7  S   UNL     1       5.313  -9.230  -2.111  0.00  0.00    +0.013 S 
ATOM      8  O   UNL     1       6.575  -9.882  -2.139  0.00  0.00    -0.168 OA
ATOM      9  O   UNL     1       5.059  -8.182  -1.186  0.00  0.00    -0.168 OA
BRANCH   7  10
ATOM     10  C   UNL     1       4.163 -10.495  -1.683  0.00  0.00    +0.090 A 
ATOM     11  C   UNL     1       2.975 -10.167  -1.058  0.00  0.00    +0.027 A 
ATOM     12  C   UNL     1       2.073 -11.160  -0.723  0.00  0.00    +0.005 A 
ATOM     13  C   UNL     1       2.359 -12.480  -1.013  0.00  0.00    -0.050 A 
ATOM     14  C   UNL     1       3.547 -12.809  -1.638  0.00  0.00    +0.005 A 
ATOM     15  C   UNL     1       4.447 -11.816  -1.978  0.00  0.00    +0.027 A 
ATOM     16  C   UNL     1       1.377 -13.563  -0.646  0.00  0.00    +0.044 C 
ENDBRANCH   7  10
ENDBRANCH   6   7
ENDBRANCH   4   6
ENDBRANCH   1   2
BRANCH   1  19
ATOM     17  C   UNL     1       1.619  -4.037  -2.442  0.00  0.00    +0.216 C 
ATOM     18  O   UNL     1       1.646  -2.825  -2.396  0.00  0.00    -0.276 OA
ATOM     19  N   UNL     1       2.146  -4.683  -3.500  0.00  0.00    -0.286 N 
BRANCH  19  20
ATOM     20  C   UNL     1       2.852  -3.931  -4.540  0.00  0.00    +0.077 C 
ATOM     21  C   UNL     1       3.996  -3.136  -3.907  0.00  0.00    +0.022 C 
ATOM     22  C   UNL     1       4.733  -2.350  -4.993  0.00  0.00    +0.002 C 
ATOM     23  C   UNL     1       3.760  -1.388  -5.677  0.00  0.00    +0.000 C 
ATOM     24  C   UNL     1       2.617  -2.183  -6.310  0.00  0.00    +0.002 C 
ATOM     25  C   UNL     1       1.879  -2.969  -5.224  0.00  0.00    +0.022 C 
ENDBRANCH  19  20
BRANCH  17  26
ATOM     26  C   UNL     1       0.995  -4.819  -1.315  0.00  0.00    +0.096 C 
BRANCH  26  27
ATOM     27  C   UNL     1       0.596  -3.863  -0.190  0.00  0.00    +0.009 C 
BRANCH  27  28
ATOM     28  C   UNL     1      -0.037  -4.658   0.954  0.00  0.00    +0.000 C 
BRANCH  28  30
ATOM     29  C   UNL     1      -1.070  -4.496   3.224  0.00  0.00    +0.004 C 
ATOM     30  C   UNL     1      -0.437  -3.701   2.080  0.00  0.00    -0.003 C 
ENDBRANCH  28  30
ENDBRANCH  27  28
ENDBRANCH  26  27
ENDBRANCH  17  26
ENDBRANCH   1  19
BRANCH   1  31
ATOM     31  C   UNL     1       1.258  -6.485  -4.895  0.00  0.00    +0.045 C 
ATOM     32  C   UNL     1      -0.133  -5.847  -4.857  0.00  0.00    +0.015 C 
BRANCH  31  33
ATOM     33  C   UNL     1       1.121  -7.981  -5.009  0.00  0.00    -0.042 A 
ATOM     34  C   UNL     1       0.449  -8.690  -4.030  0.00  0.00    +0.004 A 
ATOM     35  C   UNL     1       0.324 -10.063  -4.135  0.00  0.00    +0.000 A 
ATOM     36  C   UNL     1       0.869 -10.727  -5.218  0.00  0.00    +0.000 A 
ATOM     37  C   UNL     1       1.540 -10.018  -6.197  0.00  0.00    +0.000 A 
ATOM     38  C   UNL     1       1.661  -8.644  -6.095  0.00  0.00    +0.004 A 
ENDBRANCH  31  33
ENDBRANCH   1  31
TORSDOF 12
