REMARK  Name = ZINC12099737
REMARK  10 active torsions:
REMARK  status: ('A' for Active; 'I' for Inactive)
REMARK    1  A    between atoms: C_1  and  C_2
REMARK    2  A    between atoms: C_2  and  C_3
REMARK    3  A    between atoms: C_2  and  C_4
REMARK    4  A    between atoms: C_4  and  C_6
REMARK    5  A    between atoms: C_4  and  N_25
REMARK    6  A    between atoms: C_15  and  C_16
REMARK    7  A    between atoms: C_15  and  N_57
REMARK    8  A    between atoms: C_17  and  C_18
REMARK    9  A    between atoms: N_25  and  S_26
REMARK   10  A    between atoms: S_26  and  C_29
REMARK                            x       y       z     vdW  Elec       q    Type
REMARK                         _______ _______ _______ _____ _____    ______ ____
ROOT
ATOM      1  C   UNL     1       1.377   1.621  -1.567  0.00  0.00    +0.152 A 
ATOM      2  N   UNL     1       0.358   2.435  -1.654  0.00  0.00    -0.133 NA
ATOM      3  N   UNL     1      -0.711   1.836  -1.258  0.00  0.00    -0.134 NA
ATOM      4  C   UNL     1      -0.423   0.617  -0.908  0.00  0.00    +0.132 A 
ATOM      5  N   UNL     1       0.911   0.451  -1.081  0.00  0.00    -0.315 N 
ATOM      6  C   UNL     1       1.674  -0.759  -0.776  0.00  0.00    +0.106 C 
ATOM      7  C   UNL     1       0.756  -1.979  -0.904  0.00  0.00    -0.056 C 
ATOM      8  C   UNL     1      -0.748  -1.129   0.810  0.00  0.00    -0.070 C 
ATOM      9  C   UNL     1      -1.367  -0.448  -0.415  0.00  0.00    +0.058 C 
ATOM     10  N   UNL     1       0.123  -2.255   0.405  0.00  0.00    +0.384 N 
ATOM     11  H   UNL     1       0.861  -2.372   1.110  0.00  0.00    -0.081 HD
ENDROOT
BRANCH   1  12
ATOM     12  C   UNL     1       2.804   1.930  -1.940  0.00  0.00    +0.146 C 
BRANCH  12  14
ATOM     13  C   UNL     1       4.906   3.057  -1.194  0.00  0.00    +0.009 C 
ATOM     14  C   UNL     1       3.430   2.824  -0.867  0.00  0.00    +0.009 C 
ATOM     15  C   UNL     1       2.697   4.166  -0.831  0.00  0.00    +0.009 C 
ENDBRANCH  12  14
BRANCH  12  16
ATOM     16  N   UNL     1       2.833   2.624  -3.230  0.00  0.00    -0.184 NA
ATOM     17  H   UNL     1       2.357   3.462  -3.341  0.00  0.00    +0.148 HD
BRANCH  16  18
ATOM     18  S   UNL     1       3.676   1.976  -4.500  0.00  0.00    +0.027 S 
ATOM     19  O   UNL     1       3.458   2.878  -5.577  0.00  0.00    -0.158 OA
ATOM     20  O   UNL     1       4.985   1.757  -3.992  0.00  0.00    -0.158 OA
ATOM     21  C   UNL     1       2.864   0.390  -4.839  0.00  0.00    +0.214 C 
ENDBRANCH  16  18
ENDBRANCH  12  16
ENDBRANCH   1  12
BRANCH  10  22
ATOM     22  C   UNL     1      -0.666  -3.497   0.330  0.00  0.00    -0.030 C 
BRANCH  22  23
ATOM     23  C   UNL     1      -1.121  -3.863   1.720  0.00  0.00    +0.003 C 
ATOM     24  C   UNL     1      -2.416  -3.880   2.011  0.00  0.00    +0.021 C 
ATOM     25 CL   UNL     1       0.048  -4.262   2.939  0.00  0.00    -0.090 Cl
BRANCH  24  26
ATOM     26  C   UNL     1      -2.871  -4.373   3.328  0.00  0.00    -0.024 A 
ATOM     27  C   UNL     1      -2.218  -5.445   3.938  0.00  0.00    +0.008 A 
ATOM     28  C   UNL     1      -2.644  -5.897   5.170  0.00  0.00    +0.001 A 
ATOM     29  C   UNL     1      -3.723  -5.298   5.795  0.00  0.00    +0.000 A 
ATOM     30  C   UNL     1      -4.378  -4.238   5.193  0.00  0.00    +0.001 A 
ATOM     31  C   UNL     1      -3.959  -3.773   3.963  0.00  0.00    +0.008 A 
ENDBRANCH  24  26
ENDBRANCH  22  23
ENDBRANCH  10  22
TORSDOF 7
