REMARK  Name = ZINC14478015
REMARK  4 active torsions:
REMARK  status: ('A' for Active; 'I' for Inactive)
REMARK    1  A    between atoms: C_1  and  C_2
REMARK    2  A    between atoms: C_5  and  O_27
REMARK    3  A    between atoms: C_15  and  C_18
REMARK    4  A    between atoms: C_23  and  N_24
REMARK                            x       y       z     vdW  Elec       q    Type
REMARK                         _______ _______ _______ _____ _____    ______ ____
ROOT
ATOM      1  C   UNL     1       3.657   3.766  -1.810  0.00  0.00    +0.044 C 
ATOM      2  C   UNL     1       3.112   2.804  -0.786  0.00  0.00    -0.045 A 
ATOM      3  C   UNL     1       3.971   2.204   0.114  0.00  0.00    +0.007 A 
ATOM      4  C   UNL     1       3.471   1.321   1.053  0.00  0.00    +0.047 A 
ATOM      5  C   UNL     1       2.120   1.034   1.086  0.00  0.00    +0.138 A 
ATOM      6  C   UNL     1       1.240   1.631   0.176  0.00  0.00    +0.074 A 
ATOM      7  C   UNL     1       1.760   2.531  -0.756  0.00  0.00    -0.013 A 
ATOM      8  C   UNL     1       0.815   3.179  -1.691  0.00  0.00    +0.049 C 
ATOM      9  C   UNL     1       1.211   3.623  -3.050  0.00  0.00    -0.023 C 
ATOM     10  C   UNL     1       0.160   3.509  -3.854  0.00  0.00    -0.030 C 
ATOM     11  C   UNL     1      -1.029   2.933  -3.081  0.00  0.00    +0.033 C 
ATOM     12  C   UNL     1      -0.319   2.145  -1.974  0.00  0.00    +0.029 C 
ATOM     13  C   UNL     1      -1.031   1.988  -0.646  0.00  0.00    +0.107 C 
ATOM     14  N   UNL     1      -0.109   1.282   0.259  0.00  0.00    -0.334 N 
ATOM     15  H   UNL     1      -0.229   0.283   0.190  0.00  0.00    +0.147 HD
ENDROOT
BRANCH  13  16
ATOM     16  C   UNL     1      -1.369   3.343  -0.081  0.00  0.00    +0.003 A 
ATOM     17  C   UNL     1      -0.512   3.950   0.818  0.00  0.00    +0.008 A 
ATOM     18  C   UNL     1      -0.822   5.194   1.337  0.00  0.00    +0.000 A 
ATOM     19  C   UNL     1      -1.989   5.830   0.956  0.00  0.00    +0.002 A 
ATOM     20  C   UNL     1      -2.846   5.223   0.057  0.00  0.00    +0.033 A 
ATOM     21  C   UNL     1      -2.534   3.981  -0.465  0.00  0.00    +0.131 A 
BRANCH  21  22
ATOM     22  N   UNL     1      -3.449   3.333  -1.431  0.00  0.00    +0.057 N 
ATOM     23  O   UNL     1      -4.417   3.939  -1.854  0.00  0.00    -0.126 OA
ATOM     24  O   UNL     1      -3.233   2.194  -1.804  0.00  0.00    -0.126 OA
ENDBRANCH  21  22
ENDBRANCH  13  16
BRANCH   5  25
ATOM     25  O   UNL     1       1.640   0.163   2.014  0.00  0.00    -0.505 OA
ATOM     26  H   UNL     1       1.629  -0.758   1.719  0.00  0.00    +0.292 HD
ENDBRANCH   5  25
TORSDOF 3
