REMARK  Name = ZINC63625204
REMARK  6 active torsions:
REMARK  status: ('A' for Active; 'I' for Inactive)
REMARK    1  A    between atoms: C_1  and  C_2
REMARK    2  A    between atoms: C_7  and  S_8
REMARK    3  A    between atoms: S_8  and  C_9
REMARK    4  A    between atoms: C_11  and  C_19
REMARK    5  A    between atoms: C_19  and  C_20
REMARK    6  A    between atoms: N_22  and  C_23
REMARK                            x       y       z     vdW  Elec       q    Type
REMARK                         _______ _______ _______ _____ _____    ______ ____
ROOT
ATOM      1  C   UNL     1      -0.267  -1.213   4.900  0.00  0.00    +0.170 C 
ATOM      2  C   UNL     1       0.855  -0.833   5.840  0.00  0.00    -0.019 C 
ATOM      3  C   UNL     1       0.292  -0.702   7.063  0.00  0.00    +0.000 A 
ATOM      4  C   UNL     1       0.842  -0.354   8.378  0.00  0.00    +0.010 A 
ATOM      5  C   UNL     1       0.010  -0.302   9.444  0.00  0.00    +0.001 A 
ATOM      6  C   UNL     1      -1.360  -0.572   9.323  0.00  0.00    +0.002 A 
ATOM      7  C   UNL     1      -1.938  -0.899   8.148  0.00  0.00    +0.026 A 
ATOM      8  C   UNL     1      -1.158  -0.983   6.962  0.00  0.00    +0.044 A 
ATOM      9  N   UNL     1      -1.480  -1.276   5.724  0.00  0.00    -0.369 N 
ATOM     10  H   UNL     1      -2.369  -1.498   5.406  0.00  0.00    +0.161 HD
ENDROOT
BRANCH   1  11
ATOM     11  S   UNL     1      -0.455   0.045   3.608  0.00  0.00    -0.096 S 
BRANCH  11  18
ATOM     12  C   UNL     1      -0.590   1.246   0.824  0.00  0.00    +0.045 C 
ATOM     13  C   UNL     1      -0.757  -0.249   0.904  0.00  0.00    -0.037 A 
ATOM     14  C   UNL     1      -0.952  -0.986  -0.248  0.00  0.00    +0.004 A 
ATOM     15  C   UNL     1      -1.106  -2.358  -0.175  0.00  0.00    +0.000 A 
ATOM     16  C   UNL     1      -1.065  -2.998   1.050  0.00  0.00    +0.001 A 
ATOM     17  C   UNL     1      -0.871  -2.268   2.206  0.00  0.00    +0.015 A 
ATOM     18  C   UNL     1      -0.710  -0.889   2.136  0.00  0.00    +0.013 A 
ENDBRANCH  11  18
ENDBRANCH   1  11
BRANCH   2  19
ATOM     19  C   UNL     1       2.307  -0.638   5.485  0.00  0.00    +0.130 C 
BRANCH  19  20
ATOM     20  C   UNL     1       3.006  -1.973   5.479  0.00  0.00    +0.221 C 
ATOM     21  O   UNL     1       2.413  -2.970   5.836  0.00  0.00    -0.275 OA
ATOM     22  N   UNL     1       4.289  -2.060   5.077  0.00  0.00    -0.283 N 
ATOM     23  H   UNL     1       4.784  -1.256   4.856  0.00  0.00    +0.155 HD
BRANCH  22  24
ATOM     24  C   UNL     1       4.909  -3.312   4.979  0.00  0.00    +0.069 A 
ATOM     25  C   UNL     1       4.140  -4.463   4.875  0.00  0.00    +0.026 A 
ATOM     26  C   UNL     1       4.754  -5.697   4.778  0.00  0.00    +0.002 A 
ATOM     27  C   UNL     1       6.133  -5.787   4.785  0.00  0.00    +0.003 A 
ATOM     28  C   UNL     1       6.904  -4.644   4.889  0.00  0.00    +0.040 A 
ATOM     29  C   UNL     1       6.296  -3.405   4.980  0.00  0.00    +0.144 A 
ATOM     30  F   UNL     1       7.049  -2.287   5.076  0.00  0.00    -0.204 F 
ENDBRANCH  22  24
ENDBRANCH  19  20
ENDBRANCH   2  19
TORSDOF 5
