REMARK  Name = ZINC13712296
REMARK  6 active torsions:
REMARK  status: ('A' for Active; 'I' for Inactive)
REMARK    1  A    between atoms: C_1  and  O_2
REMARK    2  A    between atoms: O_2  and  C_3
REMARK    3  A    between atoms: C_6  and  C_11
REMARK    4  A    between atoms: C_7  and  O_9
REMARK    5  A    between atoms: O_9  and  C_10
REMARK    6  A    between atoms: N_17  and  C_18
REMARK                            x       y       z     vdW  Elec       q    Type
REMARK                         _______ _______ _______ _____ _____    ______ ____
ROOT
ATOM      1  C   UNL     1       1.376  -2.347  -4.954  0.00  0.00    +0.032 C 
ATOM      2  C   UNL     1       2.135  -1.631  -5.824  0.00  0.00    +0.078 C 
ATOM      3  C   UNL     1       2.961  -2.102  -6.950  0.00  0.00    +0.256 C 
ATOM      4  O   UNL     1       3.043  -3.284  -7.227  0.00  0.00    -0.269 OA
ATOM      5  N   UNL     1       3.607  -1.182  -7.646  0.00  0.00    -0.260 N 
ATOM      6  C   UNL     1       3.502   0.151  -7.317  0.00  0.00    +0.166 C 
ATOM      7  N   UNL     1       4.070   1.185  -7.897  0.00  0.00    -0.224 NA
ATOM      8  S   UNL     1       2.396   0.135  -5.915  0.00  0.00    -0.049 S 
ATOM      9  H   UNL     1       4.162  -1.450  -8.396  0.00  0.00    +0.157 HD
ENDROOT
BRANCH   7  10
ATOM     10  C   UNL     1       3.931   2.435  -7.357  0.00  0.00    +0.085 A 
ATOM     11  C   UNL     1       4.177   2.644  -5.999  0.00  0.00    +0.029 A 
ATOM     12  C   UNL     1       4.035   3.907  -5.462  0.00  0.00    +0.002 A 
ATOM     13  C   UNL     1       3.649   4.965  -6.266  0.00  0.00    +0.002 A 
ATOM     14  C   UNL     1       3.403   4.766  -7.612  0.00  0.00    +0.022 A 
ATOM     15  C   UNL     1       3.547   3.509  -8.165  0.00  0.00    +0.066 A 
ATOM     16 CL   UNL     1       3.246   3.262  -9.857  0.00  0.00    -0.081 Cl
ENDBRANCH   7  10
BRANCH   1  20
ATOM     17  C   UNL     1      -1.160  -0.342  -2.207  0.00  0.00    +0.124 A 
ATOM     18  C   UNL     1      -0.679   0.329  -3.327  0.00  0.00    +0.046 A 
ATOM     19  C   UNL     1       0.144  -0.316  -4.221  0.00  0.00    +0.015 A 
ATOM     20  C   UNL     1       0.499  -1.654  -4.004  0.00  0.00    +0.018 A 
ATOM     21  C   UNL     1       0.012  -2.328  -2.871  0.00  0.00    +0.131 A 
ATOM     22  C   UNL     1      -0.810  -1.665  -1.978  0.00  0.00    +0.091 A 
BRANCH  17  24
ATOM     23  C   UNL     1      -2.293   1.665  -1.624  0.00  0.00    +0.277 C 
ATOM     24  O   UNL     1      -1.971   0.304  -1.330  0.00  0.00    -0.495 OA
ENDBRANCH  17  24
BRANCH  21  25
ATOM     25  O   UNL     1       0.351  -3.624  -2.651  0.00  0.00    -0.494 OA
ATOM     26  C   UNL     1      -0.182  -4.244  -1.480  0.00  0.00    +0.277 C 
ENDBRANCH  21  25
ENDBRANCH   1  20
TORSDOF 4
