REMARK  Name = ZINC27991456
REMARK  13 active torsions:
REMARK  status: ('A' for Active; 'I' for Inactive)
REMARK    1  A    between atoms: C_1  and  N_2
REMARK    2  A    between atoms: N_2  and  C_3
REMARK    3  A    between atoms: N_2  and  C_4
REMARK    4  A    between atoms: C_7  and  C_10
REMARK    5  A    between atoms: C_10  and  C_12
REMARK    6  A    between atoms: C_10  and  N_32
REMARK    7  A    between atoms: C_12  and  N_13
REMARK    8  A    between atoms: N_13  and  C_14
REMARK    9  A    between atoms: C_15  and  C_30
REMARK   10  A    between atoms: C_17  and  C_19
REMARK   11  A    between atoms: C_19  and  C_20
REMARK   12  A    between atoms: N_32  and  C_33
REMARK   13  A    between atoms: N_32  and  C_34
REMARK                            x       y       z     vdW  Elec       q    Type
REMARK                         _______ _______ _______ _____ _____    ______ ____
ROOT
ATOM      1  C   UNL     1      -4.183   0.669  -3.190  0.00  0.00    +0.224 A 
ATOM      2  C   UNL     1      -5.370   0.190  -3.715  0.00  0.00    +0.201 A 
ATOM      3  N   UNL     1      -5.326   0.418  -5.059  0.00  0.00    -0.200 NA
ATOM      4  C   UNL     1      -4.195   0.987  -5.346  0.00  0.00    +0.203 A 
ATOM      5  O   UNL     1      -3.474   1.154  -4.226  0.00  0.00    -0.425 OA
ENDROOT
BRANCH   1   6
ATOM      6  N   UNL     1      -3.798   0.647  -1.865  0.00  0.00    -0.314 N 
ATOM      7  H   UNL     1      -4.469   0.221  -1.105  0.00  0.00    +0.149 HD
BRANCH   6   8
ATOM      8  C   UNL     1      -2.497   1.192  -1.471  0.00  0.00    +0.094 C 
BRANCH   8   9
ATOM      9  C   UNL     1      -2.387   1.197   0.055  0.00  0.00    -0.021 C 
BRANCH   9  13
ATOM     10  C   UNL     1       1.490   2.588   1.194  0.00  0.00    +0.029 A 
ATOM     11  C   UNL     1       1.187   1.235   1.268  0.00  0.00    +0.023 A 
ATOM     12  C   UNL     1      -0.069   0.789   0.903  0.00  0.00    +0.004 A 
ATOM     13  C   UNL     1      -1.021   1.688   0.459  0.00  0.00    -0.059 A 
ATOM     14  C   UNL     1      -0.724   3.037   0.389  0.00  0.00    +0.004 A 
ATOM     15  C   UNL     1       0.529   3.489   0.753  0.00  0.00    +0.023 A 
BRANCH  10  17
ATOM     16  C   UNL     1       3.771   2.091   2.027  0.00  0.00    +0.129 C 
ATOM     17  N   UNL     1       2.759   3.042   1.562  0.00  0.00    -0.336 N 
ATOM     18  C   UNL     1       3.077   4.470   1.483  0.00  0.00    +0.129 C 
ENDBRANCH  10  17
ENDBRANCH   9  13
BRANCH   9  19
ATOM     19  N   UNL     1      -3.413   2.087   0.617  0.00  0.00    +0.382 N 
ATOM     20  C   UNL     1      -3.784   3.135  -0.343  0.00  0.00    -0.096 C 
ATOM     21  C   UNL     1      -4.593   1.324   1.046  0.00  0.00    -0.096 C 
ATOM     22  H   UNL     1      -2.986   2.577   1.504  0.00  0.00    -0.082 HD
ENDBRANCH   9  19
ENDBRANCH   8   9
ENDBRANCH   6   8
ENDBRANCH   1   6
BRANCH   2  23
ATOM     23  C   UNL     1      -6.440  -0.424  -2.988  0.00  0.00    +0.124 C 
ATOM     24  N   UNL     1      -7.289  -0.912  -2.411  0.00  0.00    -0.189 NA
ENDBRANCH   2  23
BRANCH   4  25
ATOM     25  C   UNL     1      -3.759   1.399  -6.728  0.00  0.00    +0.131 C 
BRANCH  25  26
ATOM     26  C   UNL     1      -4.207   2.813  -6.996  0.00  0.00    -0.031 A 
ATOM     27  C   UNL     1      -5.378   3.047  -7.650  0.00  0.00    +0.005 A 
ATOM     28  C   UNL     1      -5.808   4.346  -7.907  0.00  0.00    +0.001 A 
ATOM     29  C   UNL     1      -5.072   5.420  -7.511  0.00  0.00    +0.008 A 
ATOM     30  C   UNL     1      -3.858   5.218  -6.833  0.00  0.00    -0.018 A 
ATOM     31  C   UNL     1      -3.422   3.896  -6.567  0.00  0.00    -0.014 A 
ATOM     32  C   UNL     1      -2.205   3.694  -5.893  0.00  0.00    +0.009 A 
ATOM     33  C   UNL     1      -1.469   4.768  -5.497  0.00  0.00    +0.001 A 
ATOM     34  C   UNL     1      -1.899   6.068  -5.754  0.00  0.00    +0.001 A 
ATOM     35  C   UNL     1      -3.070   6.302  -6.408  0.00  0.00    +0.008 A 
ENDBRANCH  25  26
ENDBRANCH   4  25
TORSDOF 9
