REMARK  Name = ZINC15105821
REMARK  9 active torsions:
REMARK  status: ('A' for Active; 'I' for Inactive)
REMARK    1  A    between atoms: C_1  and  C_2
REMARK    2  A    between atoms: C_8  and  C_17
REMARK    3  A    between atoms: C_12  and  C_13
REMARK    4  A    between atoms: C_13  and  O_15
REMARK    5  A    between atoms: O_15  and  C_16
REMARK    6  A    between atoms: C_17  and  N_18
REMARK    7  A    between atoms: C_24  and  C_26
REMARK    8  A    between atoms: C_29  and  O_32
REMARK    9  A    between atoms: O_32  and  C_33
REMARK                            x       y       z     vdW  Elec       q    Type
REMARK                         _______ _______ _______ _____ _____    ______ ____
ROOT
ATOM      1  C   UNL     1       0.007  -3.315  -4.583  0.00  0.00    -0.002 C 
ENDROOT
BRANCH   1   9
ATOM      2  C   UNL     1       0.557   1.519  -0.044  0.00  0.00    +0.046 C 
ATOM      3  C   UNL     1       0.534   0.012  -0.045  0.00  0.00    -0.015 A 
ATOM      4  C   UNL     1       0.397  -0.685  -1.247  0.00  0.00    +0.076 A 
ATOM      5  C   UNL     1       0.262  -0.158  -2.625  0.00  0.00    +0.260 A 
ATOM      6  O   UNL     1       0.259   1.042  -2.837  0.00  0.00    -0.267 OA
ATOM      7  N   UNL     1       0.142  -1.039  -3.637  0.00  0.00    -0.312 N 
ATOM      8  H   UNL     1       0.053  -0.711  -4.545  0.00  0.00    +0.170 HD
ATOM      9  C   UNL     1       0.145  -2.376  -3.412  0.00  0.00    +0.094 A 
ATOM     10  N   UNL     1       0.262  -2.874  -2.211  0.00  0.00    -0.229 NA
ATOM     11  C   UNL     1       0.386  -2.095  -1.144  0.00  0.00    +0.116 A 
ATOM     12  S   UNL     1       0.563  -2.378   0.600  0.00  0.00    -0.062 S 
ATOM     13  C   UNL     1       0.651  -0.675   1.128  0.00  0.00    +0.102 A 
BRANCH  13  14
ATOM     14  C   UNL     1       0.808  -0.146   2.485  0.00  0.00    +0.346 C 
ATOM     15  O   UNL     1       0.847   1.055   2.669  0.00  0.00    -0.244 OA
BRANCH  14  16
ATOM     16  O   UNL     1       0.909  -0.992   3.531  0.00  0.00    -0.464 OA
ATOM     17  C   UNL     1       1.060  -0.407   4.826  0.00  0.00    +0.280 C 
ENDBRANCH  14  16
ENDBRANCH  13  14
ENDBRANCH   1   9
BRANCH   1  18
ATOM     18  N   UNL     1       0.035  -4.703  -4.103  0.00  0.00    +0.389 N 
ATOM     19  C   UNL     1      -1.139  -4.937  -3.236  0.00  0.00    -0.077 C 
ATOM     20  C   UNL     1      -1.460  -6.427  -3.023  0.00  0.00    -0.019 C 
ATOM     21  C   UNL     1      -0.241  -7.275  -2.777  0.00  0.00    -0.002 C 
ATOM     22  C   UNL     1       0.269  -7.824  -4.133  0.00  0.00    -0.001 C 
ATOM     23  C   UNL     1       0.956  -6.786  -4.892  0.00  0.00    -0.011 C 
ATOM     24  C   UNL     1       0.051  -5.592  -5.239  0.00  0.00    -0.037 C 
ATOM     25  H   UNL     1       0.875  -4.847  -3.562  0.00  0.00    -0.080 HD
BRANCH  24  26
ATOM     26  C   UNL     1       0.599  -4.871  -6.444  0.00  0.00    -0.061 A 
ATOM     27  C   UNL     1       1.918  -4.455  -6.458  0.00  0.00    +0.005 A 
ATOM     28  C   UNL     1       2.422  -3.793  -7.561  0.00  0.00    +0.046 A 
ATOM     29  C   UNL     1       1.605  -3.546  -8.654  0.00  0.00    +0.120 A 
ATOM     30  C   UNL     1       0.282  -3.965  -8.637  0.00  0.00    +0.046 A 
ATOM     31  C   UNL     1      -0.216  -4.631  -7.534  0.00  0.00    +0.005 A 
BRANCH  29  32
ATOM     32  O   UNL     1       2.098  -2.895  -9.740  0.00  0.00    -0.495 OA
ATOM     33  C   UNL     1       1.199  -2.675 -10.829  0.00  0.00    +0.277 C 
ENDBRANCH  29  32
ENDBRANCH  24  26
ENDBRANCH   1  18
TORSDOF 6
