REMARK  Name = ZINC54641032
REMARK  12 active torsions:
REMARK  status: ('A' for Active; 'I' for Inactive)
REMARK    1  A    between atoms: C_1  and  C_2
REMARK    2  A    between atoms: C_3  and  C_30
REMARK    3  A    between atoms: C_4  and  C_20
REMARK    4  A    between atoms: C_9  and  S_11
REMARK    5  A    between atoms: S_11  and  C_12
REMARK    6  A    between atoms: C_12  and  C_13
REMARK    7  A    between atoms: C_23  and  O_26
REMARK    8  A    between atoms: O_26  and  C_27
REMARK    9  A    between atoms: C_27  and  C_28
REMARK   10  A    between atoms: C_27  and  C_29
REMARK   11  A    between atoms: C_30  and  O_32
REMARK   12  A    between atoms: O_32  and  C_33
REMARK                            x       y       z     vdW  Elec       q    Type
REMARK                         _______ _______ _______ _____ _____    ______ ____
ROOT
ATOM      1  C   UNL     1      -0.636   1.654   0.173  0.00  0.00    +0.061 C 
ATOM      2  C   UNL     1      -0.372   0.174   0.072  0.00  0.00    +0.020 C 
ATOM      3  C   UNL     1      -1.412  -0.674   0.091  0.00  0.00    +0.082 C 
ATOM      4  C   UNL     1      -1.256  -2.167  -0.016  0.00  0.00    +0.179 C 
ATOM      5  N   UNL     1       0.150  -2.523   0.154  0.00  0.00    -0.220 N 
ATOM      6  C   UNL     1       1.160  -1.619   0.135  0.00  0.00    +0.219 A 
ATOM      7  N   UNL     1       2.283  -2.262   0.306  0.00  0.00    -0.187 NA
ATOM      8  C   UNL     1       2.033  -3.572   0.442  0.00  0.00    +0.211 A 
ATOM      9  N   UNL     1       0.735  -3.772   0.356  0.00  0.00    -0.141 NA
ATOM     10  N   UNL     1       0.925  -0.262  -0.043  0.00  0.00    -0.287 N 
ATOM     11  H   UNL     1       1.648   0.355  -0.238  0.00  0.00    +0.155 HD
ENDROOT
BRANCH   4  12
ATOM     12  C   UNL     1      -1.731  -2.626  -1.371  0.00  0.00    -0.018 A 
ATOM     13  C   UNL     1      -1.119  -2.147  -2.515  0.00  0.00    +0.009 A 
ATOM     14  C   UNL     1      -1.552  -2.566  -3.758  0.00  0.00    +0.046 A 
ATOM     15  C   UNL     1      -2.602  -3.467  -3.858  0.00  0.00    +0.121 A 
ATOM     16  C   UNL     1      -3.214  -3.946  -2.709  0.00  0.00    +0.046 A 
ATOM     17  C   UNL     1      -2.774  -3.529  -1.468  0.00  0.00    +0.009 A 
BRANCH  15  18
ATOM     18  O   UNL     1      -3.031  -3.880  -5.080  0.00  0.00    -0.489 OA
BRANCH  18  19
ATOM     19  C   UNL     1      -2.280  -3.440  -6.213  0.00  0.00    +0.167 C 
ATOM     20  C   UNL     1      -2.471  -4.428  -7.366  0.00  0.00    +0.051 C 
ATOM     21  C   UNL     1      -2.767  -2.055  -6.642  0.00  0.00    +0.051 C 
ENDBRANCH  18  19
ENDBRANCH  15  18
ENDBRANCH   4  12
BRANCH   3  22
ATOM     22  C   UNL     1      -2.713  -0.140   0.219  0.00  0.00    +0.339 C 
ATOM     23  O   UNL     1      -2.871   1.064   0.308  0.00  0.00    -0.245 OA
BRANCH  22  24
ATOM     24  O   UNL     1      -3.782  -0.964   0.242  0.00  0.00    -0.458 OA
BRANCH  24  25
ATOM     25  C   UNL     1      -5.068  -0.355   0.374  0.00  0.00    +0.177 C 
ATOM     26  C   UNL     1      -5.424  -0.231   1.857  0.00  0.00    +0.044 C 
ATOM     27  C   UNL     1      -6.801   0.420   1.998  0.00  0.00    +0.004 C 
ATOM     28  C   UNL     1      -7.849  -0.443   1.292  0.00  0.00    +0.000 C 
ATOM     29  C   UNL     1      -7.493  -0.568  -0.191  0.00  0.00    +0.004 C 
ATOM     30  C   UNL     1      -6.116  -1.219  -0.331  0.00  0.00    +0.044 C 
ENDBRANCH  24  25
ENDBRANCH  22  24
ENDBRANCH   3  22
BRANCH   8  31
ATOM     31  S   UNL     1       3.246  -4.824   0.697  0.00  0.00    -0.080 S 
BRANCH  31  32
ATOM     32  C   UNL     1       4.816  -3.916   0.723  0.00  0.00    +0.112 C 
BRANCH  32  33
ATOM     33  C   UNL     1       5.952  -4.882   0.936  0.00  0.00    -0.037 A 
ATOM     34  C   UNL     1       6.368  -5.188   2.219  0.00  0.00    +0.004 A 
ATOM     35  C   UNL     1       7.410  -6.074   2.415  0.00  0.00    +0.000 A 
ATOM     36  C   UNL     1       8.037  -6.655   1.328  0.00  0.00    +0.000 A 
ATOM     37  C   UNL     1       7.620  -6.351   0.046  0.00  0.00    +0.000 A 
ATOM     38  C   UNL     1       6.575  -5.467  -0.150  0.00  0.00    +0.004 A 
ENDBRANCH  32  33
ENDBRANCH  31  32
ENDBRANCH   8  31
TORSDOF 9
