REMARK  Name = ZINC09487658
REMARK  3 active torsions:
REMARK  status: ('A' for Active; 'I' for Inactive)
REMARK    1  A    between atoms: C_1  and  C_2
REMARK    2  A    between atoms: C_22  and  C_29
REMARK    3  A    between atoms: C_29  and  C_31
REMARK                            x       y       z     vdW  Elec       q    Type
REMARK                         _______ _______ _______ _____ _____    ______ ____
ROOT
ATOM      1  C   UNL     1      -6.217   2.693  -3.327  0.00  0.00    +0.045 C 
ATOM      2  C   UNL     1      -5.272   1.689  -2.718  0.00  0.00    -0.029 A 
ATOM      3  C   UNL     1      -5.479   0.340  -2.919  0.00  0.00    +0.005 A 
ATOM      4  C   UNL     1      -4.618  -0.589  -2.365  0.00  0.00    +0.001 A 
ATOM      5  C   UNL     1      -3.543  -0.164  -1.604  0.00  0.00    +0.004 A 
ATOM      6  C   UNL     1      -3.333   1.181  -1.401  0.00  0.00    -0.026 A 
ATOM      7  C   UNL     1      -4.193   2.125  -1.954  0.00  0.00    +0.039 A 
ATOM      8  N   UNL     1      -3.778   3.414  -1.613  0.00  0.00    -0.286 N 
ATOM      9  C   UNL     1      -2.671   3.406  -0.848  0.00  0.00    +0.212 C 
ATOM     10  O   UNL     1      -2.091   4.375  -0.406  0.00  0.00    -0.277 OA
ATOM     11  C   UNL     1      -2.291   1.961  -0.646  0.00  0.00    +0.060 C 
ATOM     12  C   UNL     1      -2.286   1.594   0.835  0.00  0.00    +0.085 C 
ATOM     13  C   UNL     1      -3.103   2.542   1.663  0.00  0.00    -0.011 A 
ATOM     14  C   UNL     1      -3.065   3.903   1.866  0.00  0.00    +0.006 A 
ATOM     15  C   UNL     1      -3.979   4.503   2.714  0.00  0.00    +0.000 A 
ATOM     16  C   UNL     1      -4.929   3.733   3.358  0.00  0.00    +0.002 A 
ATOM     17  C   UNL     1      -4.971   2.368   3.159  0.00  0.00    +0.023 A 
ATOM     18  C   UNL     1      -4.055   1.756   2.307  0.00  0.00    +0.038 A 
ATOM     19  N   UNL     1      -3.897   0.415   1.950  0.00  0.00    -0.285 N 
ATOM     20  C   UNL     1      -2.878   0.236   1.086  0.00  0.00    +0.228 C 
ATOM     21  O   UNL     1      -2.510  -0.816   0.606  0.00  0.00    -0.275 OA
ATOM     22  C   UNL     1      -0.779   1.636   1.237  0.00  0.00    +0.066 C 
ATOM     23  C   UNL     1      -0.118   1.137  -0.072  0.00  0.00    -0.055 C 
ATOM     24  C   UNL     1      -0.288   2.970  -1.568  0.00  0.00    -0.076 C 
ATOM     25  C   UNL     1       1.223   2.660  -1.442  0.00  0.00    -0.020 C 
ATOM     26  C   UNL     1       1.286   1.750  -0.195  0.00  0.00    -0.016 C 
ATOM     27  H   UNL     1      -4.235   4.222  -1.895  0.00  0.00    +0.155 HD
ATOM     28  H   UNL     1      -4.456  -0.304   2.284  0.00  0.00    +0.155 HD
ATOM     29  N   UNL     1      -0.923   1.704  -1.149  0.00  0.00    +0.395 N 
ATOM     30  H   UNL     1      -0.963   1.053  -1.943  0.00  0.00    -0.079 HD
ENDROOT
BRANCH  22  31
ATOM     31  C   UNL     1      -0.343   3.042   1.560  0.00  0.00    +0.167 C 
ATOM     32  O   UNL     1       0.127   3.746   0.692  0.00  0.00    -0.292 OA
BRANCH  31  33
ATOM     33  C   UNL     1      -0.486   3.561   2.929  0.00  0.00    +0.036 A 
ATOM     34  C   UNL     1      -1.033   2.754   3.933  0.00  0.00    +0.013 A 
ATOM     35  C   UNL     1      -1.160   3.245   5.215  0.00  0.00    +0.001 A 
ATOM     36  C   UNL     1      -0.758   4.537   5.508  0.00  0.00    +0.001 A 
ATOM     37  C   UNL     1      -0.222   5.344   4.521  0.00  0.00    +0.021 A 
ATOM     38  C   UNL     1      -0.083   4.866   3.233  0.00  0.00    +0.051 A 
ATOM     39 CL   UNL     1       0.590   5.880   1.996  0.00  0.00    -0.083 Cl
ENDBRANCH  31  33
ENDBRANCH  22  31
TORSDOF 2
