REMARK  Name = ZINC03091955
REMARK  8 active torsions:
REMARK  status: ('A' for Active; 'I' for Inactive)
REMARK    1  A    between atoms: C_1  and  C_2
REMARK    2  A    between atoms: C_5  and  N_9
REMARK    3  A    between atoms: C_6  and  C_8
REMARK    4  A    between atoms: N_9  and  C_10
REMARK    5  A    between atoms: C_10  and  C_12
REMARK    6  A    between atoms: C_10  and  N_16
REMARK    7  A    between atoms: C_17  and  C_19
REMARK    8  A    between atoms: C_24  and  N_25
REMARK                            x       y       z     vdW  Elec       q    Type
REMARK                         _______ _______ _______ _____ _____    ______ ____
ROOT
ATOM      1  C   UNL     1       3.555  -2.512  -0.364  0.00  0.00    +0.210 C 
ENDROOT
BRANCH   1   2
ATOM      2  C   UNL     1       3.926  -3.420  -1.539  0.00  0.00    +0.225 C 
ATOM      3 CL   UNL     1       3.818  -2.486  -3.078  0.00  0.00    -0.080 Cl
ATOM      4 CL   UNL     1       5.611  -4.026  -1.321  0.00  0.00    -0.080 Cl
ATOM      5 CL   UNL     1       2.788  -4.816  -1.602  0.00  0.00    -0.080 Cl
ENDBRANCH   1   2
BRANCH   1   6
ATOM      6  N   UNL     1       3.643  -3.270   0.886  0.00  0.00    -0.289 N 
ATOM      7  C   UNL     1       4.245  -2.727   1.963  0.00  0.00    +0.248 C 
ATOM      8  O   UNL     1       4.714  -1.608   1.896  0.00  0.00    -0.270 OA
ATOM      9  H   UNL     1       3.268  -4.163   0.939  0.00  0.00    +0.151 HD
BRANCH   7  10
ATOM     10  C   UNL     1       4.333  -3.493   3.224  0.00  0.00    +0.067 A 
ATOM     11  C   UNL     1       4.889  -4.773   3.230  0.00  0.00    +0.015 A 
ATOM     12  C   UNL     1       4.973  -5.480   4.411  0.00  0.00    +0.001 A 
ATOM     13  C   UNL     1       4.498  -4.927   5.588  0.00  0.00    +0.002 A 
ATOM     14  C   UNL     1       3.942  -3.660   5.588  0.00  0.00    +0.033 A 
ATOM     15  C   UNL     1       3.857  -2.940   4.414  0.00  0.00    +0.138 A 
BRANCH  15  16
ATOM     16  N   UNL     1       3.260  -1.586   4.416  0.00  0.00    +0.057 N 
ATOM     17  O   UNL     1       2.954  -1.057   5.470  0.00  0.00    -0.126 OA
ATOM     18  O   UNL     1       3.075  -1.000   3.365  0.00  0.00    -0.126 OA
ENDBRANCH  15  16
ENDBRANCH   7  10
ENDBRANCH   1   6
BRANCH   1  19
ATOM     19  N   UNL     1       2.187  -2.019  -0.542  0.00  0.00    -0.322 N 
ATOM     20  H   UNL     1       1.483  -2.630  -0.810  0.00  0.00    +0.148 HD
BRANCH  19  25
ATOM     21  C   UNL     1       1.009   3.457   0.340  0.00  0.00    +0.044 C 
ATOM     22  C   UNL     1       1.322   2.002   0.106  0.00  0.00    -0.050 A 
ATOM     23  C   UNL     1       2.586   1.515   0.383  0.00  0.00    +0.005 A 
ATOM     24  C   UNL     1       2.877   0.182   0.170  0.00  0.00    +0.023 A 
ATOM     25  C   UNL     1       1.897  -0.670  -0.324  0.00  0.00    +0.031 A 
ATOM     26  C   UNL     1       0.628  -0.178  -0.601  0.00  0.00    -0.029 A 
ATOM     27  C   UNL     1       0.344   1.156  -0.385  0.00  0.00    +0.008 A 
ATOM     28  C   UNL     1      -0.438  -1.099  -1.136  0.00  0.00    +0.045 C 
ENDBRANCH  19  25
ENDBRANCH   1  19
TORSDOF 6
