REMARK  Name = ZINC21076697
REMARK  6 active torsions:
REMARK  status: ('A' for Active; 'I' for Inactive)
REMARK    1  A    between atoms: C_1  and  C_2
REMARK    2  A    between atoms: C_9  and  C_11
REMARK    3  A    between atoms: C_11  and  S_12
REMARK    4  A    between atoms: S_12  and  C_13
REMARK    5  A    between atoms: N_19  and  N_20
REMARK    6  A    between atoms: C_21  and  C_22
REMARK                            x       y       z     vdW  Elec       q    Type
REMARK                         _______ _______ _______ _____ _____    ______ ____
ROOT
ATOM      1  C   UNL     1      -1.417  -7.701   3.358  0.00  0.00    +0.210 A 
ATOM      2  N   UNL     1      -2.414  -8.493   3.768  0.00  0.00    -0.186 NA
ATOM      3  C   UNL     1      -1.917  -9.570   4.339  0.00  0.00    +0.232 A 
ATOM      4  N   UNL     1      -0.570  -9.479   4.301  0.00  0.00    -0.245 N 
ATOM      5  H   UNL     1       0.066 -10.125   4.646  0.00  0.00    +0.192 HD
ATOM      6  N   UNL     1      -0.272  -8.266   3.658  0.00  0.00    -0.144 NA
ATOM      7  N   UNL     1      -2.645 -10.611   4.883  0.00  0.00    -0.205 N 
ATOM      8  H   UNL     1      -2.187 -11.366   5.285  0.00  0.00    +0.177 HD
ENDROOT
BRANCH   7   9
ATOM      9  N   UNL     1      -4.045 -10.576   4.855  0.00  0.00    -0.187 NA
ATOM     10  C   UNL     1      -4.730 -11.555   5.366  0.00  0.00    +0.140 C 
BRANCH  10  11
ATOM     11  C   UNL     1      -6.202 -11.518   5.336  0.00  0.00    +0.020 A 
ATOM     12  C   UNL     1      -7.048 -12.459   5.833  0.00  0.00    +0.093 A 
ATOM     13  N   UNL     1      -8.340 -12.074   5.618  0.00  0.00    -0.360 N 
ATOM     14  H   UNL     1      -9.121 -12.583   5.885  0.00  0.00    +0.165 HD
ATOM     15  C   UNL     1      -8.374 -10.859   4.969  0.00  0.00    +0.047 A 
ATOM     16  C   UNL     1      -7.044 -10.451   4.767  0.00  0.00    +0.008 A 
ATOM     17  C   UNL     1      -6.774  -9.242   4.131  0.00  0.00    +0.010 A 
ATOM     18  C   UNL     1      -7.816  -8.447   3.705  0.00  0.00    +0.001 A 
ATOM     19  C   UNL     1      -9.129  -8.847   3.906  0.00  0.00    +0.002 A 
ATOM     20  C   UNL     1      -9.412 -10.045   4.526  0.00  0.00    +0.026 A 
ENDBRANCH  10  11
ENDBRANCH   7   9
BRANCH   1  21
ATOM     21  S   UNL     1      -1.611  -6.152   2.541  0.00  0.00    -0.077 S 
BRANCH  21  22
ATOM     22  C   UNL     1       0.090  -5.594   2.249  0.00  0.00    +0.151 C 
BRANCH  22  31
ATOM     23  C   UNL     1      -0.018   1.503   0.010  0.00  0.00    +0.044 C 
ATOM     24  C   UNL     1       0.002  -0.004   0.002  0.00  0.00    -0.048 A 
ATOM     25  C   UNL     1       0.006  -0.687  -1.206  0.00  0.00    +0.005 A 
ATOM     26  C   UNL     1       0.024  -2.052  -1.235  0.00  0.00    +0.030 A 
ATOM     27  C   UNL     1       0.040  -2.774  -0.039  0.00  0.00    +0.089 A 
ATOM     28  C   UNL     1       0.037  -2.083   1.185  0.00  0.00    +0.066 A 
ATOM     29  C   UNL     1       0.023  -0.695   1.195  0.00  0.00    +0.031 A 
ATOM     30  N   UNL     1       0.055  -3.051   2.169  0.00  0.00    -0.341 N 
ATOM     31  C   UNL     1       0.068  -4.261   1.546  0.00  0.00    +0.118 A 
ATOM     32  N   UNL     1       0.059  -4.099   0.255  0.00  0.00    -0.232 NA
ATOM     33  H   UNL     1       0.058  -2.898   3.127  0.00  0.00    +0.167 HD
ENDBRANCH  22  31
ENDBRANCH  21  22
ENDBRANCH   1  21
TORSDOF 5
