REMARK  Name = ZINC35129751
REMARK  11 active torsions:
REMARK  status: ('A' for Active; 'I' for Inactive)
REMARK    1  A    between atoms: C_1  and  C_2
REMARK    2  A    between atoms: C_6  and  N_9
REMARK    3  A    between atoms: C_7  and  C_8
REMARK    4  A    between atoms: N_12  and  C_13
REMARK    5  A    between atoms: N_12  and  C_34
REMARK    6  A    between atoms: C_13  and  C_14
REMARK    7  A    between atoms: N_16  and  C_17
REMARK    8  A    between atoms: C_19  and  C_28
REMARK    9  A    between atoms: N_21  and  C_22
REMARK   10  A    between atoms: C_34  and  C_35
REMARK   11  A    between atoms: C_34  and  C_36
REMARK                            x       y       z     vdW  Elec       q    Type
REMARK                         _______ _______ _______ _____ _____    ______ ____
ROOT
ATOM      1  C   UNL     1       1.315  -6.773   3.666  0.00  0.00    +0.236 C 
ATOM      2  O   UNL     1       2.226  -5.976   3.745  0.00  0.00    -0.274 OA
ATOM      3  N   UNL     1       1.573  -8.095   3.686  0.00  0.00    -0.269 N 
ATOM      4  H   UNL     1       0.844  -8.732   3.623  0.00  0.00    +0.156 HD
ENDROOT
BRANCH   3   5
ATOM      5  C   UNL     1       2.887  -8.548   3.796  0.00  0.00    +0.129 A 
ATOM      6  C   UNL     1       3.997  -7.771   3.898  0.00  0.00    +0.074 A 
ATOM      7  C   UNL     1       5.113  -8.623   3.989  0.00  0.00    +0.095 A 
ATOM      8  N   UNL     1       4.685  -9.868   3.944  0.00  0.00    -0.165 NA
ATOM      9  N   UNL     1       3.289  -9.849   3.828  0.00  0.00    -0.218 N 
BRANCH   9  10
ATOM     10  C   UNL     1       2.454 -10.971   3.754  0.00  0.00    +0.067 A 
ATOM     11  C   UNL     1       1.192 -10.938   4.334  0.00  0.00    +0.028 A 
ATOM     12  C   UNL     1       0.371 -12.046   4.260  0.00  0.00    +0.002 A 
ATOM     13  C   UNL     1       0.804 -13.187   3.609  0.00  0.00    +0.000 A 
ATOM     14  C   UNL     1       2.060 -13.223   3.031  0.00  0.00    +0.002 A 
ATOM     15  C   UNL     1       2.883 -12.116   3.097  0.00  0.00    +0.028 A 
ENDBRANCH   9  10
BRANCH   7  16
ATOM     16  C   UNL     1       6.528  -8.194   4.115  0.00  0.00    +0.002 A 
ATOM     17  C   UNL     1       6.847  -6.838   4.157  0.00  0.00    +0.010 A 
ATOM     18  C   UNL     1       8.164  -6.445   4.273  0.00  0.00    +0.001 A 
ATOM     19  C   UNL     1       9.168  -7.394   4.349  0.00  0.00    +0.000 A 
ATOM     20  C   UNL     1       8.858  -8.741   4.307  0.00  0.00    +0.001 A 
ATOM     21  C   UNL     1       7.543  -9.146   4.197  0.00  0.00    +0.010 A 
ENDBRANCH   7  16
ENDBRANCH   3   5
BRANCH   1  22
ATOM     22  C   UNL     1      -0.105  -6.284   3.547  0.00  0.00    +0.205 C 
BRANCH  22  26
ATOM     23  N   UNL     1       0.054  -2.797   2.394  0.00  0.00    -0.269 N 
ATOM     24  C   UNL     1      -0.027  -4.143   2.386  0.00  0.00    +0.307 C 
ATOM     25  O   UNL     1      -0.016  -4.746   1.331  0.00  0.00    -0.252 OA
ATOM     26  N   UNL     1      -0.119  -4.819   3.548  0.00  0.00    -0.274 N 
ATOM     27  H   UNL     1       0.083  -2.318   3.236  0.00  0.00    +0.156 HD
BRANCH  23  33
ATOM     28  C   UNL     1      -0.737   1.359  -0.111  0.00  0.00    +0.044 C 
ATOM     29  C   UNL     1      -0.280  -0.076  -0.057  0.00  0.00    -0.046 A 
ATOM     30  C   UNL     1       0.181  -0.698  -1.203  0.00  0.00    +0.004 A 
ATOM     31  C   UNL     1       0.601  -2.014  -1.157  0.00  0.00    +0.002 A 
ATOM     32  C   UNL     1       0.560  -2.713   0.033  0.00  0.00    +0.023 A 
ATOM     33  C   UNL     1       0.097  -2.092   1.185  0.00  0.00    +0.038 A 
ATOM     34  C   UNL     1      -0.319  -0.767   1.138  0.00  0.00    -0.026 A 
ATOM     35  C   UNL     1      -0.816  -0.087   2.387  0.00  0.00    +0.046 C 
ENDBRANCH  23  33
BRANCH  26  36
ATOM     36  C   UNL     1      -0.233  -4.088   4.813  0.00  0.00    +0.072 C 
ATOM     37  C   UNL     1      -1.594  -4.380   5.450  0.00  0.00    +0.028 C 
ATOM     38  C   UNL     1       0.880  -4.536   5.763  0.00  0.00    +0.028 C 
ENDBRANCH  26  36
ENDBRANCH  22  26
ENDBRANCH   1  22
TORSDOF 7
