REMARK  Name = ZINC08904750
REMARK  11 active torsions:
REMARK  status: ('A' for Active; 'I' for Inactive)
REMARK    1  A    between atoms: C_1  and  C_2
REMARK    2  A    between atoms: C_2  and  C_3
REMARK    3  A    between atoms: C_3  and  C_4
REMARK    4  A    between atoms: C_4  and  C_5
REMARK    5  A    between atoms: C_8  and  N_11
REMARK    6  A    between atoms: C_12  and  C_14
REMARK    7  A    between atoms: C_14  and  S_15
REMARK    8  A    between atoms: S_15  and  C_16
REMARK    9  A    between atoms: C_22  and  C_24
REMARK   10  A    between atoms: N_29  and  C_31
REMARK   11  A    between atoms: C_36  and  C_37
REMARK                            x       y       z     vdW  Elec       q    Type
REMARK                         _______ _______ _______ _____ _____    ______ ____
ROOT
ATOM      1  C   UNL     1       4.842   0.256  -0.029  0.00  0.00    +0.160 A 
ATOM      2  N   UNL     1       3.782  -0.538  -0.014  0.00  0.00    -0.133 NA
ATOM      3  N   UNL     1       2.606  -0.082   0.012  0.00  0.00    -0.125 NA
ATOM      4  C   UNL     1       2.359   1.218   0.013  0.00  0.00    +0.189 A 
ATOM      5  S   UNL     1       4.032   1.853  -0.012  0.00  0.00    -0.024 S 
ATOM      6  N   UNL     1       1.143   1.897   0.035  0.00  0.00    -0.263 N 
ATOM      7  C   UNL     1      -0.014   1.208   0.053  0.00  0.00    +0.224 C 
ATOM      8  O   UNL     1       0.002  -0.005   0.049  0.00  0.00    -0.275 OA
ATOM      9  H   UNL     1       1.130   2.867   0.038  0.00  0.00    +0.157 HD
ENDROOT
BRANCH   7  10
ATOM     10  C   UNL     1      -1.330   1.943   0.070  0.00  0.00    +0.102 C 
ATOM     11  C   UNL     1      -1.560   2.697  -1.260  0.00  0.00    +0.110 C 
ATOM     12  C   UNL     1      -2.357   1.726  -2.104  0.00  0.00    +0.221 C 
ATOM     13  O   UNL     1      -2.506   1.809  -3.304  0.00  0.00    -0.275 OA
ATOM     14  N   UNL     1      -2.876   0.758  -1.328  0.00  0.00    -0.270 N 
ATOM     15  C   UNL     1      -2.516   0.954   0.081  0.00  0.00    +0.127 C 
BRANCH  14  16
ATOM     16  C   UNL     1      -3.659  -0.300  -1.804  0.00  0.00    +0.039 A 
ATOM     17  C   UNL     1      -5.039  -0.167  -1.873  0.00  0.00    +0.024 A 
ATOM     18  C   UNL     1      -5.809  -1.212  -2.348  0.00  0.00    +0.002 A 
ATOM     19  C   UNL     1      -5.206  -2.392  -2.744  0.00  0.00    +0.000 A 
ATOM     20  C   UNL     1      -3.832  -2.529  -2.670  0.00  0.00    +0.005 A 
ATOM     21  C   UNL     1      -3.057  -1.486  -2.201  0.00  0.00    -0.029 A 
ATOM     22  C   UNL     1      -1.559  -1.636  -2.122  0.00  0.00    +0.045 C 
ENDBRANCH  14  16
ENDBRANCH   7  10
BRANCH   1  23
ATOM     23  S   UNL     1       6.557  -0.144  -0.059  0.00  0.00    -0.088 S 
BRANCH  23  24
ATOM     24  C   UNL     1       6.585  -1.958  -0.063  0.00  0.00    +0.172 C 
BRANCH  24  26
ATOM     25  N   UNL     1       8.279  -3.760  -0.095  0.00  0.00    -0.285 N 
ATOM     26  C   UNL     1       8.013  -2.439  -0.088  0.00  0.00    +0.227 C 
ATOM     27  O   UNL     1       8.923  -1.637  -0.102  0.00  0.00    -0.275 OA
ATOM     28  H   UNL     1       7.555  -4.401  -0.017  0.00  0.00    +0.155 HD
BRANCH  25  32
ATOM     29  C   UNL     1      12.210  -5.091  -0.455  0.00  0.00    -0.047 A 
ATOM     30  C   UNL     1      11.936  -3.932   0.247  0.00  0.00    +0.005 A 
ATOM     31  C   UNL     1      10.634  -3.488   0.368  0.00  0.00    +0.023 A 
ATOM     32  C   UNL     1       9.600  -4.207  -0.216  0.00  0.00    +0.033 A 
ATOM     33  C   UNL     1       9.878  -5.374  -0.916  0.00  0.00    +0.023 A 
ATOM     34  C   UNL     1      11.183  -5.809  -1.038  0.00  0.00    +0.005 A 
BRANCH  29  35
ATOM     35  C   UNL     1      13.633  -5.572  -0.586  0.00  0.00    +0.035 C 
BRANCH  35  36
ATOM     36  C   UNL     1      13.965  -6.504   0.582  0.00  0.00    +0.004 C 
BRANCH  36  38
ATOM     37  C   UNL     1      15.741  -7.925   1.616  0.00  0.00    +0.004 C 
ATOM     38  C   UNL     1      15.409  -6.993   0.449  0.00  0.00    -0.003 C 
ENDBRANCH  36  38
ENDBRANCH  35  36
ENDBRANCH  29  35
ENDBRANCH  25  32
ENDBRANCH  24  26
ENDBRANCH  23  24
ENDBRANCH   1  23
TORSDOF 9
