REMARK  Name = ZINC39594814
REMARK  10 active torsions:
REMARK  status: ('A' for Active; 'I' for Inactive)
REMARK    1  A    between atoms: C_1  and  C_2
REMARK    2  A    between atoms: C_5  and  C_37
REMARK    3  A    between atoms: N_8  and  S_10
REMARK    4  A    between atoms: S_10  and  C_13
REMARK    5  A    between atoms: C_17  and  C_19
REMARK    6  A    between atoms: C_19  and  O_21
REMARK    7  A    between atoms: O_21  and  C_22
REMARK    8  A    between atoms: C_22  and  C_24
REMARK    9  A    between atoms: C_22  and  C_30
REMARK   10  A    between atoms: N_35  and  C_36
REMARK                            x       y       z     vdW  Elec       q    Type
REMARK                         _______ _______ _______ _____ _____    ______ ____
ROOT
ATOM      1  C   UNL     1       0.130   5.143   2.836  0.00  0.00    +0.340 C 
ATOM      2  O   UNL     1      -0.688   4.530   3.492  0.00  0.00    -0.245 OA
ENDROOT
BRANCH   1   7
ATOM      3  C   UNL     1       2.629   2.448   2.067  0.00  0.00    +0.106 A 
ATOM      4  C   UNL     1       3.559   3.149   1.320  0.00  0.00    +0.028 A 
ATOM      5  C   UNL     1       3.377   4.496   1.064  0.00  0.00    +0.003 A 
ATOM      6  C   UNL     1       2.265   5.150   1.554  0.00  0.00    +0.015 A 
ATOM      7  C   UNL     1       1.323   4.449   2.308  0.00  0.00    +0.061 A 
ATOM      8  C   UNL     1       1.510   3.088   2.558  0.00  0.00    +0.043 A 
BRANCH   3   9
ATOM      9  S   UNL     1       2.871   0.732   2.387  0.00  0.00    +0.061 S 
ATOM     10  O   UNL     1       2.133   0.430   3.563  0.00  0.00    -0.153 OA
ATOM     11  O   UNL     1       4.268   0.492   2.281  0.00  0.00    -0.153 OA
BRANCH   9  17
ATOM     12  C   UNL     1      -0.019   1.526   0.010  0.00  0.00    +0.009 C 
ATOM     13  C   UNL     1       0.002  -0.004   0.002  0.00  0.00    +0.002 C 
ATOM     14  C   UNL     1       0.720  -0.498  -1.256  0.00  0.00    +0.009 C 
ATOM     15  C   UNL     1       2.145   0.059  -1.285  0.00  0.00    +0.002 C 
ATOM     16  C   UNL     1       2.912  -0.448  -0.060  0.00  0.00    +0.112 C 
ATOM     17  N   UNL     1       2.153  -0.103   1.150  0.00  0.00    -0.176 NA
ATOM     18  C   UNL     1       0.744  -0.512   1.242  0.00  0.00    +0.112 C 
ATOM     19  C   UNL     1       2.850  -0.408  -2.559  0.00  0.00    +0.009 C 
ENDBRANCH   9  17
ENDBRANCH   3   9
ENDBRANCH   1   7
BRANCH   1  20
ATOM     20  O   UNL     1      -0.050   6.455   2.589  0.00  0.00    -0.444 OA
BRANCH  20  21
ATOM     21  C   UNL     1      -1.226   7.061   3.130  0.00  0.00    +0.292 C 
BRANCH  21  22
ATOM     22  C   UNL     1      -1.664   8.192   2.236  0.00  0.00    +0.266 C 
ATOM     23  O   UNL     1      -1.032   8.454   1.235  0.00  0.00    -0.271 OA
ATOM     24  N   UNL     1      -2.759   8.914   2.550  0.00  0.00    -0.237 N 
ATOM     25  C   UNL     1      -3.150   9.926   1.750  0.00  0.00    +0.306 C 
ATOM     26  O   UNL     1      -2.517  10.188   0.747  0.00  0.00    -0.252 OA
ATOM     27  N   UNL     1      -4.245  10.647   2.064  0.00  0.00    -0.302 N 
ATOM     28  C   UNL     1      -4.671  11.747   1.195  0.00  0.00    +0.129 C 
ATOM     29  H   UNL     1      -3.264   8.704   3.350  0.00  0.00    +0.159 HD
ATOM     30  H   UNL     1      -4.750  10.438   2.865  0.00  0.00    +0.150 HD
ENDBRANCH  21  22
BRANCH  21  31
ATOM     31  C   UNL     1      -0.928   7.595   4.507  0.00  0.00    +0.002 A 
ATOM     32  C   UNL     1       0.278   8.222   4.759  0.00  0.00    +0.008 A 
ATOM     33  C   UNL     1       0.552   8.712   6.022  0.00  0.00    +0.000 A 
ATOM     34  C   UNL     1      -0.381   8.575   7.034  0.00  0.00    +0.000 A 
ATOM     35  C   UNL     1      -1.587   7.949   6.781  0.00  0.00    +0.000 A 
ATOM     36  C   UNL     1      -1.862   7.463   5.517  0.00  0.00    +0.008 A 
ENDBRANCH  21  31
ENDBRANCH  20  21
ENDBRANCH   1  20
TORSDOF 7
