REMARK  Name = ZINC04179985
REMARK  4 active torsions:
REMARK  status: ('A' for Active; 'I' for Inactive)
REMARK    1  A    between atoms: C_1  and  C_2
REMARK    2  A    between atoms: C_5  and  C_8
REMARK    3  A    between atoms: C_11  and  C_14
REMARK    4  A    between atoms: C_15  and  N_21
REMARK                            x       y       z     vdW  Elec       q    Type
REMARK                         _______ _______ _______ _____ _____    ______ ____
ROOT
ATOM      1  C   UNL     1      -2.343   3.054   9.067  0.00  0.00    +0.124 C 
ATOM      2  N   UNL     1      -2.882   3.804   9.981  0.00  0.00    -0.178 NA
ATOM      3  N   UNL     1      -4.113   4.404   9.835  0.00  0.00    -0.250 N 
ATOM      4  C   UNL     1      -4.804   4.126   8.556  0.00  0.00    +0.186 C 
ATOM      5  S   UNL     1      -3.553   3.040   7.753  0.00  0.00    -0.075 S 
ATOM      6  H   UNL     1      -4.502   4.965  10.525  0.00  0.00    +0.170 HD
ENDROOT
BRANCH   1  11
ATOM      7  C   UNL     1       2.747   0.374   9.227  0.00  0.00    +0.044 C 
ATOM      8  C   UNL     1       1.414   1.076   9.185  0.00  0.00    -0.050 A 
ATOM      9  C   UNL     1       0.606   0.952   8.069  0.00  0.00    +0.004 A 
ATOM     10  C   UNL     1      -0.618   1.588   8.026  0.00  0.00    +0.011 A 
ATOM     11  C   UNL     1      -1.035   2.365   9.108  0.00  0.00    +0.008 A 
ATOM     12  C   UNL     1      -0.212   2.490  10.228  0.00  0.00    +0.011 A 
ATOM     13  C   UNL     1       1.007   1.845  10.260  0.00  0.00    +0.004 A 
ENDBRANCH   1  11
BRANCH   4  14
ATOM     14  C   UNL     1      -5.021   5.390   7.765  0.00  0.00    +0.033 A 
ATOM     15  C   UNL     1      -6.163   5.540   7.001  0.00  0.00    +0.133 A 
ATOM     16  C   UNL     1      -6.365   6.701   6.279  0.00  0.00    +0.033 A 
ATOM     17  C   UNL     1      -5.420   7.710   6.313  0.00  0.00    +0.004 A 
ATOM     18  C   UNL     1      -4.274   7.559   7.072  0.00  0.00    +0.020 A 
ATOM     19  C   UNL     1      -4.074   6.398   7.798  0.00  0.00    +0.049 A 
ATOM     20 CL   UNL     1      -2.636   6.208   8.752  0.00  0.00    -0.083 Cl
BRANCH  15  21
ATOM     21  N   UNL     1      -7.173   4.458   6.960  0.00  0.00    +0.057 N 
ATOM     22  O   UNL     1      -8.359   4.733   6.968  0.00  0.00    -0.126 OA
ATOM     23  O   UNL     1      -6.817   3.294   6.917  0.00  0.00    -0.126 OA
ENDBRANCH  15  21
ENDBRANCH   4  14
TORSDOF 3
