REMARK  Name = ZINC23040474
REMARK  6 active torsions:
REMARK  status: ('A' for Active; 'I' for Inactive)
REMARK    1  A    between atoms: C_1  and  C_2
REMARK    2  A    between atoms: N_6  and  C_14
REMARK    3  A    between atoms: C_14  and  C_15
REMARK    4  A    between atoms: N_17  and  C_18
REMARK    5  A    between atoms: C_18  and  C_20
REMARK    6  A    between atoms: C_18  and  C_21
REMARK                            x       y       z     vdW  Elec       q    Type
REMARK                         _______ _______ _______ _____ _____    ______ ____
ROOT
ATOM      1  C   UNL     1      -3.295   3.304  -2.170  0.00  0.00    +0.062 C 
ATOM      2  C   UNL     1      -3.511   3.174  -0.661  0.00  0.00    +0.256 C 
ATOM      3  C   UNL     1      -3.572   1.715  -0.286  0.00  0.00    +0.261 C 
ATOM      4  O   UNL     1      -4.639   1.137  -0.261  0.00  0.00    -0.271 OA
ATOM      5  N   UNL     1      -2.435   1.054   0.021  0.00  0.00    -0.256 N 
ATOM      6  C   UNL     1      -1.220   1.754   0.017  0.00  0.00    +0.079 A 
ATOM      7  C   UNL     1      -0.013   1.076   0.008  0.00  0.00    +0.027 A 
ATOM      8  C   UNL     1       1.174   1.785   0.000  0.00  0.00    +0.002 A 
ATOM      9  C   UNL     1       1.158   3.168   0.008  0.00  0.00    +0.004 A 
ATOM     10  C   UNL     1      -0.045   3.851   0.022  0.00  0.00    +0.047 A 
ATOM     11  C   UNL     1      -1.236   3.148   0.029  0.00  0.00    +0.143 A 
ATOM     12  O   UNL     1      -2.428   3.803   0.040  0.00  0.00    -0.478 OA
ENDROOT
BRANCH   5  13
ATOM     13  C   UNL     1      -2.471  -0.373   0.352  0.00  0.00    +0.209 C 
BRANCH  13  14
ATOM     14  C   UNL     1      -2.666  -0.538   1.837  0.00  0.00    +0.231 C 
ATOM     15  O   UNL     1      -2.765   0.439   2.549  0.00  0.00    -0.274 OA
ATOM     16  N   UNL     1      -2.729  -1.773   2.375  0.00  0.00    -0.311 N 
ATOM     17  H   UNL     1      -2.639  -2.659   1.730  0.00  0.00    +0.149 HD
BRANCH  16  18
ATOM     18  C   UNL     1      -2.919  -1.934   3.819  0.00  0.00    +0.073 C 
ATOM     19  C   UNL     1      -4.412  -1.873   4.147  0.00  0.00    +0.028 C 
BRANCH  18  20
ATOM     20  C   UNL     1      -2.354  -3.286   4.259  0.00  0.00    +0.009 C 
ATOM     21  C   UNL     1      -3.351  -4.352   4.719  0.00  0.00    +0.005 C 
ATOM     22  C   UNL     1      -2.458  -3.645   5.743  0.00  0.00    +0.005 C 
ENDBRANCH  18  20
ENDBRANCH  16  18
ENDBRANCH  13  14
ENDBRANCH   5  13
TORSDOF 4
