REMARK  Name = ZINC36647989
REMARK  11 active torsions:
REMARK  status: ('A' for Active; 'I' for Inactive)
REMARK    1  A    between atoms: C_1  and  C_2
REMARK    2  A    between atoms: C_5  and  O_34
REMARK    3  A    between atoms: N_11  and  C_12
REMARK    4  A    between atoms: C_12  and  C_13
REMARK    5  A    between atoms: C_13  and  N_14
REMARK    6  A    between atoms: N_14  and  C_15
REMARK    7  A    between atoms: N_14  and  C_16
REMARK    8  A    between atoms: C_17  and  C_19
REMARK    9  A    between atoms: N_24  and  S_26
REMARK   10  A    between atoms: S_26  and  C_29
REMARK   11  A    between atoms: O_34  and  C_35
REMARK                            x       y       z     vdW  Elec       q    Type
REMARK                         _______ _______ _______ _____ _____    ______ ____
ROOT
ATOM      1  C   UNL     1      -0.555   1.442   0.022  0.00  0.00    +0.045 C 
ATOM      2  C   UNL     1      -0.530  -0.065   0.034  0.00  0.00    -0.034 A 
ATOM      3  C   UNL     1      -0.586  -0.770  -1.155  0.00  0.00    +0.008 A 
ATOM      4  C   UNL     1      -0.562  -2.156  -1.125  0.00  0.00    +0.048 A 
ATOM      5  C   UNL     1      -0.485  -2.847   0.062  0.00  0.00    +0.147 A 
ATOM      6  C   UNL     1      -0.427  -2.155   1.298  0.00  0.00    +0.122 A 
ATOM      7  C   UNL     1      -0.447  -0.745   1.224  0.00  0.00    +0.047 A 
ATOM      8  S   UNL     1      -0.351  -0.275   2.935  0.00  0.00    -0.051 S 
ATOM      9  C   UNL     1      -0.284  -1.926   3.618  0.00  0.00    +0.168 A 
ATOM     10  N   UNL     1      -0.350  -2.675   2.543  0.00  0.00    -0.221 NA
ATOM     11  N   UNL     1      -0.198  -2.315   4.945  0.00  0.00    -0.252 N 
ATOM     12  C   UNL     1      -0.025  -1.389   5.909  0.00  0.00    +0.226 C 
ATOM     13  O   UNL     1       0.152  -1.735   7.058  0.00  0.00    -0.275 OA
ENDROOT
BRANCH  12  14
ATOM     14  C   UNL     1      -0.052   0.077   5.559  0.00  0.00    +0.091 C 
ATOM     15  C   UNL     1       1.293   0.481   4.951  0.00  0.00    +0.015 C 
ATOM     16  C   UNL     1       1.255   1.962   4.565  0.00  0.00    +0.018 C 
ATOM     17  C   UNL     1       1.019   2.807   5.821  0.00  0.00    +0.109 C 
ATOM     18  N   UNL     1      -0.197   2.327   6.492  0.00  0.00    -0.175 NA
ATOM     19  C   UNL     1      -0.304   0.900   6.826  0.00  0.00    +0.122 C 
BRANCH  18  20
ATOM     20  S   UNL     1      -1.424   3.374   6.865  0.00  0.00    +0.067 S 
ATOM     21  O   UNL     1      -2.144   2.789   7.941  0.00  0.00    -0.152 OA
ATOM     22  O   UNL     1      -0.842   4.668   6.951  0.00  0.00    -0.152 OA
BRANCH  20  23
ATOM     23  C   UNL     1      -2.519   3.406   5.485  0.00  0.00    +0.143 A 
ATOM     24  C   UNL     1      -3.603   2.631   5.237  0.00  0.00    +0.036 A 
ATOM     25  C   UNL     1      -4.323   2.837   4.075  0.00  0.00    +0.010 A 
ATOM     26  C   UNL     1      -3.923   3.807   3.217  0.00  0.00    +0.047 A 
ATOM     27  S   UNL     1      -2.493   4.472   4.053  0.00  0.00    -0.077 S 
ENDBRANCH  20  23
ENDBRANCH  18  20
ENDBRANCH  12  14
BRANCH   5  28
ATOM     28  O   UNL     1      -0.466  -4.206   0.050  0.00  0.00    -0.493 OA
ATOM     29  C   UNL     1      -0.527  -4.844  -1.228  0.00  0.00    +0.277 C 
ENDBRANCH   5  28
BRANCH  11  30
ATOM     30  C   UNL     1      -0.295  -3.733   5.301  0.00  0.00    +0.097 C 
BRANCH  30  31
ATOM     31  C   UNL     1       1.082  -4.387   5.170  0.00  0.00    -0.060 C 
BRANCH  31  32
ATOM     32  N   UNL     1       0.985  -5.809   5.526  0.00  0.00    +0.377 N 
ATOM     33  C   UNL     1       2.278  -6.463   5.286  0.00  0.00    -0.097 C 
ATOM     34  C   UNL     1       0.628  -5.934   6.946  0.00  0.00    -0.097 C 
ATOM     35  H   UNL     1       0.275  -6.249   4.961  0.00  0.00    -0.083 HD
ENDBRANCH  31  32
ENDBRANCH  30  31
ENDBRANCH  11  30
TORSDOF 7
