REMARK  Name = ZINC20513344
REMARK  2 active torsions:
REMARK  status: ('A' for Active; 'I' for Inactive)
REMARK    1  A    between atoms: C_8  and  C_17
REMARK    2  A    between atoms: N_19  and  C_20
REMARK                            x       y       z     vdW  Elec       q    Type
REMARK                         _______ _______ _______ _____ _____    ______ ____
ROOT
ATOM      1  C   UNL     1       1.803  -3.080   0.284  0.00  0.00    +0.000 A 
ATOM      2  C   UNL     1       2.119  -3.464   1.575  0.00  0.00    +0.002 A 
ATOM      3  C   UNL     1       2.408  -2.516   2.533  0.00  0.00    +0.023 A 
ATOM      4  C   UNL     1       2.385  -1.161   2.208  0.00  0.00    +0.036 A 
ATOM      5  C   UNL     1       2.066  -0.787   0.907  0.00  0.00    -0.027 A 
ATOM      6  C   UNL     1       1.778  -1.737  -0.047  0.00  0.00    +0.004 A 
ATOM      7  C   UNL     1       2.128   0.717   0.880  0.00  0.00    +0.052 C 
ATOM      8  C   UNL     1       0.763   1.312   0.499  0.00  0.00    +0.076 C 
ATOM      9  C   UNL     1       1.151   2.545  -0.360  0.00  0.00    -0.003 C 
ATOM     10  C   UNL     1       2.414   2.034  -1.094  0.00  0.00    -0.066 C 
ATOM     11  N   UNL     1       3.120   1.192  -0.092  0.00  0.00    +0.394 N 
ATOM     12  C   UNL     1       4.093   2.089   0.580  0.00  0.00    -0.077 C 
ATOM     13  C   UNL     1       4.600   3.002  -0.563  0.00  0.00    -0.020 C 
ATOM     14  C   UNL     1       3.330   3.225  -1.415  0.00  0.00    -0.017 C 
ATOM     15  C   UNL     1       2.508   1.110   2.285  0.00  0.00    +0.212 C 
ATOM     16  O   UNL     1       2.667   2.238   2.702  0.00  0.00    -0.277 OA
ATOM     17  N   UNL     1       2.637  -0.031   2.987  0.00  0.00    -0.286 N 
ATOM     18  H   UNL     1       2.905  -0.143   4.048  0.00  0.00    +0.155 HD
ATOM     19  H   UNL     1       3.620   0.318  -0.535  0.00  0.00    -0.079 HD
ENDROOT
BRANCH   8  20
ATOM     20  C   UNL     1       0.002   1.732   1.730  0.00  0.00    +0.220 C 
ATOM     21  O   UNL     1       0.149   2.848   2.182  0.00  0.00    -0.275 OA
ATOM     22  N   UNL     1      -0.842   0.868   2.328  0.00  0.00    -0.282 N 
ATOM     23  H   UNL     1      -0.904  -0.172   1.977  0.00  0.00    +0.155 HD
BRANCH  22  24
ATOM     24  C   UNL     1      -1.641   1.296   3.398  0.00  0.00    +0.083 A 
ATOM     25  C   UNL     1      -2.668   2.207   3.179  0.00  0.00    +0.148 A 
ATOM     26  C   UNL     1      -3.455   2.626   4.236  0.00  0.00    +0.078 A 
ATOM     27  C   UNL     1      -3.219   2.140   5.511  0.00  0.00    +0.127 A 
ATOM     28  C   UNL     1      -2.196   1.233   5.731  0.00  0.00    +0.055 A 
ATOM     29  C   UNL     1      -1.411   0.807   4.677  0.00  0.00    +0.045 A 
ATOM     30 BR   UNL     1      -0.019  -0.438   4.977  0.00  0.00    -0.048 Br
ATOM     31  F   UNL     1      -3.989   2.551   6.543  0.00  0.00    -0.205 F 
ATOM     32  F   UNL     1      -2.898   2.681   1.935  0.00  0.00    -0.203 F 
ENDBRANCH  22  24
ENDBRANCH   8  20
TORSDOF 2
