REMARK  Name = ZINC09008567
REMARK  11 active torsions:
REMARK  status: ('A' for Active; 'I' for Inactive)
REMARK    1  A    between atoms: C_1  and  C_2
REMARK    2  A    between atoms: C_2  and  N_60
REMARK    3  A    between atoms: C_3  and  C_4
REMARK    4  A    between atoms: C_3  and  N_60
REMARK    5  A    between atoms: C_5  and  C_6
REMARK    6  A    between atoms: C_5  and  N_60
REMARK    7  A    between atoms: C_6  and  C_7
REMARK    8  A    between atoms: C_7  and  N_8
REMARK    9  A    between atoms: C_9  and  C_27
REMARK   10  A    between atoms: C_12  and  C_13
REMARK   11  A    between atoms: C_12  and  O_22
REMARK                            x       y       z     vdW  Elec       q    Type
REMARK                         _______ _______ _______ _____ _____    ______ ____
ROOT
ATOM      1  N   UNL     1       1.597  -0.212  -1.187  0.00  0.00    -0.284 N 
ATOM      2  C   UNL     1       0.187   0.069  -0.900  0.00  0.00    +0.147 C 
ATOM      3  C   UNL     1       0.048   1.573  -0.856  0.00  0.00    +0.074 C 
ATOM      4  C   UNL     1      -1.111   2.295  -0.621  0.00  0.00    +0.168 C 
ATOM      5  C   UNL     1       1.324   2.091  -1.108  0.00  0.00    +0.249 C 
ATOM      6  O   UNL     1       1.619   3.272  -1.156  0.00  0.00    -0.282 OA
ATOM      7  C   UNL     1       2.258   0.951  -1.308  0.00  0.00    +0.288 C 
ATOM      8  O   UNL     1       3.444   1.056  -1.546  0.00  0.00    -0.266 OA
ENDROOT
BRANCH   4   9
ATOM      9  C   UNL     1      -1.056   3.752  -0.512  0.00  0.00    +0.171 A 
ATOM     10  C   UNL     1      -1.886   4.622  -1.155  0.00  0.00    +0.061 A 
ATOM     11  C   UNL     1      -1.488   5.927  -0.772  0.00  0.00    +0.021 A 
ATOM     12  C   UNL     1      -1.946   7.211  -1.091  0.00  0.00    +0.011 A 
ATOM     13  C   UNL     1      -1.336   8.303  -0.545  0.00  0.00    +0.001 A 
ATOM     14  C   UNL     1      -0.265   8.150   0.326  0.00  0.00    +0.004 A 
ATOM     15  C   UNL     1       0.201   6.895   0.654  0.00  0.00    +0.047 A 
ATOM     16  C   UNL     1      -0.403   5.769   0.110  0.00  0.00    +0.136 A 
ATOM     17  O   UNL     1      -0.178   4.446   0.245  0.00  0.00    -0.452 OA
ENDBRANCH   4   9
BRANCH   2  18
ATOM     18  C   UNL     1      -0.685  -0.499  -1.990  0.00  0.00    +0.013 A 
ATOM     19  C   UNL     1      -1.153   0.322  -2.999  0.00  0.00    +0.008 A 
ATOM     20  C   UNL     1      -1.953  -0.198  -3.999  0.00  0.00    +0.001 A 
ATOM     21  C   UNL     1      -2.285  -1.541  -3.992  0.00  0.00    +0.003 A 
ATOM     22  C   UNL     1      -1.817  -2.363  -2.985  0.00  0.00    +0.039 A 
ATOM     23  C   UNL     1      -1.013  -1.844  -1.985  0.00  0.00    +0.129 A 
ATOM     24  F   UNL     1      -0.551  -2.648  -1.003  0.00  0.00    -0.205 F 
ENDBRANCH   2  18
BRANCH   4  25
ATOM     25  O   UNL     1      -2.293   1.652  -0.490  0.00  0.00    -0.503 OA
ATOM     26  H   UNL     1      -3.019   2.319  -0.325  0.00  0.00    +0.292 HD
ENDBRANCH   4  25
BRANCH   1  27
ATOM     27  C   UNL     1       2.189  -1.546  -1.320  0.00  0.00    +0.107 C 
BRANCH  27  28
ATOM     28  C   UNL     1       2.232  -1.940  -2.798  0.00  0.00    +0.000 C 
BRANCH  28  29
ATOM     29  C   UNL     1       2.962  -3.276  -2.948  0.00  0.00    -0.077 C 
BRANCH  29  30
ATOM     30  N   UNL     1       2.977  -3.654  -4.377  0.00  0.00    +0.379 N 
ATOM     31  H   UNL     1       2.019  -3.606  -4.744  0.00  0.00    -0.082 HD
BRANCH  30  33
ATOM     32  C   UNL     1       5.285  -2.820  -4.678  0.00  0.00    -0.017 C 
ATOM     33  C   UNL     1       3.829  -2.717  -5.138  0.00  0.00    -0.082 C 
ENDBRANCH  30  33
BRANCH  30  34
ATOM     34  C   UNL     1       3.482  -5.034  -4.530  0.00  0.00    -0.082 C 
ATOM     35  C   UNL     1       3.307  -5.466  -5.987  0.00  0.00    -0.017 C 
ENDBRANCH  30  34
ENDBRANCH  29  30
ENDBRANCH  28  29
ENDBRANCH  27  28
ENDBRANCH   1  27
TORSDOF 9
