REMARK  Name = ZINC59108800
REMARK  8 active torsions:
REMARK  status: ('A' for Active; 'I' for Inactive)
REMARK    1  A    between atoms: C_4  and  C_7
REMARK    2  A    between atoms: C_7  and  C_8
REMARK    3  A    between atoms: C_8  and  N_9
REMARK    4  A    between atoms: C_10  and  C_12
REMARK    5  A    between atoms: C_12  and  C_13
REMARK    6  A    between atoms: N_17  and  C_29
REMARK    7  A    between atoms: N_20  and  N_21
REMARK    8  A    between atoms: C_22  and  C_24
REMARK                            x       y       z     vdW  Elec       q    Type
REMARK                         _______ _______ _______ _____ _____    ______ ____
ROOT
ATOM      1  C   UNL     1       7.794  -3.046   4.089  0.00  0.00    +0.191 C 
ATOM      2  C   UNL     1       9.075  -3.850   4.198  0.00  0.00    +0.248 C 
ATOM      3  O   UNL     1       9.217  -5.034   3.983  0.00  0.00    -0.273 OA
ATOM      4  N   UNL     1      10.023  -2.973   4.584  0.00  0.00    -0.219 N 
ATOM      5  C   UNL     1       9.524  -1.740   4.732  0.00  0.00    +0.164 C 
ATOM      6  S   UNL     1      10.457  -0.388   5.214  0.00  0.00    -0.016 S 
ATOM      7  N   UNL     1       8.204  -1.682   4.462  0.00  0.00    -0.218 N 
ENDROOT
BRANCH   4   8
ATOM      8  C   UNL     1      11.366  -3.311   4.805  0.00  0.00    +0.043 A 
ATOM      9  C   UNL     1      12.171  -3.689   3.739  0.00  0.00    +0.025 A 
ATOM     10  C   UNL     1      13.493  -4.022   3.958  0.00  0.00    +0.022 A 
ATOM     11  C   UNL     1      14.016  -3.979   5.239  0.00  0.00    +0.041 A 
ATOM     12  C   UNL     1      13.215  -3.602   6.303  0.00  0.00    +0.022 A 
ATOM     13  C   UNL     1      11.893  -3.263   6.088  0.00  0.00    +0.025 A 
ATOM     14 CL   UNL     1      15.678  -4.397   5.512  0.00  0.00    -0.084 Cl
ENDBRANCH   4   8
BRANCH   7  15
ATOM     15  N   UNL     1       7.383  -0.548   4.522  0.00  0.00    -0.227 N 
ATOM     16  C   UNL     1       6.993  -0.061   5.716  0.00  0.00    +0.267 C 
ATOM     17  O   UNL     1       7.353  -0.607   6.743  0.00  0.00    -0.268 OA
ATOM     18  H   UNL     1       7.096  -0.113   3.703  0.00  0.00    +0.173 HD
BRANCH  16  19
ATOM     19  C   UNL     1       6.134   1.125   5.779  0.00  0.00    +0.075 A 
ATOM     20  C   UNL     1       5.630   1.782   6.891  0.00  0.00    +0.021 A 
ATOM     21  C   UNL     1       4.844   2.879   6.632  0.00  0.00    +0.008 A 
ATOM     22  C   UNL     1       4.619   3.239   5.344  0.00  0.00    +0.046 A 
ATOM     23  S   UNL     1       5.471   2.104   4.444  0.00  0.00    -0.092 S 
ENDBRANCH  16  19
ENDBRANCH   7  15
BRANCH   1  24
ATOM     24  C   UNL     1       7.262  -3.075   2.655  0.00  0.00    +0.129 C 
BRANCH  24  26
ATOM     25  N   UNL     1       5.317  -2.189   1.409  0.00  0.00    -0.315 N 
ATOM     26  C   UNL     1       5.971  -2.300   2.582  0.00  0.00    +0.215 C 
ATOM     27  O   UNL     1       5.521  -1.777   3.579  0.00  0.00    -0.276 OA
ATOM     28  H   UNL     1       5.676  -2.608   0.612  0.00  0.00    +0.149 HD
BRANCH  25  29
ATOM     29  C   UNL     1       4.062  -1.436   1.339  0.00  0.00    +0.109 C 
BRANCH  29  30
ATOM     30  C   UNL     1       3.530  -1.465  -0.095  0.00  0.00    +0.054 C 
BRANCH  30  34
ATOM     31  C   UNL     1      -0.128   0.731  -0.303  0.00  0.00    +0.000 A 
ATOM     32  C   UNL     1       1.077   1.374  -0.516  0.00  0.00    +0.000 A 
ATOM     33  C   UNL     1       2.260   0.663  -0.449  0.00  0.00    +0.004 A 
ATOM     34  C   UNL     1       2.239  -0.690  -0.168  0.00  0.00    -0.046 A 
ATOM     35  C   UNL     1       1.034  -1.333   0.046  0.00  0.00    +0.004 A 
ATOM     36  C   UNL     1      -0.150  -0.623  -0.023  0.00  0.00    +0.000 A 
ENDBRANCH  30  34
ENDBRANCH  29  30
ENDBRANCH  25  29
ENDBRANCH  24  26
ENDBRANCH   1  24
TORSDOF 8
