REMARK  Name = ZINC43250339
REMARK  7 active torsions:
REMARK  status: ('A' for Active; 'I' for Inactive)
REMARK    1  A    between atoms: C_1  and  C_2
REMARK    2  A    between atoms: C_6  and  C_7
REMARK    3  A    between atoms: C_7  and  C_9
REMARK    4  A    between atoms: C_7  and  O_13
REMARK    5  A    between atoms: C_9  and  C_11
REMARK    6  A    between atoms: C_9  and  N_12
REMARK    7  A    between atoms: O_13  and  C_14
REMARK                            x       y       z     vdW  Elec       q    Type
REMARK                         _______ _______ _______ _____ _____    ______ ____
ROOT
ATOM      1  C   UNL     1       0.003  -0.166   2.561  0.00  0.00    +0.196 C 
ENDROOT
BRANCH   1   7
ATOM      2  C   UNL     1      -0.155   1.682   0.113  0.00  0.00    +0.045 C 
ATOM      3  C   UNL     1      -0.203   0.180   0.008  0.00  0.00    -0.037 A 
ATOM      4  C   UNL     1      -0.316  -0.434  -1.225  0.00  0.00    +0.011 A 
ATOM      5  C   UNL     1      -0.356  -1.788  -1.284  0.00  0.00    +0.046 A 
ATOM      6  S   UNL     1      -0.232  -2.237   0.439  0.00  0.00    -0.098 S 
ATOM      7  C   UNL     1      -0.129  -0.590   1.121  0.00  0.00    +0.031 A 
ENDBRANCH   1   7
BRANCH   1   8
ATOM      8  C   UNL     1       1.435  -0.418   3.038  0.00  0.00    -0.032 C 
ATOM      9  C   UNL     1       2.408   0.390   2.176  0.00  0.00    -0.010 C 
BRANCH   8  10
ATOM     10  N   UNL     1       1.564  -0.005   4.441  0.00  0.00    +0.382 N 
ATOM     11  H   UNL     1       0.922  -0.537   5.009  0.00  0.00    -0.089 HD
ATOM     12  H   UNL     1       2.509  -0.170   4.755  0.00  0.00    -0.089 HD
ATOM     13  H   UNL     1       1.350   0.978   4.524  0.00  0.00    -0.089 HD
ENDBRANCH   8  10
ENDBRANCH   1   8
BRANCH   1  14
ATOM     14  O   UNL     1      -0.906  -0.921   3.365  0.00  0.00    -0.484 OA
BRANCH  14  15
ATOM     15  C   UNL     1      -1.418  -0.304   4.463  0.00  0.00    +0.134 A 
ATOM     16  C   UNL     1      -1.109   1.024   4.721  0.00  0.00    +0.047 A 
ATOM     17  C   UNL     1      -1.630   1.649   5.837  0.00  0.00    +0.004 A 
ATOM     18  C   UNL     1      -2.459   0.953   6.697  0.00  0.00    +0.001 A 
ATOM     19  C   UNL     1      -2.769  -0.370   6.443  0.00  0.00    +0.018 A 
ATOM     20  C   UNL     1      -2.255  -0.999   5.324  0.00  0.00    +0.055 A 
ATOM     21  I   UNL     1      -2.731  -3.001   4.934  0.00  0.00    -0.040 I 
ENDBRANCH  14  15
ENDBRANCH   1  14
TORSDOF 5
