REMARK  Name = ZINC13056807
REMARK  9 active torsions:
REMARK  status: ('A' for Active; 'I' for Inactive)
REMARK    1  A    between atoms: C_1  and  C_2
REMARK    2  A    between atoms: C_2  and  N_3
REMARK    3  A    between atoms: N_3  and  C_4
REMARK    4  A    between atoms: C_4  and  C_5
REMARK    5  A    between atoms: C_6  and  C_8
REMARK    6  A    between atoms: C_9  and  C_31
REMARK    7  A    between atoms: N_10  and  C_24
REMARK    8  A    between atoms: C_14  and  C_16
REMARK    9  A    between atoms: C_24  and  C_25
REMARK                            x       y       z     vdW  Elec       q    Type
REMARK                         _______ _______ _______ _____ _____    ______ ____
ROOT
ATOM      1  C   UNL     1      -1.037  -0.429   0.462  0.00  0.00    +0.056 C 
ATOM      2  C   UNL     1       0.235  -0.012   0.630  0.00  0.00    +0.022 C 
ATOM      3  N   UNL     1       1.289  -0.847   0.385  0.00  0.00    -0.255 N 
ATOM      4  C   UNL     1       1.153  -2.111  -0.035  0.00  0.00    +0.307 C 
ATOM      5  O   UNL     1       2.151  -2.778  -0.225  0.00  0.00    -0.252 OA
ATOM      6  N   UNL     1      -0.055  -2.668  -0.252  0.00  0.00    -0.288 N 
ATOM      7  C   UNL     1      -1.257  -1.849  -0.017  0.00  0.00    +0.144 C 
ATOM      8  C   UNL     1       0.498   1.395   1.101  0.00  0.00    +0.061 C 
ATOM      9  H   UNL     1      -0.131  -3.586  -0.556  0.00  0.00    +0.151 HD
ENDROOT
BRANCH   7  10
ATOM     10  C   UNL     1      -2.105  -2.554   1.010  0.00  0.00    +0.013 A 
ATOM     11  C   UNL     1      -1.513  -3.381   1.947  0.00  0.00    +0.011 A 
ATOM     12  C   UNL     1      -2.289  -4.027   2.889  0.00  0.00    +0.039 A 
ATOM     13  C   UNL     1      -3.663  -3.848   2.896  0.00  0.00    +0.126 A 
ATOM     14  C   UNL     1      -4.257  -3.021   1.959  0.00  0.00    +0.077 A 
ATOM     15  C   UNL     1      -3.477  -2.369   1.019  0.00  0.00    +0.131 A 
ATOM     16  F   UNL     1      -4.056  -1.558   0.106  0.00  0.00    -0.205 F 
ATOM     17  F   UNL     1      -4.422  -4.481   3.817  0.00  0.00    -0.205 F 
ENDBRANCH   7  10
BRANCH   1  19
ATOM     18  N   UNL     1      -2.512   1.336  -0.204  0.00  0.00    -0.298 N 
ATOM     19  C   UNL     1      -2.131   0.434   0.722  0.00  0.00    +0.246 C 
ATOM     20  O   UNL     1      -2.726   0.360   1.781  0.00  0.00    -0.270 OA
BRANCH  18  22
ATOM     21  C   UNL     1      -2.961   3.560   0.710  0.00  0.00    +0.024 C 
ATOM     22  C   UNL     1      -3.574   2.297   0.103  0.00  0.00    +0.104 C 
ENDBRANCH  18  22
BRANCH  18  23
ATOM     23  C   UNL     1      -1.863   1.356  -1.518  0.00  0.00    +0.104 C 
ATOM     24  C   UNL     1      -2.692   0.537  -2.509  0.00  0.00    +0.024 C 
ENDBRANCH  18  23
ENDBRANCH   1  19
BRANCH   3  25
ATOM     25  C   UNL     1       2.644  -0.329   0.593  0.00  0.00    +0.150 C 
BRANCH  25  26
ATOM     26  C   UNL     1       3.083  -0.624   2.004  0.00  0.00    -0.030 A 
ATOM     27  C   UNL     1       2.834   0.290   3.011  0.00  0.00    +0.005 A 
ATOM     28  C   UNL     1       3.232   0.017   4.306  0.00  0.00    +0.000 A 
ATOM     29  C   UNL     1       3.888  -1.165   4.593  0.00  0.00    +0.000 A 
ATOM     30  C   UNL     1       4.142  -2.077   3.585  0.00  0.00    +0.000 A 
ATOM     31  C   UNL     1       3.739  -1.806   2.291  0.00  0.00    +0.005 A 
ENDBRANCH  25  26
ENDBRANCH   3  25
TORSDOF 6
