REMARK  Name = ZINC05818497
REMARK  8 active torsions:
REMARK  status: ('A' for Active; 'I' for Inactive)
REMARK    1  A    between atoms: C_1  and  C_2
REMARK    2  A    between atoms: C_6  and  C_8
REMARK    3  A    between atoms: C_8  and  O_9
REMARK    4  A    between atoms: O_9  and  C_10
REMARK    5  A    between atoms: C_14  and  C_16
REMARK    6  A    between atoms: C_19  and  C_30
REMARK    7  A    between atoms: C_25  and  N_29
REMARK    8  A    between atoms: C_26  and  C_27
REMARK                            x       y       z     vdW  Elec       q    Type
REMARK                         _______ _______ _______ _____ _____    ______ ____
ROOT
ATOM      1  C   UNL     1      -1.349   2.136   0.020  0.00  0.00    +0.101 C 
ATOM      2  C   UNL     1      -1.105   3.591   0.333  0.00  0.00    +0.049 A 
ATOM      3  C   UNL     1      -2.015   4.583   0.672  0.00  0.00    +0.068 A 
ATOM      4  N   UNL     1      -1.351   5.702   0.847  0.00  0.00    -0.176 NA
ATOM      5  N   UNL     1       0.011   5.449   0.623  0.00  0.00    -0.246 N 
ATOM      6  H   UNL     1       0.744   6.263   0.719  0.00  0.00    +0.192 HD
ATOM      7  C   UNL     1       0.143   4.150   0.310  0.00  0.00    +0.222 A 
ATOM      8  O   UNL     1       1.259   3.439   0.012  0.00  0.00    -0.423 OA
ATOM      9  C   UNL     1       1.158   2.095   0.002  0.00  0.00    +0.200 C 
ATOM     10  C   UNL     1      -0.017   1.428   0.010  0.00  0.00    +0.098 C 
ATOM     11  C   UNL     1      -3.504   4.406   0.814  0.00  0.00    +0.068 C 
ENDROOT
BRANCH   1  16
ATOM     12  C   UNL     1      -3.840   1.267  -2.686  0.00  0.00    +0.121 A 
ATOM     13  C   UNL     1      -3.205   1.767  -3.813  0.00  0.00    +0.045 A 
ATOM     14  C   UNL     1      -1.974   2.383  -3.696  0.00  0.00    +0.004 A 
ATOM     15  C   UNL     1      -1.377   2.507  -2.455  0.00  0.00    +0.005 A 
ATOM     16  C   UNL     1      -2.005   2.005  -1.330  0.00  0.00    -0.031 A 
ATOM     17  C   UNL     1      -3.236   1.387  -1.442  0.00  0.00    +0.050 A 
BRANCH  12  18
ATOM     18  O   UNL     1      -5.050   0.660  -2.799  0.00  0.00    -0.487 OA
BRANCH  18  19
ATOM     19  C   UNL     1      -5.612   0.571  -4.110  0.00  0.00    +0.264 C 
BRANCH  19  25
ATOM     20  C   UNL     1     -10.583   0.765  -3.568  0.00  0.00    +0.044 C 
ATOM     21  C   UNL     1      -9.323  -0.035  -3.780  0.00  0.00    -0.050 A 
ATOM     22  C   UNL     1      -9.391  -1.409  -3.910  0.00  0.00    +0.003 A 
ATOM     23  C   UNL     1      -8.236  -2.143  -4.105  0.00  0.00    +0.001 A 
ATOM     24  C   UNL     1      -7.013  -1.501  -4.174  0.00  0.00    +0.007 A 
ATOM     25  C   UNL     1      -6.945  -0.128  -4.039  0.00  0.00    -0.010 A 
ATOM     26  C   UNL     1      -8.101   0.606  -3.845  0.00  0.00    +0.010 A 
ENDBRANCH  19  25
ENDBRANCH  18  19
ENDBRANCH  12  18
ENDBRANCH   1  16
BRANCH   9  27
ATOM     27  N   UNL     1       2.318   1.360  -0.017  0.00  0.00    -0.328 N 
ATOM     28  H   UNL     1       2.272   0.261  -0.026  0.00  0.00    +0.145 HD
ATOM     29  H   UNL     1       3.292   1.870  -0.024  0.00  0.00    +0.145 HD
ENDBRANCH   9  27
BRANCH  10  30
ATOM     30  C   UNL     1       0.002  -0.004   0.002  0.00  0.00    +0.101 C 
ATOM     31  N   UNL     1       0.018  -1.140  -0.004  0.00  0.00    -0.191 NA
ENDBRANCH  10  30
TORSDOF 6
