REMARK  Name = ZINC13130498
REMARK  5 active torsions:
REMARK  status: ('A' for Active; 'I' for Inactive)
REMARK    1  A    between atoms: C_1  and  C_2
REMARK    2  A    between atoms: C_5  and  S_9
REMARK    3  A    between atoms: C_7  and  C_8
REMARK    4  A    between atoms: S_9  and  N_12
REMARK    5  A    between atoms: N_12  and  N_13
REMARK                            x       y       z     vdW  Elec       q    Type
REMARK                         _______ _______ _______ _____ _____    ______ ____
ROOT
ATOM      1  N   UNL     1       1.651  -4.999  -0.034  0.00  0.00    +0.007 NA
ENDROOT
BRANCH   1   2
ATOM      2  N   UNL     1       1.953  -6.253  -0.043  0.00  0.00    -0.136 NA
ATOM      3  C   UNL     1       3.212  -6.625  -0.052  0.00  0.00    +0.156 C 
ATOM      4  C   UNL     1       3.744  -8.008  -0.068  0.00  0.00    +0.028 A 
ATOM      5  C   UNL     1       3.141  -9.261  -0.078  0.00  0.00    +0.012 A 
ATOM      6  C   UNL     1       3.924 -10.398  -0.092  0.00  0.00    +0.001 A 
ATOM      7  C   UNL     1       5.304 -10.290  -0.098  0.00  0.00    +0.002 A 
ATOM      8  C   UNL     1       5.913  -9.051  -0.088  0.00  0.00    +0.024 A 
ATOM      9  C   UNL     1       5.140  -7.894  -0.074  0.00  0.00    +0.043 A 
ATOM     10  N   UNL     1       5.490  -6.549  -0.062  0.00  0.00    -0.280 N 
ATOM     11  C   UNL     1       4.403  -5.759  -0.054  0.00  0.00    +0.269 C 
ATOM     12  O   UNL     1       4.403  -4.541  -0.047  0.00  0.00    -0.268 OA
ATOM     13  H   UNL     1       6.404  -6.222  -0.062  0.00  0.00    +0.155 HD
ENDBRANCH   1   2
BRANCH   1  14
ATOM     14  S   UNL     1       0.063  -4.530  -0.023  0.00  0.00    +0.108 S 
ATOM     15  O   UNL     1      -0.476  -4.950   1.223  0.00  0.00    -0.147 OA
ATOM     16  O   UNL     1      -0.490  -4.937  -1.267  0.00  0.00    -0.147 OA
BRANCH  14  21
ATOM     17  C   UNL     1      -0.018   1.503   0.010  0.00  0.00    +0.044 C 
ATOM     18  C   UNL     1       0.002  -0.004   0.002  0.00  0.00    -0.047 A 
ATOM     19  C   UNL     1       0.006  -0.689  -1.199  0.00  0.00    +0.005 A 
ATOM     20  C   UNL     1       0.025  -2.071  -1.207  0.00  0.00    +0.029 A 
ATOM     21  C   UNL     1       0.040  -2.768  -0.013  0.00  0.00    +0.112 A 
ATOM     22  C   UNL     1       0.037  -2.084   1.188  0.00  0.00    +0.032 A 
ATOM     23  C   UNL     1       0.023  -0.702   1.195  0.00  0.00    -0.046 A 
ATOM     24  C   UNL     1       0.025   0.045   2.504  0.00  0.00    +0.044 C 
ENDBRANCH  14  21
ENDBRANCH   1  14
TORSDOF 3
