REMARK  Name = ZINC58201203
REMARK  6 active torsions:
REMARK  status: ('A' for Active; 'I' for Inactive)
REMARK    1  A    between atoms: C_1  and  C_2
REMARK    2  A    between atoms: C_5  and  C_8
REMARK    3  A    between atoms: C_5  and  N_9
REMARK    4  A    between atoms: C_10  and  C_12
REMARK    5  A    between atoms: C_12  and  C_13
REMARK    6  A    between atoms: N_22  and  C_24
REMARK                            x       y       z     vdW  Elec       q    Type
REMARK                         _______ _______ _______ _____ _____    ______ ____
ROOT
ATOM      1  C   UNL     1      -1.587  -1.938   4.907  0.00  0.00    +0.153 C 
ENDROOT
BRANCH   1   2
ATOM      2  C   UNL     1      -0.858  -2.437   6.128  0.00  0.00    +0.078 A 
ATOM      3  C   UNL     1      -1.354  -2.102   7.463  0.00  0.00    +0.011 A 
ATOM      4  C   UNL     1      -2.498  -1.324   7.651  0.00  0.00    +0.010 A 
ATOM      5  C   UNL     1      -2.921  -1.039   8.919  0.00  0.00    +0.001 A 
ATOM      6  C   UNL     1      -2.228  -1.512  10.026  0.00  0.00    +0.001 A 
ATOM      7  C   UNL     1      -1.096  -2.282   9.871  0.00  0.00    +0.014 A 
ATOM      8  C   UNL     1      -0.646  -2.587   8.587  0.00  0.00    +0.050 A 
ATOM      9  C   UNL     1       0.552  -3.402   8.356  0.00  0.00    +0.275 A 
ATOM     10  O   UNL     1       1.194  -3.842   9.293  0.00  0.00    -0.266 OA
ATOM     11  N   UNL     1       0.928  -3.656   7.085  0.00  0.00    -0.232 N 
ATOM     12  N   UNL     1       0.207  -3.169   5.995  0.00  0.00    -0.172 NA
ATOM     13  C   UNL     1       2.123  -4.470   6.844  0.00  0.00    +0.176 C 
ENDBRANCH   1   2
BRANCH   1  15
ATOM     14  N   UNL     1      -1.358  -2.098   2.449  0.00  0.00    -0.310 N 
ATOM     15  C   UNL     1      -0.882  -2.424   3.667  0.00  0.00    +0.219 C 
ATOM     16  O   UNL     1       0.115  -3.108   3.765  0.00  0.00    -0.275 OA
ATOM     17  H   UNL     1      -2.155  -1.550   2.371  0.00  0.00    +0.149 HD
BRANCH  14  22
ATOM     18  C   UNL     1      -0.019   1.526   0.010  0.00  0.00    +0.007 C 
ATOM     19  C   UNL     1       0.002  -0.004   0.002  0.00  0.00    -0.014 C 
ATOM     20  C   UNL     1      -1.433  -0.534   0.013  0.00  0.00    +0.005 C 
ATOM     21  C   UNL     1      -1.413  -2.063   0.004  0.00  0.00    +0.026 C 
ATOM     22  C   UNL     1      -0.673  -2.570   1.244  0.00  0.00    +0.032 C 
ATOM     23  C   UNL     1       0.763  -2.041   1.233  0.00  0.00    +0.026 C 
ATOM     24  C   UNL     1       0.742  -0.511   1.242  0.00  0.00    +0.005 C 
ATOM     25  C   UNL     1      -0.652  -4.100   1.236  0.00  0.00    +0.031 C 
ENDBRANCH  14  22
ENDBRANCH   1  15
TORSDOF 3
