REMARK  Name = ZINC44904561
REMARK  10 active torsions:
REMARK  status: ('A' for Active; 'I' for Inactive)
REMARK    1  A    between atoms: C_1  and  C_2
REMARK    2  A    between atoms: C_5  and  N_33
REMARK    3  A    between atoms: C_7  and  N_8
REMARK    4  A    between atoms: N_8  and  C_9
REMARK    5  A    between atoms: N_8  and  S_29
REMARK    6  A    between atoms: C_9  and  C_10
REMARK    7  A    between atoms: N_12  and  C_13
REMARK    8  A    between atoms: C_16  and  S_19
REMARK    9  A    between atoms: S_19  and  N_22
REMARK   10  A    between atoms: S_29  and  C_32
REMARK                            x       y       z     vdW  Elec       q    Type
REMARK                         _______ _______ _______ _____ _____    ______ ____
ROOT
ATOM      1  C   UNL     1       1.275   1.787   3.263  0.00  0.00    +0.236 C 
ATOM      2  O   UNL     1       0.625   2.472   2.501  0.00  0.00    -0.274 OA
ATOM      3  N   UNL     1       2.293   2.333   3.958  0.00  0.00    -0.284 N 
ATOM      4  H   UNL     1       2.857   1.771   4.512  0.00  0.00    +0.155 HD
ENDROOT
BRANCH   3   5
ATOM      5  C   UNL     1       2.535   3.708   3.880  0.00  0.00    +0.034 A 
ATOM      6  C   UNL     1       3.837   4.190   3.933  0.00  0.00    +0.025 A 
ATOM      7  C   UNL     1       4.073   5.548   3.856  0.00  0.00    +0.030 A 
ATOM      8  C   UNL     1       3.015   6.429   3.727  0.00  0.00    +0.109 A 
ATOM      9  C   UNL     1       1.717   5.953   3.674  0.00  0.00    +0.030 A 
ATOM     10  C   UNL     1       1.475   4.595   3.744  0.00  0.00    +0.025 A 
BRANCH   8  11
ATOM     11  S   UNL     1       3.320   8.162   3.629  0.00  0.00    +0.073 S 
ATOM     12  O   UNL     1       2.130   8.809   4.060  0.00  0.00    -0.150 OA
ATOM     13  O   UNL     1       4.578   8.388   4.250  0.00  0.00    -0.150 OA
BRANCH  11  14
ATOM     14  N   UNL     1       3.509   8.536   2.027  0.00  0.00    -0.199 N 
ATOM     15  C   UNL     1       2.441   8.389   1.148  0.00  0.00    +0.138 A 
ATOM     16  C   UNL     1       2.608   8.700  -0.198  0.00  0.00    +0.045 A 
ATOM     17  C   UNL     1       1.538   8.550  -1.060  0.00  0.00    +0.005 A 
ATOM     18  C   UNL     1       0.332   8.091  -0.547  0.00  0.00    +0.020 A 
ATOM     19  C   UNL     1       0.237   7.802   0.799  0.00  0.00    +0.113 A 
ATOM     20  N   UNL     1       1.277   7.950   1.599  0.00  0.00    -0.239 NA
ATOM     21  H   UNL     1       4.364   8.858   1.701  0.00  0.00    +0.175 HD
ENDBRANCH  11  14
ENDBRANCH   8  11
ENDBRANCH   3   5
BRANCH   1  22
ATOM     22  C   UNL     1       0.944   0.327   3.432  0.00  0.00    +0.227 C 
BRANCH  22  23
ATOM     23  N   UNL     1      -0.108  -0.048   2.483  0.00  0.00    -0.198 N 
BRANCH  23  30
ATOM     24  C   UNL     1       0.248  -2.816   1.930  0.00  0.00    +0.046 C 
ATOM     25  C   UNL     1       0.411  -1.762   0.865  0.00  0.00    -0.028 A 
ATOM     26  C   UNL     1       0.737  -2.128  -0.426  0.00  0.00    +0.007 A 
ATOM     27  C   UNL     1       0.887  -1.162  -1.404  0.00  0.00    +0.033 A 
ATOM     28  C   UNL     1       0.710   0.174  -1.092  0.00  0.00    +0.128 A 
ATOM     29  C   UNL     1       0.384   0.547   0.197  0.00  0.00    +0.057 A 
ATOM     30  C   UNL     1       0.228  -0.422   1.180  0.00  0.00    +0.056 A 
BRANCH  28  31
ATOM     31  N   UNL     1       0.872   1.206  -2.142  0.00  0.00    +0.056 N 
ATOM     32  O   UNL     1       1.158   0.880  -3.270  0.00  0.00    -0.126 OA
ATOM     33  O   UNL     1       0.718   2.374  -1.870  0.00  0.00    -0.126 OA
ENDBRANCH  28  31
ENDBRANCH  23  30
BRANCH  23  34
ATOM     34  S   UNL     1      -1.694  -0.030   2.957  0.00  0.00    +0.043 S 
ATOM     35  O   UNL     1      -1.769   0.999   3.934  0.00  0.00    -0.155 OA
ATOM     36  O   UNL     1      -2.433   0.065   1.747  0.00  0.00    -0.155 OA
ATOM     37  C   UNL     1      -1.968  -1.648   3.731  0.00  0.00    +0.218 C 
ENDBRANCH  23  34
ENDBRANCH  22  23
ENDBRANCH   1  22
TORSDOF 8
