REMARK  Name = ZINC13498548
REMARK  11 active torsions:
REMARK  status: ('A' for Active; 'I' for Inactive)
REMARK    1  A    between atoms: C_1  and  C_2
REMARK    2  A    between atoms: C_7  and  C_14
REMARK    3  A    between atoms: C_14  and  N_72
REMARK    4  A    between atoms: C_15  and  N_72
REMARK    5  A    between atoms: C_21  and  C_23
REMARK    6  A    between atoms: C_21  and  C_35
REMARK    7  A    between atoms: C_21  and  N_72
REMARK    8  A    between atoms: N_27  and  C_28
REMARK    9  A    between atoms: C_28  and  C_29
REMARK   10  A    between atoms: C_35  and  C_36
REMARK   11  A    between atoms: C_35  and  C_37
REMARK                            x       y       z     vdW  Elec       q    Type
REMARK                         _______ _______ _______ _____ _____    ______ ____
ROOT
ATOM      1  N   UNL     1      -1.099   0.536   1.228  0.00  0.00    +0.391 N 
ATOM      2  H   UNL     1      -0.947  -0.460   1.425  0.00  0.00    -0.080 HD
ENDROOT
BRANCH   1   3
ATOM      3  C   UNL     1      -1.898   1.125   2.324  0.00  0.00    -0.067 C 
ATOM      4  C   UNL     1      -0.979   1.445   3.504  0.00  0.00    -0.015 C 
ATOM      5  C   UNL     1      -1.806   2.029   4.651  0.00  0.00    -0.002 C 
ATOM      6  C   UNL     1      -2.862   1.012   5.088  0.00  0.00    -0.000 C 
ATOM      7  C   UNL     1      -3.782   0.692   3.907  0.00  0.00    -0.002 C 
ATOM      8  C   UNL     1      -2.954   0.108   2.760  0.00  0.00    -0.015 C 
ENDBRANCH   1   3
BRANCH   1   9
ATOM      9  C   UNL     1      -1.825   0.668  -0.053  0.00  0.00    -0.036 C 
BRANCH   9  16
ATOM     10  C   UNL     1      -8.381  -3.875  -0.090  0.00  0.00    +0.044 C 
ATOM     11  C   UNL     1      -7.290  -2.836  -0.062  0.00  0.00    -0.048 A 
ATOM     12  C   UNL     1      -7.622  -1.494   0.060  0.00  0.00    +0.004 A 
ATOM     13  C   UNL     1      -6.647  -0.536   0.087  0.00  0.00    +0.010 A 
ATOM     14  C   UNL     1      -5.303  -0.912  -0.008  0.00  0.00    -0.001 A 
ATOM     15  C   UNL     1      -4.234   0.087   0.024  0.00  0.00    +0.017 A 
ATOM     16  C   UNL     1      -2.949  -0.335  -0.077  0.00  0.00    +0.001 A 
ATOM     17  C   UNL     1      -2.661  -1.712  -0.199  0.00  0.00    +0.251 A 
ATOM     18  O   UNL     1      -1.500  -2.070  -0.284  0.00  0.00    -0.268 OA
ATOM     19  N   UNL     1      -3.637  -2.637  -0.225  0.00  0.00    -0.322 N 
ATOM     20  H   UNL     1      -3.404  -3.575  -0.310  0.00  0.00    +0.169 HD
ATOM     21  C   UNL     1      -4.963  -2.272  -0.132  0.00  0.00    +0.049 A 
ATOM     22  C   UNL     1      -5.972  -3.229  -0.158  0.00  0.00    +0.029 A 
ENDBRANCH   9  16
ENDBRANCH   1   9
BRANCH   1  23
ATOM     23  C   UNL     1       0.211   1.213   1.138  0.00  0.00    +0.006 C 
BRANCH  23  24
ATOM     24  C   UNL     1       1.186   0.288   0.456  0.00  0.00    +0.139 A 
ATOM     25  N   UNL     1       0.939  -0.492  -0.568  0.00  0.00    -0.115 NA
ATOM     26  N   UNL     1       2.024  -1.123  -0.859  0.00  0.00    -0.023 NA
ATOM     27  N   UNL     1       2.954  -0.771  -0.042  0.00  0.00    -0.044 NA
ATOM     28  N   UNL     1       2.477   0.097   0.784  0.00  0.00    -0.226 N 
BRANCH  28  29
ATOM     29  C   UNL     1       3.204   0.751   1.875  0.00  0.00    +0.182 C 
BRANCH  29  30
ATOM     30  C   UNL     1       3.129  -0.105   3.113  0.00  0.00    -0.026 A 
ATOM     31  C   UNL     1       2.133   0.115   4.046  0.00  0.00    +0.005 A 
ATOM     32  C   UNL     1       2.062  -0.674   5.179  0.00  0.00    +0.000 A 
ATOM     33  C   UNL     1       2.993  -1.675   5.385  0.00  0.00    +0.000 A 
ATOM     34  C   UNL     1       3.992  -1.890   4.454  0.00  0.00    +0.000 A 
ATOM     35  C   UNL     1       4.060  -1.105   3.319  0.00  0.00    +0.005 A 
ENDBRANCH  29  30
ENDBRANCH  28  29
ENDBRANCH  23  24
BRANCH  23  36
ATOM     36  C   UNL     1       0.090   2.509   0.333  0.00  0.00    -0.024 C 
ATOM     37  C   UNL     1       1.478   3.125   0.146  0.00  0.00    +0.006 C 
ATOM     38  C   UNL     1      -0.808   3.494   1.084  0.00  0.00    +0.006 C 
ENDBRANCH  23  36
ENDBRANCH   1  23
TORSDOF 8
