REMARK  Name = ZINC50776172
REMARK  6 active torsions:
REMARK  status: ('A' for Active; 'I' for Inactive)
REMARK    1  A    between atoms: C_1  and  C_2
REMARK    2  A    between atoms: C_2  and  N_3
REMARK    3  A    between atoms: C_7  and  C_10
REMARK    4  A    between atoms: N_12  and  C_13
REMARK    5  A    between atoms: N_12  and  C_14
REMARK    6  A    between atoms: C_19  and  C_22
REMARK                            x       y       z     vdW  Elec       q    Type
REMARK                         _______ _______ _______ _____ _____    ______ ____
ROOT
ATOM      1  C   UNL     1       1.037  -6.159   2.519  0.00  0.00    +0.267 C 
ATOM      2  O   UNL     1       0.530  -7.155   2.042  0.00  0.00    -0.268 OA
ATOM      3  N   UNL     1       2.149  -6.263   3.272  0.00  0.00    -0.296 N 
ATOM      4  C   UNL     1       2.750  -5.064   3.862  0.00  0.00    +0.132 C 
ENDROOT
BRANCH   1   9
ATOM      5  N   UNL     1      -1.113  -1.095   1.724  0.00  0.00    -0.328 N 
ATOM      6  C   UNL     1      -0.611  -2.375   1.888  0.00  0.00    +0.141 A 
ATOM      7  C   UNL     1      -1.153  -3.437   1.162  0.00  0.00    +0.047 A 
ATOM      8  C   UNL     1      -0.620  -4.698   1.358  0.00  0.00    +0.038 A 
ATOM      9  C   UNL     1       0.432  -4.832   2.273  0.00  0.00    +0.148 A 
ATOM     10  N   UNL     1       0.884  -3.764   2.920  0.00  0.00    -0.143 NA
ATOM     11  N   UNL     1       0.391  -2.594   2.733  0.00  0.00    -0.134 NA
ATOM     12  H   UNL     1      -0.733  -0.357   2.226  0.00  0.00    +0.147 HD
BRANCH   5  14
ATOM     13  C   UNL     1      -2.578   0.632   0.800  0.00  0.00    +0.024 C 
ATOM     14  C   UNL     1      -2.218  -0.855   0.792  0.00  0.00    +0.099 C 
ENDBRANCH   5  14
ENDBRANCH   1   9
BRANCH   3  15
ATOM     15  C   UNL     1       2.758  -7.576   3.502  0.00  0.00    +0.076 C 
ATOM     16  C   UNL     1       3.934  -7.430   4.470  0.00  0.00    +0.022 C 
ATOM     17  C   UNL     1       3.433  -6.862   5.799  0.00  0.00    +0.002 C 
ATOM     18  C   UNL     1       2.392  -7.809   6.399  0.00  0.00    +0.003 C 
ATOM     19  C   UNL     1       1.216  -7.954   5.431  0.00  0.00    -0.012 C 
ATOM     20  C   UNL     1       1.717  -8.523   4.102  0.00  0.00    +0.025 C 
ATOM     21  C   UNL     1       0.175  -8.901   6.031  0.00  0.00    +0.007 C 
ENDBRANCH   3  15
TORSDOF 3
