REMARK  Name = ZINC49729917
REMARK  11 active torsions:
REMARK  status: ('A' for Active; 'I' for Inactive)
REMARK    1  A    between atoms: C_1  and  C_2
REMARK    2  A    between atoms: C_4  and  C_32
REMARK    3  A    between atoms: C_9  and  C_31
REMARK    4  A    between atoms: C_10  and  C_14
REMARK    5  A    between atoms: C_11  and  C_13
REMARK    6  A    between atoms: C_14  and  C_15
REMARK    7  A    between atoms: N_17  and  C_18
REMARK    8  A    between atoms: C_21  and  C_30
REMARK    9  A    between atoms: C_25  and  C_27
REMARK   10  A    between atoms: C_27  and  C_28
REMARK   11  A    between atoms: C_27  and  C_29
REMARK                            x       y       z     vdW  Elec       q    Type
REMARK                         _______ _______ _______ _____ _____    ______ ____
ROOT
ATOM      1  C   UNL     1      -0.018   1.503   0.010  0.00  0.00    +0.066 C 
ATOM      2  C   UNL     1       0.002  -0.004   0.002  0.00  0.00    +0.044 A 
ATOM      3  C   UNL     1       0.006  -0.699  -1.197  0.00  0.00    +0.046 A 
ATOM      4  C   UNL     1       0.025  -2.085  -1.159  0.00  0.00    +0.044 A 
ATOM      5  N   UNL     1       0.039  -2.697   0.013  0.00  0.00    -0.216 NA
ATOM      6  C   UNL     1       0.035  -2.003   1.140  0.00  0.00    +0.252 A 
ATOM      7  N   UNL     1       0.022  -0.680   1.139  0.00  0.00    -0.216 NA
ATOM      8  N   UNL     1       0.049  -2.683   2.358  0.00  0.00    -0.202 N 
ATOM      9  C   UNL     1       0.042  -2.114   3.592  0.00  0.00    +0.049 A 
ATOM     10  C   UNL     1       0.061  -3.113   4.503  0.00  0.00    +0.005 A 
ATOM     11  C   UNL     1       0.081  -4.329   3.810  0.00  0.00    +0.064 A 
ATOM     12  N   UNL     1       0.069  -4.073   2.527  0.00  0.00    -0.169 NA
ATOM     13  C   UNL     1       0.107  -5.700   4.435  0.00  0.00    +0.068 C 
ATOM     14  C   UNL     1       0.017  -0.637   3.892  0.00  0.00    +0.066 C 
ATOM     15  C   UNL     1       0.029  -2.883  -2.437  0.00  0.00    +0.066 C 
ENDROOT
BRANCH  10  16
ATOM     16  C   UNL     1       0.062  -2.947   6.001  0.00  0.00    +0.134 C 
BRANCH  16  17
ATOM     17  C   UNL     1      -1.359  -2.917   6.503  0.00  0.00    +0.218 C 
ATOM     18  O   UNL     1      -2.280  -3.019   5.722  0.00  0.00    -0.275 OA
ATOM     19  N   UNL     1      -1.604  -2.775   7.821  0.00  0.00    -0.312 N 
ATOM     20  H   UNL     1      -0.867  -2.693   8.446  0.00  0.00    +0.149 HD
BRANCH  19  21
ATOM     21  C   UNL     1      -2.985  -2.745   8.310  0.00  0.00    +0.077 C 
ATOM     22  C   UNL     1      -3.533  -1.320   8.204  0.00  0.00    +0.025 C 
ATOM     23  C   UNL     1      -2.672  -0.379   9.049  0.00  0.00    -0.012 C 
ATOM     24  C   UNL     1      -2.706  -0.831  10.510  0.00  0.00    +0.004 C 
ATOM     25  C   UNL     1      -2.158  -2.256  10.616  0.00  0.00    +0.006 C 
ATOM     26  C   UNL     1      -3.019  -3.197   9.771  0.00  0.00    +0.012 C 
ATOM     27  C   UNL     1      -3.220   1.046   8.943  0.00  0.00    +0.007 C 
BRANCH  26  28
ATOM     28  C   UNL     1      -2.471  -4.622   9.877  0.00  0.00    -0.012 C 
ATOM     29  C   UNL     1      -2.505  -5.074  11.338  0.00  0.00    +0.007 C 
ATOM     30  C   UNL     1      -3.332  -5.563   9.032  0.00  0.00    +0.007 C 
ENDBRANCH  26  28
ENDBRANCH  19  21
ENDBRANCH  16  17
ENDBRANCH  10  16
TORSDOF 4
