REMARK  Name = ZINC27534350
REMARK  3 active torsions:
REMARK  status: ('A' for Active; 'I' for Inactive)
REMARK    1  A    between atoms: C_1  and  C_2
REMARK    2  A    between atoms: C_5  and  N_9
REMARK    3  A    between atoms: C_6  and  C_8
REMARK                            x       y       z     vdW  Elec       q    Type
REMARK                         _______ _______ _______ _____ _____    ______ ____
ROOT
ATOM      1  N   UNL     1       1.237  -2.081  -0.021  0.00  0.00    -0.229 N 
ATOM      2  C   UNL     1       1.264  -2.755   1.147  0.00  0.00    +0.265 A 
ATOM      3  O   UNL     1       1.270  -2.151   2.205  0.00  0.00    -0.267 OA
ATOM      4  C   UNL     1       1.281  -4.163   1.132  0.00  0.00    +0.048 A 
ATOM      5  C   UNL     1       1.286  -4.812  -0.070  0.00  0.00    +0.060 A 
ATOM      6  N   UNL     1       1.261  -4.086  -1.236  0.00  0.00    -0.306 N 
ATOM      7  H   UNL     1       1.262  -4.604  -2.207  0.00  0.00    +0.170 HD
ATOM      8  C   UNL     1       1.237  -2.740  -1.195  0.00  0.00    +0.334 A 
ATOM      9  O   UNL     1       1.214  -2.110  -2.234  0.00  0.00    -0.246 OA
ATOM     10  C   UNL     1       1.321  -6.287  -0.088  0.00  0.00    +0.002 A 
ATOM     11  C   UNL     1       1.743  -6.982  -1.220  0.00  0.00    +0.010 A 
ATOM     12  C   UNL     1       1.762  -8.363  -1.206  0.00  0.00    +0.001 A 
ATOM     13  C   UNL     1       1.363  -9.052  -0.075  0.00  0.00    +0.000 A 
ATOM     14  C   UNL     1       0.944  -8.367   1.053  0.00  0.00    +0.004 A 
ATOM     15  C   UNL     1       0.923  -6.989   1.053  0.00  0.00    -0.037 A 
ATOM     16  C   UNL     1       0.478  -6.228   2.275  0.00  0.00    +0.047 C 
ATOM     17  C   UNL     1       1.299  -4.947   2.413  0.00  0.00    +0.007 C 
ATOM     18  C   UNL     1       2.746  -5.295   2.794  0.00  0.00    +0.012 C 
ATOM     19  C   UNL     1       3.011  -4.633   4.163  0.00  0.00    +0.001 C 
ATOM     20  C   UNL     1       1.601  -4.466   4.783  0.00  0.00    +0.001 C 
ATOM     21  C   UNL     1       0.731  -4.088   3.558  0.00  0.00    +0.012 C 
ENDROOT
BRANCH   1  26
ATOM     22  C   UNL     1       1.147   3.593   0.011  0.00  0.00    +0.044 C 
ATOM     23  C   UNL     1       1.171   2.086   0.002  0.00  0.00    -0.050 A 
ATOM     24  C   UNL     1      -0.017   1.377   0.010  0.00  0.00    +0.005 A 
ATOM     25  C   UNL     1       0.002  -0.004   0.002  0.00  0.00    +0.027 A 
ATOM     26  C   UNL     1       1.215  -0.680  -0.013  0.00  0.00    +0.057 A 
ATOM     27  C   UNL     1       2.405   0.034  -0.021  0.00  0.00    -0.026 A 
ATOM     28  C   UNL     1       2.380   1.415  -0.013  0.00  0.00    +0.008 A 
ATOM     29  C   UNL     1       3.723  -0.696  -0.038  0.00  0.00    +0.046 C 
ENDBRANCH   1  26
TORSDOF 1
