REMARK  Name = ZINC62826851
REMARK  6 active torsions:
REMARK  status: ('A' for Active; 'I' for Inactive)
REMARK    1  A    between atoms: C_1  and  C_2
REMARK    2  A    between atoms: C_2  and  C_4
REMARK    3  A    between atoms: C_2  and  N_17
REMARK    4  A    between atoms: N_6  and  C_7
REMARK    5  A    between atoms: C_8  and  C_14
REMARK    6  A    between atoms: N_17  and  C_18
REMARK                            x       y       z     vdW  Elec       q    Type
REMARK                         _______ _______ _______ _____ _____    ______ ____
ROOT
ATOM      1  C   UNL     1       0.717   0.105   1.413  0.00  0.00    +0.203 C 
ATOM      2  O   UNL     1       0.063  -0.053   2.422  0.00  0.00    -0.277 OA
ATOM      3  N   UNL     1       2.034  -0.179   1.412  0.00  0.00    -0.285 N 
ATOM      4  H   UNL     1       2.540  -0.129   0.586  0.00  0.00    +0.155 HD
ENDROOT
BRANCH   3   5
ATOM      5  C   UNL     1       2.669  -0.544   2.596  0.00  0.00    +0.062 A 
ATOM      6  C   UNL     1       3.816   0.144   3.023  0.00  0.00    +0.085 A 
ATOM      7  C   UNL     1       4.443  -0.233   4.215  0.00  0.00    +0.017 A 
ATOM      8  C   UNL     1       3.934  -1.273   4.960  0.00  0.00    +0.002 A 
ATOM      9  C   UNL     1       2.802  -1.951   4.535  0.00  0.00    +0.017 A 
ATOM     10  C   UNL     1       2.167  -1.587   3.364  0.00  0.00    +0.040 A 
ATOM     11 BR   UNL     1       0.618  -2.514   2.802  0.00  0.00    -0.048 Br
BRANCH   6  12
ATOM     12  C   UNL     1       4.355   1.255   2.222  0.00  0.00    +0.388 C 
ATOM     13  O   UNL     1       5.410   1.784   2.542  0.00  0.00    -0.241 OA
ATOM     14  O   UNL     1       3.747   1.649   1.236  0.00  0.00    -0.241 OA
ENDBRANCH   6  12
ENDBRANCH   3   5
BRANCH   1  16
ATOM     15  C   UNL     1       0.716   1.933  -0.263  0.00  0.00    -0.004 C 
ATOM     16  C   UNL     1       0.056   0.619   0.160  0.00  0.00    +0.013 C 
BRANCH  16  17
ATOM     17  N   UNL     1      -1.372   0.850   0.419  0.00  0.00    +0.385 N 
ATOM     18  C   UNL     1      -2.040   1.236  -0.830  0.00  0.00    -0.099 C 
ATOM     19  H   UNL     1      -1.790   0.005   0.777  0.00  0.00    -0.085 HD
ATOM     20  H   UNL     1      -1.475   1.590   1.098  0.00  0.00    -0.085 HD
ENDBRANCH  16  17
ENDBRANCH   1  16
TORSDOF 4
