REMARK  Name = ZINC05248660
REMARK  11 active torsions:
REMARK  status: ('A' for Active; 'I' for Inactive)
REMARK    1  A    between atoms: C_1  and  C_2
REMARK    2  A    between atoms: C_2  and  O_3
REMARK    3  A    between atoms: O_3  and  C_4
REMARK    4  A    between atoms: C_7  and  C_10
REMARK    5  A    between atoms: C_17  and  N_33
REMARK    6  A    between atoms: C_18  and  C_31
REMARK    7  A    between atoms: C_19  and  C_21
REMARK    8  A    between atoms: C_24  and  O_27
REMARK    9  A    between atoms: O_27  and  C_28
REMARK   10  A    between atoms: C_28  and  C_29
REMARK   11  A    between atoms: C_28  and  C_30
REMARK                            x       y       z     vdW  Elec       q    Type
REMARK                         _______ _______ _______ _____ _____    ______ ____
ROOT
ATOM      1  C   UNL     1       0.651  -5.506   0.966  0.00  0.00    +0.100 A 
ATOM      2  C   UNL     1       1.573  -6.346   1.597  0.00  0.00    +0.054 A 
ATOM      3  C   UNL     1       1.150  -7.634   1.436  0.00  0.00    +0.223 A 
ATOM      4  N   UNL     1       0.002  -7.604   0.728  0.00  0.00    -0.246 N 
ATOM      5  H   UNL     1      -0.524  -8.374   0.463  0.00  0.00    +0.192 HD
ATOM      6  N   UNL     1      -0.298  -6.262   0.447  0.00  0.00    -0.171 NA
ATOM      7  O   UNL     1       1.829  -8.696   1.938  0.00  0.00    -0.423 OA
ATOM      8  C   UNL     1       2.798  -8.447   2.842  0.00  0.00    +0.200 C 
ATOM      9  C   UNL     1       3.306  -7.217   3.081  0.00  0.00    +0.098 C 
ATOM     10  C   UNL     1       2.833  -5.990   2.342  0.00  0.00    +0.102 C 
ENDROOT
BRANCH   1  14
ATOM     11  C   UNL     1       0.855  -1.261   0.773  0.00  0.00    +0.121 A 
ATOM     12  C   UNL     1       0.339  -1.979  -0.297  0.00  0.00    +0.046 A 
ATOM     13  C   UNL     1       0.272  -3.356  -0.237  0.00  0.00    +0.013 A 
ATOM     14  C   UNL     1       0.723  -4.025   0.899  0.00  0.00    +0.003 A 
ATOM     15  C   UNL     1       1.241  -3.302   1.971  0.00  0.00    +0.013 A 
ATOM     16  C   UNL     1       1.310  -1.926   1.904  0.00  0.00    +0.046 A 
BRANCH  11  17
ATOM     17  O   UNL     1       0.921   0.095   0.711  0.00  0.00    -0.492 OA
BRANCH  17  19
ATOM     18  C   UNL     1       0.589   2.232  -0.367  0.00  0.00    +0.048 C 
ATOM     19  C   UNL     1       0.435   0.714  -0.481  0.00  0.00    +0.225 C 
ENDBRANCH  17  19
ENDBRANCH  11  17
ENDBRANCH   1  14
BRANCH  10  20
ATOM     20  C   UNL     1       3.892  -5.544   1.367  0.00  0.00    -0.034 A 
ATOM     21  C   UNL     1       4.321  -6.404   0.373  0.00  0.00    +0.008 A 
ATOM     22  C   UNL     1       5.292  -5.997  -0.522  0.00  0.00    +0.046 A 
ATOM     23  C   UNL     1       5.835  -4.725  -0.424  0.00  0.00    +0.121 A 
ATOM     24  C   UNL     1       5.403  -3.864   0.574  0.00  0.00    +0.046 A 
ATOM     25  C   UNL     1       4.428  -4.273   1.464  0.00  0.00    +0.008 A 
BRANCH  23  26
ATOM     26  O   UNL     1       6.791  -4.323  -1.303  0.00  0.00    -0.489 OA
BRANCH  26  27
ATOM     27  C   UNL     1       7.273  -5.299  -2.228  0.00  0.00    +0.167 C 
ATOM     28  C   UNL     1       6.344  -5.354  -3.442  0.00  0.00    +0.051 C 
ATOM     29  C   UNL     1       8.684  -4.918  -2.682  0.00  0.00    +0.051 C 
ENDBRANCH  26  27
ENDBRANCH  23  26
ENDBRANCH  10  20
BRANCH   8  30
ATOM     30  N   UNL     1       3.297  -9.503   3.563  0.00  0.00    -0.328 N 
ATOM     31  H   UNL     1       2.952 -10.398   3.414  0.00  0.00    +0.145 HD
ATOM     32  H   UNL     1       3.994  -9.356   4.221  0.00  0.00    +0.145 HD
ENDBRANCH   8  30
BRANCH   9  33
ATOM     33  C   UNL     1       4.331  -7.074   4.071  0.00  0.00    +0.101 C 
ATOM     34  N   UNL     1       5.144  -6.961   4.856  0.00  0.00    -0.191 NA
ENDBRANCH   9  33
TORSDOF 8
