REMARK  Name = ZINC38595957
REMARK  9 active torsions:
REMARK  status: ('A' for Active; 'I' for Inactive)
REMARK    1  A    between atoms: C_1  and  C_2
REMARK    2  A    between atoms: C_2  and  C_4
REMARK    3  A    between atoms: C_2  and  N_24
REMARK    4  A    between atoms: C_4  and  C_6
REMARK    5  A    between atoms: C_4  and  N_11
REMARK    6  A    between atoms: N_14  and  C_17
REMARK    7  A    between atoms: C_17  and  C_18
REMARK    8  A    between atoms: C_25  and  C_27
REMARK    9  A    between atoms: C_27  and  N_28
REMARK                            x       y       z     vdW  Elec       q    Type
REMARK                         _______ _______ _______ _____ _____    ______ ____
ROOT
ATOM      1  C   UNL     1      -1.433  -0.534   0.013  0.00  0.00    +0.113 C 
ENDROOT
BRANCH   1   2
ATOM      2  N   UNL     1      -2.229  -0.025   1.138  0.00  0.00    -0.297 NA
ATOM      3  C   UNL     1      -1.610  -0.379   2.423  0.00  0.00    +0.066 C 
ATOM      4  C   UNL     1      -2.435   0.219   3.565  0.00  0.00    -0.063 C 
ATOM      5  N   UNL     1      -3.807  -0.301   3.503  0.00  0.00    +0.384 N 
ATOM      6  C   UNL     1      -4.420   0.081   2.224  0.00  0.00    -0.063 C 
ATOM      7  C   UNL     1      -3.612  -0.518   1.071  0.00  0.00    +0.066 C 
ATOM      8  H   UNL     1      -3.789  -1.308   3.579  0.00  0.00    -0.081 HD
BRANCH   5   9
ATOM      9  C   UNL     1      -4.594   0.259   4.610  0.00  0.00    -0.043 C 
BRANCH   9  10
ATOM     10  C   UNL     1      -5.965  -0.368   4.619  0.00  0.00    -0.064 A 
ATOM     11  C   UNL     1      -6.993   0.207   3.896  0.00  0.00    +0.002 A 
ATOM     12  C   UNL     1      -8.250  -0.367   3.905  0.00  0.00    +0.000 A 
ATOM     13  C   UNL     1      -8.479  -1.518   4.637  0.00  0.00    +0.000 A 
ATOM     14  C   UNL     1      -7.450  -2.093   5.359  0.00  0.00    +0.000 A 
ATOM     15  C   UNL     1      -6.192  -1.521   5.347  0.00  0.00    +0.002 A 
ENDBRANCH   9  10
ENDBRANCH   5   9
ENDBRANCH   1   2
BRANCH   1  16
ATOM     16  C   UNL     1      -1.500  -2.039  -0.009  0.00  0.00    +0.009 A 
ATOM     17  C   UNL     1      -1.778  -2.866  -1.046  0.00  0.00    +0.013 A 
ATOM     18  C   UNL     1      -1.782  -4.232  -0.833  0.00  0.00    +0.008 A 
ATOM     19  C   UNL     1      -1.509  -4.703   0.408  0.00  0.00    +0.045 A 
ATOM     20  S   UNL     1      -1.226  -3.196   1.322  0.00  0.00    -0.100 S 
ENDBRANCH   1  16
BRANCH   1  22
ATOM     21  C   UNL     1       0.089   1.438   0.198  0.00  0.00    +0.030 C 
ATOM     22  C   UNL     1       0.022  -0.090   0.175  0.00  0.00    +0.092 C 
BRANCH  22  23
ATOM     23  N   UNL     1       0.815  -0.597  -0.947  0.00  0.00    -0.310 N 
ATOM     24  C   UNL     1       2.142  -0.787  -0.803  0.00  0.00    +0.231 C 
ATOM     25  O   UNL     1       2.679  -0.537   0.255  0.00  0.00    -0.274 OA
ATOM     26  H   UNL     1       0.386  -0.797  -1.794  0.00  0.00    +0.149 HD
BRANCH  24  27
ATOM     27  C   UNL     1       2.958  -1.309  -1.957  0.00  0.00    +0.212 C 
BRANCH  27  28
ATOM     28  N   UNL     1       4.360  -1.426  -1.550  0.00  0.00    -0.225 N 
ATOM     29  C   UNL     1       5.273  -0.446  -1.673  0.00  0.00    +0.254 C 
ATOM     30  O   UNL     1       5.068   0.660  -2.131  0.00  0.00    -0.270 OA
ATOM     31  C   UNL     1       6.567  -0.939  -1.155  0.00  0.00    +0.049 A 
ATOM     32  C   UNL     1       7.832  -0.388  -1.028  0.00  0.00    +0.014 A 
ATOM     33  C   UNL     1       8.859  -1.143  -0.484  0.00  0.00    +0.001 A 
ATOM     34  C   UNL     1       8.629  -2.441  -0.067  0.00  0.00    +0.001 A 
ATOM     35  C   UNL     1       7.369  -3.006  -0.188  0.00  0.00    +0.014 A 
ATOM     36  C   UNL     1       6.333  -2.263  -0.730  0.00  0.00    +0.049 A 
ATOM     37  C   UNL     1       4.904  -2.527  -1.000  0.00  0.00    +0.254 C 
ATOM     38  O   UNL     1       4.318  -3.565  -0.765  0.00  0.00    -0.270 OA
ENDBRANCH  27  28
ENDBRANCH  24  27
ENDBRANCH  22  23
ENDBRANCH   1  22
TORSDOF 8
