REMARK  Name = ZINC08540783
REMARK  7 active torsions:
REMARK  status: ('A' for Active; 'I' for Inactive)
REMARK    1  A    between atoms: C_1  and  C_2
REMARK    2  A    between atoms: C_6  and  N_9
REMARK    3  A    between atoms: C_7  and  C_8
REMARK    4  A    between atoms: C_13  and  C_15
REMARK    5  A    between atoms: C_15  and  O_16
REMARK    6  A    between atoms: O_16  and  C_17
REMARK    7  A    between atoms: C_17  and  C_19
REMARK                            x       y       z     vdW  Elec       q    Type
REMARK                         _______ _______ _______ _____ _____    ______ ____
ROOT
ATOM      1  N   UNL     1       0.050  -2.797   2.393  0.00  0.00    -0.269 N 
ATOM      2  C   UNL     1      -0.034  -4.143   2.385  0.00  0.00    +0.310 C 
ATOM      3  O   UNL     1      -0.031  -4.746   1.331  0.00  0.00    -0.252 OA
ATOM      4  N   UNL     1      -0.121  -4.818   3.548  0.00  0.00    -0.237 N 
ATOM      5  C   UNL     1      -0.206  -6.163   3.541  0.00  0.00    +0.258 C 
ATOM      6  O   UNL     1      -0.203  -6.766   2.489  0.00  0.00    -0.272 OA
ATOM      7  H   UNL     1       0.131  -2.321   3.234  0.00  0.00    +0.156 HD
ATOM      8  H   UNL     1      -0.123  -4.337   4.390  0.00  0.00    +0.159 HD
ENDROOT
BRANCH   1  14
ATOM      9  C   UNL     1       1.201   1.236  -0.173  0.00  0.00    +0.044 C 
ATOM     10  C   UNL     1       0.573  -0.131  -0.085  0.00  0.00    -0.046 A 
ATOM     11  C   UNL     1      -0.033  -0.686  -1.198  0.00  0.00    +0.004 A 
ATOM     12  C   UNL     1      -0.611  -1.939  -1.121  0.00  0.00    +0.002 A 
ATOM     13  C   UNL     1      -0.585  -2.642   0.068  0.00  0.00    +0.023 A 
ATOM     14  C   UNL     1       0.022  -2.088   1.187  0.00  0.00    +0.038 A 
ATOM     15  C   UNL     1       0.607  -0.831   1.105  0.00  0.00    -0.026 A 
ATOM     16  C   UNL     1       1.273  -0.229   2.315  0.00  0.00    +0.046 C 
ENDBRANCH   1  14
BRANCH   5  17
ATOM     17  C   UNL     1      -0.303  -6.919   4.841  0.00  0.00    +0.328 C 
BRANCH  17  18
ATOM     18  O   UNL     1      -0.381  -8.321   4.573  0.00  0.00    -0.452 OA
BRANCH  18  19
ATOM     19  C   UNL     1      -0.474  -9.143   5.636  0.00  0.00    +0.340 C 
ATOM     20  O   UNL     1      -0.488  -8.683   6.761  0.00  0.00    -0.245 OA
BRANCH  19  21
ATOM     21  C   UNL     1      -0.558 -10.602   5.435  0.00  0.00    +0.063 A 
ATOM     22  C   UNL     1      -0.536 -11.133   4.143  0.00  0.00    +0.019 A 
ATOM     23  C   UNL     1      -0.615 -12.496   3.958  0.00  0.00    +0.050 A 
ATOM     24  C   UNL     1      -0.716 -13.346   5.051  0.00  0.00    +0.166 A 
ATOM     25  C   UNL     1      -0.739 -12.821   6.344  0.00  0.00    +0.167 A 
ATOM     26  C   UNL     1      -0.654 -11.456   6.537  0.00  0.00    +0.064 A 
ATOM     27  O   UNL     1      -0.843 -13.854   7.231  0.00  0.00    -0.453 OA
ATOM     28  C   UNL     1      -1.295 -14.980   6.457  0.00  0.00    +0.466 C 
ATOM     29  O   UNL     1      -0.806 -14.704   5.131  0.00  0.00    -0.453 OA
ENDBRANCH  19  21
ENDBRANCH  18  19
ENDBRANCH  17  18
ENDBRANCH   5  17
TORSDOF 5
