REMARK  Name = ZINC15774739
REMARK  11 active torsions:
REMARK  status: ('A' for Active; 'I' for Inactive)
REMARK    1  A    between atoms: C_1  and  C_2
REMARK    2  A    between atoms: C_7  and  C_8
REMARK    3  A    between atoms: N_10  and  C_11
REMARK    4  A    between atoms: C_11  and  C_13
REMARK    5  A    between atoms: C_11  and  N_17
REMARK    6  A    between atoms: N_17  and  C_18
REMARK    7  A    between atoms: C_18  and  N_20
REMARK    8  A    between atoms: N_20  and  C_21
REMARK    9  A    between atoms: C_23  and  N_29
REMARK   10  A    between atoms: C_26  and  O_27
REMARK   11  A    between atoms: O_27  and  C_28
REMARK                            x       y       z     vdW  Elec       q    Type
REMARK                         _______ _______ _______ _____ _____    ______ ____
ROOT
ATOM      1  N   UNL     1       1.956   0.138   5.532  0.00  0.00    -0.305 N 
ATOM      2  H   UNL     1       2.432  -0.685   5.725  0.00  0.00    +0.150 HD
ENDROOT
BRANCH   1   3
ATOM      3  C   UNL     1       2.635   1.296   5.409  0.00  0.00    +0.136 C 
ATOM      4  S   UNL     1       1.795   2.748   5.068  0.00  0.00    -0.019 S 
BRANCH   3   5
ATOM      5  N   UNL     1       3.974   1.310   5.553  0.00  0.00    -0.294 N 
ATOM      6  H   UNL     1       4.457   0.478   5.681  0.00  0.00    +0.154 HD
BRANCH   5   7
ATOM      7  C   UNL     1       4.670   2.526   5.521  0.00  0.00    +0.077 A 
ATOM      8  C   UNL     1       4.401   3.454   4.526  0.00  0.00    +0.059 A 
ATOM      9  C   UNL     1       5.088   4.653   4.495  0.00  0.00    +0.128 A 
ATOM     10  C   UNL     1       6.044   4.930   5.455  0.00  0.00    +0.036 A 
ATOM     11  C   UNL     1       6.318   4.010   6.450  0.00  0.00    +0.050 A 
ATOM     12  C   UNL     1       5.629   2.808   6.490  0.00  0.00    +0.141 A 
BRANCH   9  13
ATOM     13  N   UNL     1       4.800   5.643   3.433  0.00  0.00    +0.056 N 
ATOM     14  O   UNL     1       3.957   5.400   2.587  0.00  0.00    -0.126 OA
ATOM     15  O   UNL     1       5.404   6.700   3.405  0.00  0.00    -0.126 OA
ENDBRANCH   9  13
BRANCH  12  16
ATOM     16  O   UNL     1       5.893   1.904   7.472  0.00  0.00    -0.493 OA
ATOM     17  C   UNL     1       6.889   2.261   8.432  0.00  0.00    +0.277 C 
ENDBRANCH  12  16
ENDBRANCH   5   7
ENDBRANCH   3   5
ENDBRANCH   1   3
BRANCH   1  18
ATOM     18  C   UNL     1       0.499   0.122   5.374  0.00  0.00    +0.211 C 
BRANCH  18  21
ATOM     19  C   UNL     1      -0.257   0.338   3.068  0.00  0.00    +0.246 C 
ATOM     20  O   UNL     1      -0.343   1.538   3.239  0.00  0.00    -0.270 OA
ATOM     21  N   UNL     1       0.155  -0.459   4.074  0.00  0.00    -0.289 N 
ATOM     22  H   UNL     1       0.224  -1.417   3.938  0.00  0.00    +0.151 HD
BRANCH  19  29
ATOM     23  C   UNL     1      -0.985   2.075   0.872  0.00  0.00    +0.044 C 
ATOM     24  C   UNL     1      -0.957   0.579   0.689  0.00  0.00    -0.038 A 
ATOM     25  C   UNL     1      -1.286   0.025  -0.531  0.00  0.00    +0.004 A 
ATOM     26  C   UNL     1      -1.256  -1.347  -0.701  0.00  0.00    +0.000 A 
ATOM     27  C   UNL     1      -0.907  -2.174   0.352  0.00  0.00    +0.001 A 
ATOM     28  C   UNL     1      -0.582  -1.633   1.579  0.00  0.00    +0.013 A 
ATOM     29  C   UNL     1      -0.604  -0.249   1.756  0.00  0.00    +0.040 A 
ENDBRANCH  19  29
ENDBRANCH  18  21
BRANCH  18  30
ATOM     30  C   UNL     1      -0.126  -0.718   6.490  0.00  0.00    +0.225 C 
ATOM     31 CL   UNL     1       0.507  -2.404   6.399  0.00  0.00    -0.080 Cl
ATOM     32 CL   UNL     1       0.298  -0.002   8.090  0.00  0.00    -0.080 Cl
ATOM     33 CL   UNL     1      -1.918  -0.737   6.296  0.00  0.00    -0.080 Cl
ENDBRANCH  18  30
ENDBRANCH   1  18
TORSDOF 9
