REMARK  Name = ZINC40317862
REMARK  13 active torsions:
REMARK  status: ('A' for Active; 'I' for Inactive)
REMARK    1  A    between atoms: C_1  and  C_2
REMARK    2  A    between atoms: C_2  and  C_3
REMARK    3  A    between atoms: C_3  and  O_4
REMARK    4  A    between atoms: O_4  and  C_5
REMARK    5  A    between atoms: C_8  and  C_11
REMARK    6  A    between atoms: C_11  and  N_12
REMARK    7  A    between atoms: N_12  and  C_13
REMARK    8  A    between atoms: N_12  and  C_27
REMARK    9  A    between atoms: C_13  and  C_14
REMARK   10  A    between atoms: C_14  and  C_16
REMARK   11  A    between atoms: C_14  and  O_26
REMARK   12  A    between atoms: C_16  and  O_17
REMARK   13  A    between atoms: O_17  and  C_18
REMARK                            x       y       z     vdW  Elec       q    Type
REMARK                         _______ _______ _______ _____ _____    ______ ____
ROOT
ATOM      1  N   UNL     1       4.519  -4.655  -5.334  0.00  0.00    +0.387 N 
ATOM      2  H   UNL     1       4.405  -5.129  -4.450  0.00  0.00    -0.081 HD
ENDROOT
BRANCH   1   3
ATOM      3  C   UNL     1       4.901  -3.257  -5.095  0.00  0.00    -0.045 C 
ATOM      4  C   UNL     1       4.099  -2.694  -3.911  0.00  0.00    +0.009 C 
ATOM      5  C   UNL     1       4.252  -1.155  -3.853  0.00  0.00    +0.164 C 
ATOM      6  S   UNL     1       4.551  -0.713  -5.613  0.00  0.00    -0.033 S 
ATOM      7  O   UNL     1       5.845  -0.138  -5.732  0.00  0.00    -0.174 OA
ATOM      8  O   UNL     1       3.423  -0.006  -6.110  0.00  0.00    -0.174 OA
ATOM      9  C   UNL     1       4.574  -2.401  -6.352  0.00  0.00    +0.151 C 
ENDBRANCH   1   3
BRANCH   1  10
ATOM     10  C   UNL     1       3.252  -4.696  -6.078  0.00  0.00    -0.042 C 
BRANCH  10  14
ATOM     11  C   UNL     1       0.078  -3.336  -3.562  0.00  0.00    +0.121 A 
ATOM     12  C   UNL     1       0.645  -2.476  -4.491  0.00  0.00    +0.046 A 
ATOM     13  C   UNL     1       1.671  -2.918  -5.303  0.00  0.00    +0.005 A 
ATOM     14  C   UNL     1       2.133  -4.216  -5.190  0.00  0.00    -0.064 A 
ATOM     15  C   UNL     1       1.569  -5.075  -4.265  0.00  0.00    +0.005 A 
ATOM     16  C   UNL     1       0.547  -4.636  -3.447  0.00  0.00    +0.046 A 
BRANCH  11  17
ATOM     17  O   UNL     1      -0.932  -2.903  -2.761  0.00  0.00    -0.492 OA
BRANCH  17  18
ATOM     18  C   UNL     1      -1.364  -1.552  -2.935  0.00  0.00    +0.229 C 
BRANCH  18  20
ATOM     19  C   UNL     1      -2.961   0.198  -2.140  0.00  0.00    +0.007 C 
ATOM     20  C   UNL     1      -2.498  -1.249  -1.954  0.00  0.00    +0.038 C 
ENDBRANCH  18  20
ENDBRANCH  17  18
ENDBRANCH  11  17
ENDBRANCH  10  14
ENDBRANCH   1  10
BRANCH   1  21
ATOM     21  C   UNL     1       5.568  -5.323  -6.116  0.00  0.00    -0.043 C 
BRANCH  21  22
ATOM     22  C   UNL     1       6.842  -5.428  -5.276  0.00  0.00    +0.135 C 
BRANCH  22  23
ATOM     23  O   UNL     1       6.585  -6.224  -4.117  0.00  0.00    -0.390 OA
ATOM     24  H   UNL     1       6.299  -7.126  -4.316  0.00  0.00    +0.210 HD
ENDBRANCH  22  23
BRANCH  22  25
ATOM     25  C   UNL     1       7.949  -6.079  -6.107  0.00  0.00    +0.258 C 
BRANCH  25  26
ATOM     26  O   UNL     1       9.170  -6.071  -5.364  0.00  0.00    -0.488 OA
BRANCH  26  27
ATOM     27  C   UNL     1      10.261  -6.617  -5.964  0.00  0.00    +0.139 A 
ATOM     28  C   UNL     1      10.159  -7.144  -7.243  0.00  0.00    +0.048 A 
ATOM     29  C   UNL     1      11.269  -7.699  -7.851  0.00  0.00    +0.023 A 
ATOM     30  C   UNL     1      12.482  -7.729  -7.185  0.00  0.00    +0.043 A 
ATOM     31  C   UNL     1      12.586  -7.204  -5.909  0.00  0.00    +0.043 A 
ATOM     32  C   UNL     1      11.479  -6.643  -5.299  0.00  0.00    +0.084 A 
ATOM     33 CL   UNL     1      11.611  -5.978  -3.701  0.00  0.00    -0.080 Cl
ATOM     34 CL   UNL     1      13.874  -8.427  -7.951  0.00  0.00    -0.083 Cl
ENDBRANCH  26  27
ENDBRANCH  25  26
ENDBRANCH  22  25
ENDBRANCH  21  22
ENDBRANCH   1  21
TORSDOF 12
