REMARK  Name = ZINC41023161
REMARK  15 active torsions:
REMARK  status: ('A' for Active; 'I' for Inactive)
REMARK    1  A    between atoms: C_1  and  C_2
REMARK    2  A    between atoms: C_2  and  C_3
REMARK    3  A    between atoms: C_3  and  S_4
REMARK    4  A    between atoms: S_4  and  C_5
REMARK    5  A    between atoms: C_10  and  C_28
REMARK    6  A    between atoms: C_12  and  C_16
REMARK    7  A    between atoms: C_13  and  C_15
REMARK    8  A    between atoms: N_18  and  C_19
REMARK    9  A    between atoms: C_24  and  O_25
REMARK   10  A    between atoms: O_25  and  C_26
REMARK   11  A    between atoms: C_26  and  C_27
REMARK   12  A    between atoms: C_31  and  C_34
REMARK   13  A    between atoms: C_34  and  C_35
REMARK   14  A    between atoms: C_34  and  C_36
REMARK   15  A    between atoms: C_34  and  C_37
REMARK                            x       y       z     vdW  Elec       q    Type
REMARK                         _______ _______ _______ _____ _____    ______ ____
ROOT
ATOM      1  C   UNL     1       1.413  -2.758  -2.842  0.00  0.00    +0.210 A 
ATOM      2  N   UNL     1       1.950  -1.884  -3.706  0.00  0.00    -0.187 NA
ATOM      3  C   UNL     1       2.536  -2.532  -4.675  0.00  0.00    +0.219 A 
ATOM      4  N   UNL     1       2.388  -3.860  -4.443  0.00  0.00    -0.220 N 
ATOM      5  N   UNL     1       1.665  -3.981  -3.257  0.00  0.00    -0.141 NA
ATOM      6  C   UNL     1       2.927  -4.898  -5.318  0.00  0.00    +0.177 C 
ATOM      7  C   UNL     1       3.380  -4.277  -6.612  0.00  0.00    +0.060 C 
ATOM      8  C   UNL     1       3.505  -2.953  -6.785  0.00  0.00    +0.018 C 
ATOM      9  N   UNL     1       3.214  -2.055  -5.788  0.00  0.00    -0.287 N 
ATOM     10  C   UNL     1       3.979  -2.434  -8.118  0.00  0.00    +0.061 C 
ATOM     11  H   UNL     1       3.472  -1.122  -5.859  0.00  0.00    +0.155 HD
ENDROOT
BRANCH   6  12
ATOM     12  C   UNL     1       4.098  -5.565  -4.644  0.00  0.00    -0.018 A 
ATOM     13  C   UNL     1       5.205  -4.819  -4.282  0.00  0.00    +0.006 A 
ATOM     14  C   UNL     1       6.279  -5.431  -3.663  0.00  0.00    +0.004 A 
ATOM     15  C   UNL     1       6.247  -6.789  -3.406  0.00  0.00    -0.042 A 
ATOM     16  C   UNL     1       5.140  -7.535  -3.767  0.00  0.00    +0.004 A 
ATOM     17  C   UNL     1       4.064  -6.922  -4.382  0.00  0.00    +0.006 A 
BRANCH  15  18
ATOM     18  C   UNL     1       7.418  -7.456  -2.733  0.00  0.00    -0.013 C 
ATOM     19  C   UNL     1       7.643  -6.825  -1.358  0.00  0.00    +0.015 C 
ATOM     20  C   UNL     1       7.128  -8.949  -2.567  0.00  0.00    +0.015 C 
ATOM     21  C   UNL     1       8.672  -7.272  -3.590  0.00  0.00    +0.015 C 
ENDBRANCH  15  18
ENDBRANCH   6  12
BRANCH   7  22
ATOM     22  C   UNL     1       3.690  -5.131  -7.697  0.00  0.00    +0.248 C 
ATOM     23  O   UNL     1       2.794  -5.660  -8.331  0.00  0.00    -0.270 OA
ATOM     24  N   UNL     1       4.976  -5.359  -8.030  0.00  0.00    -0.279 N 
ATOM     25  H   UNL     1       5.690  -4.988  -7.489  0.00  0.00    +0.155 HD
BRANCH  24  26
ATOM     26  C   UNL     1       5.281  -6.130  -9.159  0.00  0.00    +0.076 A 
ATOM     27  C   UNL     1       4.467  -7.197  -9.512  0.00  0.00    +0.027 A 
ATOM     28  C   UNL     1       4.770  -7.957 -10.626  0.00  0.00    +0.002 A 
ATOM     29  C   UNL     1       5.883  -7.657 -11.390  0.00  0.00    +0.004 A 
ATOM     30  C   UNL     1       6.699  -6.596 -11.043  0.00  0.00    +0.047 A 
ATOM     31  C   UNL     1       6.399  -5.825  -9.932  0.00  0.00    +0.142 A 
BRANCH  31  32
ATOM     32  O   UNL     1       7.197  -4.778  -9.593  0.00  0.00    -0.490 OA
BRANCH  32  33
ATOM     33  C   UNL     1       8.325  -4.524 -10.432  0.00  0.00    +0.226 C 
ATOM     34  C   UNL     1       9.098  -3.317  -9.896  0.00  0.00    +0.048 C 
ENDBRANCH  32  33
ENDBRANCH  31  32
ENDBRANCH  24  26
ENDBRANCH   7  22
BRANCH   1  35
ATOM     35  S   UNL     1       0.521  -2.337  -1.381  0.00  0.00    -0.084 S 
BRANCH  35  36
ATOM     36  C   UNL     1       0.521  -0.523  -1.375  0.00  0.00    +0.077 C 
BRANCH  36  38
ATOM     37  C   UNL     1      -0.232   1.512  -0.137  0.00  0.00    +0.004 C 
ATOM     38  C   UNL     1      -0.232  -0.018  -0.143  0.00  0.00    +0.008 C 
ENDBRANCH  36  38
ENDBRANCH  35  36
ENDBRANCH   1  35
TORSDOF 9
