REMARK  Name = ZINC19824481
REMARK  16 active torsions:
REMARK  status: ('A' for Active; 'I' for Inactive)
REMARK    1  A    between atoms: C_1  and  C_2
REMARK    2  A    between atoms: C_2  and  O_3
REMARK    3  A    between atoms: O_3  and  C_4
REMARK    4  A    between atoms: C_11  and  C_16
REMARK    5  A    between atoms: C_16  and  N_17
REMARK    6  A    between atoms: N_17  and  C_18
REMARK    7  A    between atoms: N_17  and  C_26
REMARK    8  A    between atoms: C_18  and  C_19
REMARK    9  A    between atoms: C_19  and  N_20
REMARK   10  A    between atoms: C_26  and  N_28
REMARK   11  A    between atoms: N_28  and  C_29
REMARK   12  A    between atoms: C_29  and  C_30
REMARK   13  A    between atoms: C_30  and  C_31
REMARK   14  A    between atoms: C_31  and  N_32
REMARK   15  A    between atoms: N_32  and  C_33
REMARK   16  A    between atoms: N_32  and  C_34
REMARK                            x       y       z     vdW  Elec       q    Type
REMARK                         _______ _______ _______ _____ _____    ______ ____
ROOT
ATOM      1  N   UNL     1       1.071  -2.729   1.352  0.00  0.00    -0.307 N 
ENDROOT
BRANCH   1   2
ATOM      2  C   UNL     1       2.182  -2.977   2.075  0.00  0.00    +0.133 C 
ATOM      3  S   UNL     1       3.727  -2.715   1.386  0.00  0.00    -0.019 S 
BRANCH   2   4
ATOM      4  N   UNL     1       2.076  -3.432   3.339  0.00  0.00    -0.326 N 
ATOM      5  H   UNL     1       1.083  -3.600   3.781  0.00  0.00    +0.148 HD
BRANCH   4   6
ATOM      6  C   UNL     1       3.283  -3.701   4.124  0.00  0.00    +0.101 C 
BRANCH   6   7
ATOM      7  C   UNL     1       2.885  -4.203   5.514  0.00  0.00    +0.000 C 
BRANCH   7   8
ATOM      8  C   UNL     1       4.146  -4.485   6.334  0.00  0.00    -0.078 C 
BRANCH   8   9
ATOM      9  N   UNL     1       3.764  -4.967   7.668  0.00  0.00    +0.376 N 
ATOM     10  C   UNL     1       4.934  -5.471   8.400  0.00  0.00    -0.097 C 
ATOM     11  C   UNL     1       3.078  -3.916   8.432  0.00  0.00    -0.097 C 
ATOM     12  H   UNL     1       3.062  -5.803   7.537  0.00  0.00    -0.083 HD
ENDBRANCH   8   9
ENDBRANCH   7   8
ENDBRANCH   6   7
ENDBRANCH   4   6
ENDBRANCH   2   4
ENDBRANCH   1   2
BRANCH   1  13
ATOM     13  C   UNL     1       1.187  -2.235  -0.022  0.00  0.00    +0.147 C 
BRANCH  13  21
ATOM     14  C   UNL     1       3.542   3.499  -0.014  0.00  0.00    +0.121 A 
ATOM     15  C   UNL     1       2.318   4.164   0.002  0.00  0.00    +0.047 A 
ATOM     16  C   UNL     1       1.136   3.457   0.010  0.00  0.00    +0.030 A 
ATOM     17  C   UNL     1       1.157   2.066   0.002  0.00  0.00    +0.049 A 
ATOM     18  C   UNL     1       2.392   1.391  -0.014  0.00  0.00    +0.002 A 
ATOM     19  C   UNL     1       3.586   2.120  -0.022  0.00  0.00    +0.055 A 
ATOM     20  C   UNL     1       2.401  -0.073  -0.022  0.00  0.00    +0.020 A 
ATOM     21  C   UNL     1       1.213  -0.728  -0.014  0.00  0.00    +0.035 A 
ATOM     22  C   UNL     1       0.002  -0.004   0.002  0.00  0.00    +0.254 A 
ATOM     23  O   UNL     1      -1.054  -0.613   0.009  0.00  0.00    -0.268 OA
ATOM     24  N   UNL     1      -0.016   1.340   0.009  0.00  0.00    -0.322 N 
ATOM     25  H   UNL     1      -0.985   1.861   0.021  0.00  0.00    +0.169 HD
BRANCH  14  26
ATOM     26  O   UNL     1       4.699   4.213  -0.022  0.00  0.00    -0.492 OA
BRANCH  26  28
ATOM     27  C   UNL     1       5.979   6.263  -0.023  0.00  0.00    +0.048 C 
ATOM     28  C   UNL     1       4.583   5.637  -0.013  0.00  0.00    +0.225 C 
ENDBRANCH  26  28
ENDBRANCH  14  26
ENDBRANCH  13  21
ENDBRANCH   1  13
BRANCH   1  29
ATOM     29  C   UNL     1      -0.251  -2.953   1.941  0.00  0.00    +0.122 C 
BRANCH  29  30
ATOM     30  C   UNL     1      -0.698  -4.389   1.659  0.00  0.00    +0.103 C 
BRANCH  30  31
ATOM     31  N   UNL     1      -2.024  -4.614   2.250  0.00  0.00    -0.297 NA
ATOM     32  C   UNL     1      -1.964  -4.556   3.718  0.00  0.00    +0.112 C 
ATOM     33  C   UNL     1      -3.373  -4.735   4.288  0.00  0.00    +0.175 C 
ATOM     34  O   UNL     1      -3.918  -5.971   3.818  0.00  0.00    -0.377 OA
ATOM     35  C   UNL     1      -3.992  -6.062   2.393  0.00  0.00    +0.175 C 
ATOM     36  C   UNL     1      -2.589  -5.896   1.803  0.00  0.00    +0.112 C 
ENDBRANCH  30  31
ENDBRANCH  29  30
ENDBRANCH   1  29
TORSDOF 13
