REMARK  Name = ZINC67160542
REMARK  10 active torsions:
REMARK  status: ('A' for Active; 'I' for Inactive)
REMARK    1  A    between atoms: C_1  and  C_2
REMARK    2  A    between atoms: C_2  and  C_3
REMARK    3  A    between atoms: C_2  and  C_4
REMARK    4  A    between atoms: C_2  and  C_5
REMARK    5  A    between atoms: C_11  and  N_13
REMARK    6  A    between atoms: C_14  and  C_16
REMARK    7  A    between atoms: C_16  and  C_17
REMARK    8  A    between atoms: C_17  and  C_18
REMARK    9  A    between atoms: C_18  and  C_19
REMARK   10  A    between atoms: C_19  and  C_20
REMARK                            x       y       z     vdW  Elec       q    Type
REMARK                         _______ _______ _______ _____ _____    ______ ____
ROOT
ATOM      1  C   UNL     1       4.442  -1.443   1.415  0.00  0.00    +0.096 C 
ENDROOT
BRANCH   1   3
ATOM      2  N   UNL     1       2.587  -1.284  -0.212  0.00  0.00    -0.312 N 
ATOM      3  C   UNL     1       3.788  -0.835   0.201  0.00  0.00    +0.213 C 
ATOM      4  O   UNL     1       4.343   0.058  -0.404  0.00  0.00    -0.276 OA
ATOM      5  H   UNL     1       2.143  -1.998   0.271  0.00  0.00    +0.149 HD
BRANCH   2  11
ATOM      6  C   UNL     1       0.433  -0.671  -1.197  0.00  0.00    +0.015 C 
ATOM      7  C   UNL     1      -0.077  -2.100  -1.005  0.00  0.00    +0.006 C 
ATOM      8  C   UNL     1       0.266  -2.935  -2.241  0.00  0.00    +0.000 C 
ATOM      9  C   UNL     1       1.783  -2.957  -2.436  0.00  0.00    +0.002 C 
ATOM     10  C   UNL     1       2.294  -1.527  -2.628  0.00  0.00    +0.022 C 
ATOM     11  C   UNL     1       1.951  -0.693  -1.393  0.00  0.00    +0.077 C 
BRANCH   6  13
ATOM     12  C   UNL     1       0.744   1.542  -0.079  0.00  0.00    +0.011 C 
ATOM     13  C   UNL     1       0.090   0.164   0.039  0.00  0.00    -0.033 C 
ATOM     14  C   UNL     1       0.612  -0.543   1.292  0.00  0.00    +0.011 C 
ATOM     15  C   UNL     1      -1.428   0.326   0.139  0.00  0.00    +0.011 C 
ENDBRANCH   6  13
ENDBRANCH   2  11
ENDBRANCH   1   3
BRANCH   1  16
ATOM     16  C   UNL     1       5.787  -0.758   1.666  0.00  0.00    +0.009 C 
BRANCH  16  17
ATOM     17  C   UNL     1       6.452  -1.376   2.899  0.00  0.00    +0.002 C 
BRANCH  17  18
ATOM     18  C   UNL     1       7.796  -0.691   3.150  0.00  0.00    +0.016 C 
BRANCH  18  19
ATOM     19  C   UNL     1       8.461  -1.308   4.382  0.00  0.00    +0.069 C 
ATOM     20  C   UNL     1       9.777  -0.638   4.685  0.00  0.00    +0.108 C 
ATOM     21  C   UNL     1      10.689  -1.653   5.441  0.00  0.00    +0.105 C 
ATOM     22  C   UNL     1      10.833  -2.848   4.500  0.00  0.00    +0.093 C 
ATOM     23  S   UNL     1       9.027  -3.039   4.041  0.00  0.00    -0.154 S 
ATOM     24  N   UNL     1      11.807  -0.786   5.738  0.00  0.00    -0.294 N 
ATOM     25  C   UNL     1      11.266   0.455   5.921  0.00  0.00    +0.300 C 
ATOM     26  O   UNL     1      11.867   1.384   6.425  0.00  0.00    -0.253 OA
ATOM     27  N   UNL     1       9.977   0.530   5.490  0.00  0.00    -0.294 N 
ATOM     28  H   UNL     1      12.743  -1.034   5.795  0.00  0.00    +0.151 HD
ATOM     29  H   UNL     1       9.335   1.230   5.684  0.00  0.00    +0.151 HD
ENDBRANCH  18  19
ENDBRANCH  17  18
ENDBRANCH  16  17
ENDBRANCH   1  16
TORSDOF 7
