REMARK  Name = ZINC59898618
REMARK  5 active torsions:
REMARK  status: ('A' for Active; 'I' for Inactive)
REMARK    1  A    between atoms: C_1  and  C_2
REMARK    2  A    between atoms: C_4  and  C_15
REMARK    3  A    between atoms: C_5  and  C_14
REMARK    4  A    between atoms: N_6  and  C_7
REMARK    5  A    between atoms: C_15  and  N_17
REMARK                            x       y       z     vdW  Elec       q    Type
REMARK                         _______ _______ _______ _____ _____    ______ ____
ROOT
ATOM      1  C   UNL     1      -0.018   1.503   0.010  0.00  0.00    +0.064 C 
ATOM      2  C   UNL     1       0.002  -0.004   0.002  0.00  0.00    +0.022 A 
ATOM      3  C   UNL     1       0.008  -0.781  -1.096  0.00  0.00    +0.036 A 
ATOM      4  C   UNL     1       0.029  -2.169  -0.626  0.00  0.00    +0.060 A 
ATOM      5  C   UNL     1       0.034  -2.110   0.739  0.00  0.00    +0.033 A 
ATOM      6  N   UNL     1       0.024  -0.805   1.109  0.00  0.00    -0.317 N 
ATOM      7  C   UNL     1       0.053  -3.292   1.673  0.00  0.00    +0.064 C 
ENDROOT
BRANCH   6   8
ATOM      8  C   UNL     1       0.030  -0.345   2.433  0.00  0.00    +0.047 A 
ATOM      9  C   UNL     1       1.133  -0.577   3.244  0.00  0.00    +0.027 A 
ATOM     10  C   UNL     1       1.137  -0.123   4.548  0.00  0.00    +0.017 A 
ATOM     11  C   UNL     1       0.044   0.562   5.047  0.00  0.00    +0.018 A 
ATOM     12  C   UNL     1      -1.057   0.794   4.241  0.00  0.00    +0.017 A 
ATOM     13  C   UNL     1      -1.063   0.348   2.934  0.00  0.00    +0.027 A 
ATOM     14 BR   UNL     1       0.053   1.182   6.834  0.00  0.00    -0.050 Br
ENDBRANCH   6   8
BRANCH   4  15
ATOM     15  C   UNL     1       0.042  -3.387  -1.460  0.00  0.00    +0.272 C 
ATOM     16  O   UNL     1       0.059  -4.488  -0.933  0.00  0.00    -0.268 OA
BRANCH  15  17
ATOM     17  N   UNL     1       0.036  -3.285  -2.792  0.00  0.00    -0.141 NA
ATOM     18  C   UNL     1       0.047  -4.385  -3.545  0.00  0.00    +0.223 A 
ATOM     19  N   UNL     1       0.060  -5.657  -3.097  0.00  0.00    -0.246 N 
ATOM     20  N   UNL     1       0.070  -6.501  -4.215  0.00  0.00    -0.153 NA
ATOM     21  C   UNL     1       0.063  -5.753  -5.295  0.00  0.00    +0.160 A 
ATOM     22  N   UNL     1       0.043  -4.428  -4.909  0.00  0.00    -0.271 N 
ATOM     23  C   UNL     1       0.026  -3.436  -5.857  0.00  0.00    +0.096 A 
ATOM     24  C   UNL     1       0.026  -3.739  -7.168  0.00  0.00    +0.018 A 
ATOM     25  C   UNL     1       0.042  -5.082  -7.592  0.00  0.00    +0.005 A 
ATOM     26  C   UNL     1       0.067  -6.080  -6.674  0.00  0.00    +0.048 A 
ATOM     27  H   UNL     1       0.063  -5.936  -2.168  0.00  0.00    +0.192 HD
ENDBRANCH  15  17
ENDBRANCH   4  15
TORSDOF 3
