REMARK  Name = ZINC46017656
REMARK  6 active torsions:
REMARK  status: ('A' for Active; 'I' for Inactive)
REMARK    1  A    between atoms: C_1  and  C_2
REMARK    2  A    between atoms: C_4  and  C_24
REMARK    3  A    between atoms: C_5  and  S_9
REMARK    4  A    between atoms: C_7  and  C_8
REMARK    5  A    between atoms: S_9  and  N_12
REMARK    6  A    between atoms: N_12  and  C_13
REMARK                            x       y       z     vdW  Elec       q    Type
REMARK                         _______ _______ _______ _____ _____    ______ ____
ROOT
ATOM      1  N   UNL     1      -1.229  -5.011  -1.222  0.00  0.00    -0.216 N 
ATOM      2  H   UNL     1      -1.027  -5.437  -2.070  0.00  0.00    +0.174 HD
ENDROOT
BRANCH   1   3
ATOM      3  C   UNL     1      -2.559  -4.771  -0.859  0.00  0.00    +0.049 A 
ATOM      4  C   UNL     1      -3.009  -5.082   0.419  0.00  0.00    +0.026 A 
ATOM      5  C   UNL     1      -4.312  -4.853   0.790  0.00  0.00    +0.028 A 
ATOM      6  C   UNL     1      -5.233  -4.295  -0.113  0.00  0.00    +0.056 A 
ATOM      7  C   UNL     1      -4.752  -3.991  -1.394  0.00  0.00    +0.042 A 
ATOM      8  C   UNL     1      -3.449  -4.212  -1.769  0.00  0.00    +0.041 A 
ATOM      9  S   UNL     1      -6.178  -3.322  -2.215  0.00  0.00    -0.027 S 
ATOM     10  C   UNL     1      -7.332  -3.468  -0.860  0.00  0.00    +0.289 A 
ATOM     11  O   UNL     1      -8.509  -3.160  -0.825  0.00  0.00    -0.260 OA
ATOM     12  N   UNL     1      -6.571  -4.006   0.113  0.00  0.00    -0.316 N 
ATOM     13  H   UNL     1      -6.963  -4.194   0.980  0.00  0.00    +0.169 HD
ENDBRANCH   1   3
BRANCH   1  14
ATOM     14  S   UNL     1      -0.000  -4.567  -0.205  0.00  0.00    +0.073 S 
ATOM     15  O   UNL     1       1.214  -4.836  -0.893  0.00  0.00    -0.150 OA
ATOM     16  O   UNL     1      -0.299  -5.133   1.064  0.00  0.00    -0.150 OA
BRANCH  14  21
ATOM     17  C   UNL     1      -0.315   1.421   0.463  0.00  0.00    +0.044 C 
ATOM     18  C   UNL     1      -0.236  -0.074   0.297  0.00  0.00    -0.047 A 
ATOM     19  C   UNL     1       0.048  -0.618  -0.943  0.00  0.00    +0.009 A 
ATOM     20  C   UNL     1       0.120  -1.989  -1.096  0.00  0.00    -0.024 A 
ATOM     21  C   UNL     1      -0.091  -2.818  -0.009  0.00  0.00    +0.112 A 
ATOM     22  C   UNL     1      -0.375  -2.275   1.230  0.00  0.00    +0.032 A 
ATOM     23  C   UNL     1      -0.443  -0.903   1.383  0.00  0.00    -0.046 A 
ATOM     24  C   UNL     1      -0.746  -0.310   2.736  0.00  0.00    +0.044 C 
ATOM     25  C   UNL     1       0.429  -2.582  -2.446  0.00  0.00    +0.046 C 
ENDBRANCH  14  21
ENDBRANCH   1  14
TORSDOF 3
