REMARK  Name = ZINC10771698
REMARK  6 active torsions:
REMARK  status: ('A' for Active; 'I' for Inactive)
REMARK    1  A    between atoms: C_3  and  C_6
REMARK    2  A    between atoms: C_11  and  C_14
REMARK    3  A    between atoms: C_14  and  C_15
REMARK    4  A    between atoms: N_17  and  C_18
REMARK    5  A    between atoms: C_18  and  C_19
REMARK    6  A    between atoms: C_19  and  C_24
REMARK                            x       y       z     vdW  Elec       q    Type
REMARK                         _______ _______ _______ _____ _____    ______ ____
ROOT
ATOM      1  C   UNL     1       5.558   1.831   1.927  0.00  0.00    +0.219 C 
ATOM      2  O   UNL     1       6.177   1.188   2.748  0.00  0.00    -0.275 OA
ATOM      3  N   UNL     1       4.737   1.205   1.060  0.00  0.00    -0.314 N 
ATOM      4  H   UNL     1       4.242   1.719   0.404  0.00  0.00    +0.149 HD
ENDROOT
BRANCH   1   5
ATOM      5  C   UNL     1       5.706   3.329   1.876  0.00  0.00    +0.151 C 
BRANCH   5  11
ATOM      6  C   UNL     1       8.250   4.068   7.314  0.00  0.00    +0.285 C 
ATOM      7  O   UNL     1       9.159   4.727   6.844  0.00  0.00    -0.266 OA
ATOM      8  N   UNL     1       7.284   3.581   6.510  0.00  0.00    -0.258 N 
ATOM      9  C   UNL     1       7.326   3.832   5.144  0.00  0.00    +0.165 A 
ATOM     10  N   UNL     1       6.485   3.447   4.205  0.00  0.00    -0.229 NA
ATOM     11  C   UNL     1       6.674   3.775   2.942  0.00  0.00    +0.059 A 
ATOM     12  C   UNL     1       7.762   4.518   2.623  0.00  0.00    +0.072 A 
ATOM     13  S   UNL     1       8.501   4.733   4.236  0.00  0.00    -0.060 S 
ATOM     14  H   UNL     1       6.560   3.056   6.884  0.00  0.00    +0.157 HD
BRANCH   6  17
ATOM     15  C   UNL     1       8.683   3.754  10.925  0.00  0.00    +0.042 A 
ATOM     16  C   UNL     1       9.115   4.234   9.679  0.00  0.00    +0.054 A 
ATOM     17  C   UNL     1       8.206   3.803   8.755  0.00  0.00    +0.189 A 
ATOM     18  O   UNL     1       7.256   3.096   9.403  0.00  0.00    -0.458 OA
ATOM     19  C   UNL     1       7.543   3.059  10.710  0.00  0.00    +0.196 A 
ENDBRANCH   6  17
ENDBRANCH   5  11
ENDBRANCH   1   5
BRANCH   3  20
ATOM     20  C   UNL     1       4.593  -0.252   1.110  0.00  0.00    +0.115 C 
BRANCH  20  21
ATOM     21  C   UNL     1       3.695  -0.716  -0.038  0.00  0.00    +0.011 C 
ATOM     22  C   UNL     1       4.281  -0.251  -1.388  0.00  0.00    +0.013 C 
ATOM     23  C   UNL     1       5.091  -1.473  -1.890  0.00  0.00    +0.001 C 
ATOM     24  C   UNL     1       4.207  -2.670  -1.460  0.00  0.00    +0.001 C 
ATOM     25  C   UNL     1       3.648  -2.253  -0.084  0.00  0.00    +0.013 C 
BRANCH  21  26
ATOM     26  C   UNL     1       2.304  -0.162   0.138  0.00  0.00    -0.036 A 
ATOM     27  C   UNL     1       1.345  -0.382  -0.832  0.00  0.00    +0.008 A 
ATOM     28  C   UNL     1       0.070   0.126  -0.675  0.00  0.00    +0.050 A 
ATOM     29  C   UNL     1      -0.252   0.858   0.458  0.00  0.00    +0.162 A 
ATOM     30  C   UNL     1       0.712   1.077   1.436  0.00  0.00    +0.162 A 
ATOM     31  C   UNL     1       1.991   0.566   1.271  0.00  0.00    +0.053 A 
ATOM     32  O   UNL     1       0.416   1.786   2.559  0.00  0.00    -0.485 OA
ATOM     33  C   UNL     1      -0.762   2.599   2.516  0.00  0.00    +0.270 C 
ATOM     34  C   UNL     1      -1.900   1.763   1.913  0.00  0.00    +0.270 C 
ATOM     35  O   UNL     1      -1.510   1.359   0.596  0.00  0.00    -0.485 OA
ENDBRANCH  21  26
ENDBRANCH  20  21
ENDBRANCH   3  20
TORSDOF 6
