REMARK  Name = ZINC15728022
REMARK  2 active torsions:
REMARK  status: ('A' for Active; 'I' for Inactive)
REMARK    1  A    between atoms: C_5  and  N_7
REMARK    2  A    between atoms: C_8  and  C_10
REMARK                            x       y       z     vdW  Elec       q    Type
REMARK                         _______ _______ _______ _____ _____    ______ ____
ROOT
ATOM      1  C   UNL     1       3.628   6.001  -0.215  0.00  0.00    +0.093 C 
ATOM      2  C   UNL     1       3.327   7.500  -0.303  0.00  0.00    +0.016 C 
ATOM      3  C   UNL     1       4.646   8.274  -0.365  0.00  0.00    +0.020 C 
ATOM      4  C   UNL     1       5.488   7.939   0.869  0.00  0.00    +0.107 C 
ATOM      5  N   UNL     1       5.749   6.494   0.907  0.00  0.00    -0.307 N 
ATOM      6  C   UNL     1       4.499   5.732   1.014  0.00  0.00    +0.119 C 
ATOM      7  C   UNL     1       6.619   6.173   1.940  0.00  0.00    +0.186 A 
ATOM      8  N   UNL     1       6.468   5.325   2.947  0.00  0.00    -0.124 NA
ATOM      9  N   UNL     1       7.372   5.147   3.809  0.00  0.00    -0.121 NA
ATOM     10  C   UNL     1       8.520   5.803   3.768  0.00  0.00    +0.202 A 
ATOM     11  S   UNL     1       8.261   6.791   2.298  0.00  0.00    -0.013 S 
ATOM     12  N   UNL     1       9.619   5.742   4.626  0.00  0.00    -0.301 N 
ATOM     13  C   UNL     1      10.773   6.461   4.494  0.00  0.00    +0.093 A 
ATOM     14  C   UNL     1      11.593   6.132   5.513  0.00  0.00    +0.019 A 
ATOM     15  C   UNL     1      10.928   5.168   6.298  0.00  0.00    +0.019 A 
ATOM     16  C   UNL     1       9.723   4.948   5.732  0.00  0.00    +0.093 A 
ENDROOT
BRANCH   1  18
ATOM     17  N   UNL     1       2.356   3.891   0.001  0.00  0.00    -0.284 N 
ATOM     18  C   UNL     1       2.336   5.235  -0.093  0.00  0.00    +0.222 C 
ATOM     19  O   UNL     1       1.278   5.828  -0.081  0.00  0.00    -0.275 OA
ATOM     20  H   UNL     1       3.203   3.421   0.056  0.00  0.00    +0.155 HD
BRANCH  17  25
ATOM     21  C   UNL     1      -1.151   2.997   0.654  0.00  0.00    +0.002 A 
ATOM     22  C   UNL     1      -1.222   1.754   0.050  0.00  0.00    +0.001 A 
ATOM     23  C   UNL     1      -0.105   1.215  -0.562  0.00  0.00    +0.017 A 
ATOM     24  C   UNL     1       1.082   1.922  -0.582  0.00  0.00    +0.039 A 
ATOM     25  C   UNL     1       1.155   3.172   0.019  0.00  0.00    +0.047 A 
ATOM     26  C   UNL     1       0.033   3.708   0.638  0.00  0.00    +0.024 A 
ATOM     27 BR   UNL     1       2.607   1.187  -1.425  0.00  0.00    -0.048 Br
ENDBRANCH  17  25
ENDBRANCH   1  18
TORSDOF 2
