REMARK  Name = ZINC19841684
REMARK  10 active torsions:
REMARK  status: ('A' for Active; 'I' for Inactive)
REMARK    1  A    between atoms: C_1  and  C_2
REMARK    2  A    between atoms: C_2  and  C_3
REMARK    3  A    between atoms: C_3  and  C_4
REMARK    4  A    between atoms: C_4  and  C_5
REMARK    5  A    between atoms: C_9  and  C_11
REMARK    6  A    between atoms: C_11  and  N_12
REMARK    7  A    between atoms: C_15  and  C_18
REMARK    8  A    between atoms: C_18  and  C_30
REMARK    9  A    between atoms: N_21  and  C_25
REMARK   10  A    between atoms: C_30  and  C_31
REMARK                            x       y       z     vdW  Elec       q    Type
REMARK                         _______ _______ _______ _____ _____    ______ ____
ROOT
ATOM      1  C   UNL     1      -0.547  -8.803  -6.798  0.00  0.00    +0.119 C 
ATOM      2  C   UNL     1       0.355  -9.459  -5.772  0.00  0.00    +0.247 C 
ATOM      3  O   UNL     1       1.568  -9.478  -5.768  0.00  0.00    -0.273 OA
ATOM      4  N   UNL     1      -0.470 -10.017  -4.864  0.00  0.00    -0.221 N 
ATOM      5  C   UNL     1      -1.755  -9.807  -5.170  0.00  0.00    +0.310 C 
ATOM      6  O   UNL     1      -2.684 -10.214  -4.502  0.00  0.00    -0.252 OA
ATOM      7  N   UNL     1      -1.904  -9.095  -6.302  0.00  0.00    -0.284 N 
ATOM      8  H   UNL     1      -2.741  -8.826  -6.712  0.00  0.00    +0.151 HD
ENDROOT
BRANCH   1  12
ATOM      9  N   UNL     1       1.284  -5.013  -6.056  0.00  0.00    -0.297 NA
ATOM     10  C   UNL     1      -0.043  -5.227  -5.465  0.00  0.00    +0.085 C 
ATOM     11  C   UNL     1      -0.347  -6.726  -5.420  0.00  0.00    +0.021 C 
ATOM     12  C   UNL     1      -0.304  -7.293  -6.842  0.00  0.00    +0.024 C 
ATOM     13  C   UNL     1       1.073  -7.015  -7.452  0.00  0.00    +0.021 C 
ATOM     14  C   UNL     1       1.336  -5.508  -7.438  0.00  0.00    +0.085 C 
BRANCH   9  15
ATOM     15  C   UNL     1       1.668  -3.597  -5.989  0.00  0.00    +0.139 C 
BRANCH  15  20
ATOM     16  C   UNL     1       1.444  -2.513  -2.505  0.00  0.00    +0.084 A 
ATOM     17  N   UNL     1       2.724  -2.749  -2.609  0.00  0.00    -0.350 N 
ATOM     18  H   UNL     1      -0.088  -2.699  -3.897  0.00  0.00    +0.167 HD
ATOM     19  C   UNL     1       2.996  -3.168  -3.854  0.00  0.00    +0.106 A 
ATOM     20  C   UNL     1       1.842  -3.192  -4.548  0.00  0.00    +0.047 A 
ATOM     21  N   UNL     1       0.857  -2.782  -3.691  0.00  0.00    -0.346 N 
ATOM     22  H   UNL     1       3.374  -2.639  -1.899  0.00  0.00    +0.166 HD
BRANCH  16  23
ATOM     23  C   UNL     1       0.739  -2.027  -1.265  0.00  0.00    +0.072 C 
BRANCH  23  24
ATOM     24  C   UNL     1       0.718  -0.497  -1.257  0.00  0.00    +0.007 C 
BRANCH  24  26
ATOM     25  C   UNL     1      -0.019   1.526   0.010  0.00  0.00    +0.004 C 
ATOM     26  C   UNL     1       0.002  -0.004   0.002  0.00  0.00    -0.003 C 
ENDBRANCH  24  26
ENDBRANCH  23  24
ENDBRANCH  16  23
ENDBRANCH  15  20
ENDBRANCH   9  15
ENDBRANCH   1  12
BRANCH   4  27
ATOM     27  C   UNL     1      -0.015 -10.762  -3.687  0.00  0.00    +0.086 C 
ATOM     28  C   UNL     1      -0.614 -12.184  -3.699  0.00  0.00    +0.023 C 
ATOM     29  C   UNL     1      -0.914 -12.482  -2.209  0.00  0.00    +0.002 C 
ATOM     30  C   UNL     1      -1.413 -11.115  -1.681  0.00  0.00    +0.002 C 
ATOM     31  C   UNL     1      -0.524 -10.082  -2.404  0.00  0.00    +0.023 C 
ENDBRANCH   4  27
BRANCH   1  32
ATOM     32  C   UNL     1      -0.335  -9.422  -8.181  0.00  0.00    +0.070 C 
BRANCH  32  33
ATOM     33  C   UNL     1      -0.699 -10.884  -8.138  0.00  0.00    -0.045 A 
ATOM     34  C   UNL     1       0.261 -11.826  -7.818  0.00  0.00    +0.006 A 
ATOM     35  C   UNL     1      -0.071 -13.166  -7.779  0.00  0.00    +0.038 A 
ATOM     36  C   UNL     1      -1.367 -13.566  -8.060  0.00  0.00    +0.123 A 
ATOM     37  C   UNL     1      -2.327 -12.622  -8.381  0.00  0.00    +0.038 A 
ATOM     38  C   UNL     1      -1.994 -11.281  -8.414  0.00  0.00    +0.006 A 
ATOM     39  F   UNL     1      -1.693 -14.877  -8.022  0.00  0.00    -0.205 F 
ENDBRANCH  32  33
ENDBRANCH   1  32
TORSDOF 9
