REMARK  Name = ZINC02192378
REMARK  5 active torsions:
REMARK  status: ('A' for Active; 'I' for Inactive)
REMARK    1  A    between atoms: C_1  and  C_2
REMARK    2  A    between atoms: C_5  and  N_8
REMARK    3  A    between atoms: C_16  and  C_20
REMARK    4  A    between atoms: C_16  and  N_24
REMARK    5  A    between atoms: C_25  and  C_27
REMARK                            x       y       z     vdW  Elec       q    Type
REMARK                         _______ _______ _______ _____ _____    ______ ____
ROOT
ATOM      1  N   UNL     1       0.242  -3.797   0.412  0.00  0.00    -0.249 N 
ATOM      2  C   UNL     1       0.249  -4.662   1.488  0.00  0.00    +0.125 A 
ATOM      3  C   UNL     1       0.331  -6.000   1.242  0.00  0.00    +0.097 A 
ATOM      4  C   UNL     1       0.405  -6.471  -0.075  0.00  0.00    +0.262 A 
ATOM      5  N   UNL     1       0.394  -5.588  -1.095  0.00  0.00    -0.274 N 
ATOM      6  C   UNL     1       0.308  -4.268  -0.845  0.00  0.00    +0.335 A 
ATOM      7  O   UNL     1       0.295  -3.486  -1.776  0.00  0.00    -0.246 OA
ATOM      8  O   UNL     1       0.479  -7.668  -0.298  0.00  0.00    -0.267 OA
ATOM      9  C   UNL     1       0.320  -6.688   2.587  0.00  0.00    +0.240 C 
ATOM     10  C   UNL     1       0.222  -5.540   3.571  0.00  0.00    +0.256 C 
ATOM     11  O   UNL     1       0.182  -5.621   4.780  0.00  0.00    -0.272 OA
ATOM     12  N   UNL     1       0.187  -4.413   2.838  0.00  0.00    -0.269 N 
ATOM     13  H   UNL     1       0.445  -5.904  -2.010  0.00  0.00    +0.173 HD
ATOM     14  H   UNL     1       0.125  -3.523   3.220  0.00  0.00    +0.156 HD
ENDROOT
BRANCH   1  19
ATOM     15  C   UNL     1      -0.098   1.797   1.304  0.00  0.00    +0.044 C 
ATOM     16  C   UNL     1      -0.007   0.312   1.067  0.00  0.00    -0.050 A 
ATOM     17  C   UNL     1      -1.148  -0.409   0.762  0.00  0.00    +0.005 A 
ATOM     18  C   UNL     1      -1.068  -1.770   0.544  0.00  0.00    +0.026 A 
ATOM     19  C   UNL     1       0.158  -2.415   0.632  0.00  0.00    +0.053 A 
ATOM     20  C   UNL     1       1.301  -1.689   0.938  0.00  0.00    +0.026 A 
ATOM     21  C   UNL     1       1.216  -0.327   1.150  0.00  0.00    +0.005 A 
ENDBRANCH   1  19
BRANCH   9  22
ATOM     22  C   UNL     1       1.616  -7.472   2.801  0.00  0.00    +0.424 C 
ATOM     23  F   UNL     1       2.712  -6.620   2.624  0.00  0.00    -0.167 F 
ATOM     24  F   UNL     1       1.636  -7.993   4.100  0.00  0.00    -0.167 F 
ATOM     25  F   UNL     1       1.686  -8.520   1.877  0.00  0.00    -0.167 F 
ENDBRANCH   9  22
BRANCH   9  26
ATOM     26  N   UNL     1      -0.844  -7.570   2.705  0.00  0.00    -0.287 N 
ATOM     27  C   UNL     1      -2.085  -7.073   2.538  0.00  0.00    +0.245 C 
ATOM     28  O   UNL     1      -2.244  -5.882   2.356  0.00  0.00    -0.270 OA
ATOM     29  H   UNL     1      -0.720  -8.511   2.903  0.00  0.00    +0.151 HD
BRANCH  27  30
ATOM     30  C   UNL     1      -3.255  -7.977   2.578  0.00  0.00    +0.038 A 
ATOM     31  C   UNL     1      -3.076  -9.345   2.793  0.00  0.00    +0.013 A 
ATOM     32  C   UNL     1      -4.171 -10.183   2.830  0.00  0.00    +0.002 A 
ATOM     33  C   UNL     1      -5.444  -9.672   2.653  0.00  0.00    +0.020 A 
ATOM     34  C   UNL     1      -5.629  -8.317   2.439  0.00  0.00    +0.042 A 
ATOM     35  C   UNL     1      -4.542  -7.466   2.406  0.00  0.00    +0.033 A 
ATOM     36 CL   UNL     1      -7.231  -7.685   2.219  0.00  0.00    -0.084 Cl
ENDBRANCH  27  30
ENDBRANCH   9  26
TORSDOF 4
