REMARK  Name = ZINC11069048
REMARK  7 active torsions:
REMARK  status: ('A' for Active; 'I' for Inactive)
REMARK    1  A    between atoms: C_1  and  C_2
REMARK    2  A    between atoms: C_15  and  C_17
REMARK    3  A    between atoms: C_17  and  N_52
REMARK    4  A    between atoms: C_18  and  N_52
REMARK    5  A    between atoms: C_19  and  C_20
REMARK    6  A    between atoms: C_19  and  N_52
REMARK    7  A    between atoms: N_22  and  C_23
REMARK                            x       y       z     vdW  Elec       q    Type
REMARK                         _______ _______ _______ _____ _____    ______ ____
ROOT
ATOM      1  C   UNL     1      -3.047  -2.841   2.060  0.00  0.00    +0.029 C 
ATOM      2  C   UNL     1      -2.954  -2.377   0.605  0.00  0.00    +0.087 C 
ATOM      3  C   UNL     1      -3.238  -3.558  -0.330  0.00  0.00    +0.118 C 
ATOM      4  C   UNL     1      -2.768  -3.243  -1.726  0.00  0.00    +0.219 C 
ATOM      5  O   UNL     1      -3.576  -2.960  -2.584  0.00  0.00    -0.275 OA
ATOM      6  N   UNL     1      -1.452  -3.274  -2.027  0.00  0.00    -0.284 N 
ATOM      7  C   UNL     1      -0.499  -3.505  -1.027  0.00  0.00    +0.055 A 
ATOM      8  C   UNL     1       0.515  -4.429  -1.212  0.00  0.00    +0.025 A 
ATOM      9  C   UNL     1       1.477  -4.600  -0.234  0.00  0.00    +0.002 A 
ATOM     10  C   UNL     1       1.428  -3.853   0.929  0.00  0.00    +0.002 A 
ATOM     11  C   UNL     1       0.412  -2.936   1.126  0.00  0.00    +0.025 A 
ATOM     12  C   UNL     1      -0.560  -2.764   0.154  0.00  0.00    +0.058 A 
ATOM     13  N   UNL     1      -1.610  -1.856   0.346  0.00  0.00    -0.268 N 
ATOM     14  C   UNL     1      -1.387  -0.528   0.297  0.00  0.00    +0.204 C 
ATOM     15  O   UNL     1      -2.304   0.248   0.465  0.00  0.00    -0.277 OA
ATOM     16  H   UNL     1      -1.164  -3.135  -2.943  0.00  0.00    +0.155 HD
ENDROOT
BRANCH  14  17
ATOM     17  C   UNL     1       0.003  -0.007   0.036  0.00  0.00    +0.019 C 
BRANCH  17  19
ATOM     18  C   UNL     1      -0.802   1.975  -1.099  0.00  0.00    -0.095 C 
ATOM     19  N   UNL     1      -0.030   1.471   0.057  0.00  0.00    +0.389 N 
ATOM     20  H   UNL     1      -0.485   1.782   0.923  0.00  0.00    -0.081 HD
BRANCH  19  21
ATOM     21  C   UNL     1       1.347   2.007   0.018  0.00  0.00    +0.019 C 
BRANCH  21  22
ATOM     22  C   UNL     1       1.296   3.494   0.261  0.00  0.00    +0.201 C 
ATOM     23  O   UNL     1       0.229   4.044   0.431  0.00  0.00    -0.278 OA
ATOM     24  N   UNL     1       2.437   4.211   0.291  0.00  0.00    -0.286 N 
ATOM     25  H   UNL     1       3.294   3.762   0.221  0.00  0.00    +0.155 HD
BRANCH  24  26
ATOM     26  C   UNL     1       2.385   5.603   0.423  0.00  0.00    +0.047 A 
ATOM     27  C   UNL     1       1.395   6.192   1.199  0.00  0.00    +0.024 A 
ATOM     28  C   UNL     1       1.349   7.566   1.331  0.00  0.00    +0.002 A 
ATOM     29  C   UNL     1       2.281   8.356   0.684  0.00  0.00    +0.001 A 
ATOM     30  C   UNL     1       3.265   7.774  -0.093  0.00  0.00    +0.017 A 
ATOM     31  C   UNL     1       3.320   6.400  -0.226  0.00  0.00    +0.039 A 
ATOM     32 BR   UNL     1       4.666   5.604  -1.289  0.00  0.00    -0.048 Br
ENDBRANCH  24  26
ENDBRANCH  21  22
ENDBRANCH  19  21
ENDBRANCH  17  19
ENDBRANCH  14  17
TORSDOF 5
