REMARK  Name = ZINC10001600
REMARK  12 active torsions:
REMARK  status: ('A' for Active; 'I' for Inactive)
REMARK    1  A    between atoms: C_1  and  C_2
REMARK    2  A    between atoms: C_2  and  C_3
REMARK    3  A    between atoms: C_3  and  O_4
REMARK    4  A    between atoms: O_4  and  C_5
REMARK    5  A    between atoms: C_10  and  C_11
REMARK    6  A    between atoms: N_12  and  N_13
REMARK    7  A    between atoms: C_14  and  C_16
REMARK    8  A    between atoms: C_16  and  C_18
REMARK    9  A    between atoms: C_16  and  N_21
REMARK   10  A    between atoms: C_18  and  C_19
REMARK   11  A    between atoms: C_18  and  C_20
REMARK   12  A    between atoms: C_22  and  C_24
REMARK                            x       y       z     vdW  Elec       q    Type
REMARK                         _______ _______ _______ _____ _____    ______ ____
ROOT
ATOM      1  N   UNL     1      -3.681  -0.779  -0.501  0.00  0.00    -0.205 N 
ATOM      2  C   UNL     1      -4.808  -0.217  -0.020  0.00  0.00    +0.253 C 
ATOM      3  O   UNL     1      -4.773   0.896   0.461  0.00  0.00    -0.272 OA
ATOM      4  H   UNL     1      -3.693  -1.695  -0.819  0.00  0.00    +0.177 HD
ENDROOT
BRANCH   1   6
ATOM      5  C   UNL     1      -1.406  -0.579  -1.004  0.00  0.00    +0.142 C 
ATOM      6  N   UNL     1      -2.492  -0.039  -0.542  0.00  0.00    -0.188 NA
BRANCH   5  12
ATOM      7  C   UNL     1      -0.134   1.524  -0.589  0.00  0.00    +0.129 A 
ATOM      8  C   UNL     1       1.046   2.247  -0.634  0.00  0.00    +0.047 A 
ATOM      9  C   UNL     1       2.198   1.664  -1.128  0.00  0.00    +0.019 A 
ATOM     10  C   UNL     1       2.182   0.356  -1.583  0.00  0.00    +0.019 A 
ATOM     11  C   UNL     1       1.015  -0.379  -1.545  0.00  0.00    +0.028 A 
ATOM     12  C   UNL     1      -0.156   0.199  -1.047  0.00  0.00    +0.037 A 
ATOM     13 BR   UNL     1       3.766  -0.427  -2.256  0.00  0.00    -0.050 Br
BRANCH   7  14
ATOM     14  O   UNL     1      -1.267   2.097  -0.109  0.00  0.00    -0.491 OA
BRANCH  14  15
ATOM     15  C   UNL     1      -1.169   3.450   0.340  0.00  0.00    +0.229 C 
BRANCH  15  17
ATOM     16  C   UNL     1      -2.431   5.370   1.323  0.00  0.00    +0.007 C 
ATOM     17  C   UNL     1      -2.536   3.921   0.843  0.00  0.00    +0.038 C 
ENDBRANCH  15  17
ENDBRANCH  14  15
ENDBRANCH   7  14
ENDBRANCH   5  12
ENDBRANCH   1   6
BRANCH   2  18
ATOM     18  C   UNL     1      -6.111  -0.972  -0.081  0.00  0.00    +0.163 C 
BRANCH  18  19
ATOM     19  N   UNL     1      -7.222  -0.022  -0.176  0.00  0.00    -0.300 N 
ATOM     20  C   UNL     1      -8.389  -0.402  -0.733  0.00  0.00    +0.245 C 
ATOM     21  O   UNL     1      -8.519  -1.534  -1.157  0.00  0.00    -0.270 OA
ATOM     22  H   UNL     1      -7.117   0.882   0.162  0.00  0.00    +0.150 HD
BRANCH  20  23
ATOM     23  C   UNL     1      -9.508   0.555  -0.828  0.00  0.00    +0.040 A 
ATOM     24  C   UNL     1      -9.361   1.855  -0.336  0.00  0.00    +0.017 A 
ATOM     25  C   UNL     1     -10.405   2.749  -0.431  0.00  0.00    +0.050 A 
ATOM     26  C   UNL     1     -11.609   2.360  -1.004  0.00  0.00    +0.166 A 
ATOM     27  C   UNL     1     -11.763   1.062  -1.492  0.00  0.00    +0.167 A 
ATOM     28  C   UNL     1     -10.718   0.163  -1.405  0.00  0.00    +0.062 A 
ATOM     29  O   UNL     1     -13.025   0.934  -1.999  0.00  0.00    -0.453 OA
ATOM     30  C   UNL     1     -13.772   2.034  -1.448  0.00  0.00    +0.466 C 
ATOM     31  O   UNL     1     -12.772   3.042  -1.206  0.00  0.00    -0.453 OA
ENDBRANCH  20  23
ENDBRANCH  18  19
BRANCH  18  32
ATOM     32  C   UNL     1      -6.270  -1.818   1.184  0.00  0.00    +0.012 C 
ATOM     33  C   UNL     1      -7.544  -2.659   1.078  0.00  0.00    +0.009 C 
ATOM     34  C   UNL     1      -5.060  -2.742   1.334  0.00  0.00    +0.009 C 
ENDBRANCH  18  32
ENDBRANCH   2  18
TORSDOF 9
