REMARK  Name = ZINC19445281
REMARK  10 active torsions:
REMARK  status: ('A' for Active; 'I' for Inactive)
REMARK    1  A    between atoms: C_1  and  C_2
REMARK    2  A    between atoms: C_2  and  C_3
REMARK    3  A    between atoms: C_2  and  C_4
REMARK    4  A    between atoms: C_4  and  C_6
REMARK    5  A    between atoms: C_4  and  N_10
REMARK    6  A    between atoms: C_6  and  O_8
REMARK    7  A    between atoms: O_8  and  C_9
REMARK    8  A    between atoms: C_15  and  C_17
REMARK    9  A    between atoms: N_25  and  C_27
REMARK   10  A    between atoms: C_27  and  C_28
REMARK                            x       y       z     vdW  Elec       q    Type
REMARK                         _______ _______ _______ _____ _____    ______ ____
ROOT
ATOM      1  N   UNL     1      -2.574   3.505   2.729  0.00  0.00    -0.316 N 
ATOM      2  C   UNL     1      -1.602   4.180   2.009  0.00  0.00    +0.125 A 
ATOM      3  C   UNL     1      -0.685   3.475   1.220  0.00  0.00    -0.003 A 
ATOM      4  C   UNL     1       0.263   4.184   0.519  0.00  0.00    +0.047 A 
ATOM      5  N   UNL     1       0.282   5.508   0.615  0.00  0.00    -0.231 NA
ATOM      6  C   UNL     1      -0.596   6.151   1.369  0.00  0.00    +0.180 A 
ATOM      7  N   UNL     1      -1.526   5.505   2.057  0.00  0.00    -0.211 NA
ATOM      8  C   UNL     1       1.278   3.497  -0.355  0.00  0.00    +0.037 C 
ATOM      9  C   UNL     1       1.349   2.011   0.000  0.00  0.00    -0.072 C 
ATOM     10  N   UNL     1      -0.018   1.465   0.010  0.00  0.00    +0.385 N 
ATOM     11  C   UNL     1      -0.761   1.974   1.168  0.00  0.00    -0.037 C 
ATOM     12  H   UNL     1      -2.630   2.408   2.683  0.00  0.00    +0.148 HD
ATOM     13  H   UNL     1      -0.533   1.796  -0.903  0.00  0.00    -0.081 HD
ENDROOT
BRANCH   6  14
ATOM     14  C   UNL     1      -0.536   7.632   1.447  0.00  0.00    +0.108 A 
ATOM     15  C   UNL     1      -1.457   8.320   2.233  0.00  0.00    +0.031 A 
ATOM     16  C   UNL     1      -1.386   9.701   2.300  0.00  0.00    +0.004 A 
ATOM     17  C   UNL     1      -0.401  10.349   1.569  0.00  0.00    +0.020 A 
ATOM     18  C   UNL     1       0.477   9.603   0.804  0.00  0.00    +0.111 A 
ATOM     19  N   UNL     1       0.391   8.290   0.763  0.00  0.00    -0.252 NA
ENDBRANCH   6  14
BRANCH   1  20
ATOM     20  C   UNL     1      -3.528   4.253   3.551  0.00  0.00    +0.183 C 
BRANCH  20  22
ATOM     21  C   UNL     1      -1.632   5.351   4.752  0.00  0.00    +0.009 C 
ATOM     22  C   UNL     1      -2.912   4.530   4.924  0.00  0.00    +0.014 C 
ATOM     23  C   UNL     1      -3.908   5.311   5.782  0.00  0.00    +0.009 C 
ENDBRANCH  20  22
BRANCH  20  24
ATOM     24  C   UNL     1      -4.788   3.444   3.720  0.00  0.00    +0.328 C 
ATOM     25  O   UNL     1      -4.880   2.355   3.207  0.00  0.00    -0.249 OA
BRANCH  24  26
ATOM     26  O   UNL     1      -5.809   3.934   4.441  0.00  0.00    -0.467 OA
ATOM     27  C   UNL     1      -6.991   3.100   4.561  0.00  0.00    +0.280 C 
ENDBRANCH  24  26
ENDBRANCH  20  24
ENDBRANCH   1  20
BRANCH  10  28
ATOM     28  C   UNL     1       0.002  -0.004   0.002  0.00  0.00    -0.043 C 
BRANCH  28  29
ATOM     29  C   UNL     1       0.598  -0.505   1.292  0.00  0.00    -0.064 A 
ATOM     30  C   UNL     1       1.960  -0.723   1.385  0.00  0.00    +0.004 A 
ATOM     31  C   UNL     1       2.508  -1.178   2.569  0.00  0.00    +0.038 A 
ATOM     32  C   UNL     1       1.692  -1.427   3.659  0.00  0.00    +0.123 A 
ATOM     33  C   UNL     1       0.327  -1.213   3.563  0.00  0.00    +0.038 A 
ATOM     34  C   UNL     1      -0.218  -0.753   2.380  0.00  0.00    +0.004 A 
ATOM     35  F   UNL     1       2.226  -1.876   4.816  0.00  0.00    -0.205 F 
ENDBRANCH  28  29
ENDBRANCH  10  28
TORSDOF 7
