REMARK  Name = ZINC12928221
REMARK  9 active torsions:
REMARK  status: ('A' for Active; 'I' for Inactive)
REMARK    1  A    between atoms: C_1  and  C_2
REMARK    2  A    between atoms: C_6  and  N_9
REMARK    3  A    between atoms: C_7  and  C_8
REMARK    4  A    between atoms: C_10  and  C_12
REMARK    5  A    between atoms: C_12  and  N_58
REMARK    6  A    between atoms: C_13  and  N_58
REMARK    7  A    between atoms: C_14  and  C_15
REMARK    8  A    between atoms: C_14  and  N_58
REMARK    9  A    between atoms: C_28  and  C_30
REMARK                            x       y       z     vdW  Elec       q    Type
REMARK                         _______ _______ _______ _____ _____    ______ ____
ROOT
ATOM      1  C   UNL     1       0.777   4.211  -1.002  0.00  0.00    +0.204 C 
ATOM      2  O   UNL     1       0.790   5.423  -0.941  0.00  0.00    -0.277 OA
ATOM      3  N   UNL     1       1.140   3.478   0.069  0.00  0.00    -0.259 N 
ATOM      4  C   UNL     1       1.128   2.078   0.011  0.00  0.00    +0.058 A 
ATOM      5  C   UNL     1      -0.069   1.381   0.014  0.00  0.00    +0.025 A 
ATOM      6  C   UNL     1      -0.059  -0.002   0.007  0.00  0.00    +0.002 A 
ATOM      7  C   UNL     1       1.140  -0.690  -0.004  0.00  0.00    +0.002 A 
ATOM      8  C   UNL     1       2.339  -0.002  -0.021  0.00  0.00    +0.025 A 
ATOM      9  C   UNL     1       2.338   1.383  -0.020  0.00  0.00    +0.055 A 
ATOM     10  N   UNL     1       3.538   2.102  -0.067  0.00  0.00    -0.284 N 
ATOM     11  C   UNL     1       3.764   3.115   0.798  0.00  0.00    +0.219 C 
ATOM     12  O   UNL     1       4.770   3.784   0.692  0.00  0.00    -0.275 OA
ATOM     13  C   UNL     1       2.775   3.418   1.892  0.00  0.00    +0.128 C 
ATOM     14  C   UNL     1       1.552   4.130   1.313  0.00  0.00    +0.194 C 
ATOM     15  H   UNL     1       4.212   1.871  -0.725  0.00  0.00    +0.155 HD
ENDROOT
BRANCH  14  16
ATOM     16  C   UNL     1       0.404   4.070   2.322  0.00  0.00    +0.409 C 
ATOM     17  F   UNL     1       0.792   4.700   3.509  0.00  0.00    -0.169 F 
ATOM     18  F   UNL     1      -0.716   4.722   1.793  0.00  0.00    -0.169 F 
ATOM     19  F   UNL     1       0.084   2.734   2.585  0.00  0.00    -0.169 F 
ENDBRANCH  14  16
BRANCH   1  20
ATOM     20  C   UNL     1       0.354   3.526  -2.277  0.00  0.00    +0.019 C 
BRANCH  20  22
ATOM     21  C   UNL     1      -1.182   5.296  -2.885  0.00  0.00    -0.095 C 
ATOM     22  N   UNL     1       0.033   4.556  -3.287  0.00  0.00    +0.389 N 
ATOM     23  H   UNL     1       0.818   5.214  -3.355  0.00  0.00    -0.081 HD
BRANCH  22  24
ATOM     24  C   UNL     1      -0.176   3.921  -4.606  0.00  0.00    +0.019 C 
BRANCH  24  26
ATOM     25  N   UNL     1      -0.459   4.668  -6.947  0.00  0.00    -0.287 N 
ATOM     26  C   UNL     1      -0.283   5.000  -5.653  0.00  0.00    +0.201 C 
ATOM     27  O   UNL     1      -0.210   6.167  -5.331  0.00  0.00    -0.278 OA
ATOM     28  H   UNL     1      -0.437   3.736  -7.216  0.00  0.00    +0.155 HD
BRANCH  25  34
ATOM     29  C   UNL     1      -0.213   6.177 -11.620  0.00  0.00    +0.044 C 
ATOM     30  C   UNL     1      -0.564   6.425 -10.175  0.00  0.00    -0.046 A 
ATOM     31  C   UNL     1      -1.098   7.642  -9.793  0.00  0.00    +0.004 A 
ATOM     32  C   UNL     1      -1.421   7.874  -8.469  0.00  0.00    +0.002 A 
ATOM     33  C   UNL     1      -1.211   6.889  -7.523  0.00  0.00    +0.023 A 
ATOM     34  C   UNL     1      -0.674   5.667  -7.903  0.00  0.00    +0.036 A 
ATOM     35  C   UNL     1      -0.345   5.439  -9.233  0.00  0.00    -0.026 A 
ATOM     36  C   UNL     1       0.243   4.116  -9.649  0.00  0.00    +0.046 C 
ENDBRANCH  25  34
ENDBRANCH  24  26
ENDBRANCH  22  24
ENDBRANCH  20  22
ENDBRANCH   1  20
TORSDOF 6
