REMARK  Name = ZINC12599541
REMARK  3 active torsions:
REMARK  status: ('A' for Active; 'I' for Inactive)
REMARK    1  A    between atoms: N_10  and  N_11
REMARK    2  A    between atoms: C_12  and  C_14
REMARK    3  A    between atoms: C_19  and  N_20
REMARK                            x       y       z     vdW  Elec       q    Type
REMARK                         _______ _______ _______ _____ _____    ______ ____
ROOT
ATOM      1  C   UNL     1      -0.020   1.371  -0.129  0.00  0.00    +0.001 A 
ATOM      2  C   UNL     1       1.163   2.093  -0.107  0.00  0.00    +0.001 A 
ATOM      3  C   UNL     1       2.382   1.444  -0.103  0.00  0.00    +0.012 A 
ATOM      4  C   UNL     1       2.422   0.057  -0.121  0.00  0.00    +0.029 A 
ATOM      5  C   UNL     1       1.218  -0.681  -0.143  0.00  0.00    +0.023 A 
ATOM      6  C   UNL     1      -0.001  -0.009  -0.147  0.00  0.00    +0.012 A 
ATOM      7  C   UNL     1       1.613  -2.097  -0.158  0.00  0.00    +0.103 C 
ATOM      8  N   UNL     1       2.921  -2.183  -0.145  0.00  0.00    -0.326 N 
ATOM      9  C   UNL     1       3.500  -0.952  -0.123  0.00  0.00    +0.158 C 
ATOM     10  N   UNL     1       4.788  -0.705  -0.107  0.00  0.00    -0.161 NA
ATOM     11  N   UNL     1       0.742  -3.168  -0.181  0.00  0.00    -0.344 N 
ATOM     12  H   UNL     1      -0.216  -3.015  -0.189  0.00  0.00    +0.144 HD
ATOM     13  H   UNL     1       1.088  -4.074  -0.189  0.00  0.00    +0.144 HD
ATOM     14  H   UNL     1       3.414  -3.019  -0.152  0.00  0.00    +0.169 HD
ENDROOT
BRANCH  10  15
ATOM     15  N   UNL     1       5.704  -1.765  -0.111  0.00  0.00    -0.201 N 
ATOM     16  C   UNL     1       7.028  -1.511  -0.094  0.00  0.00    +0.265 C 
ATOM     17  O   UNL     1       7.427  -0.362  -0.075  0.00  0.00    -0.268 OA
ATOM     18  H   UNL     1       5.386  -2.681  -0.126  0.00  0.00    +0.178 HD
BRANCH  16  19
ATOM     19  C   UNL     1       7.992  -2.625  -0.099  0.00  0.00    +0.059 A 
ATOM     20  C   UNL     1       7.542  -3.945   0.004  0.00  0.00    +0.015 A 
ATOM     21  C   UNL     1       8.448  -4.982  -0.001  0.00  0.00    +0.001 A 
ATOM     22  C   UNL     1       9.806  -4.725  -0.108  0.00  0.00    +0.002 A 
ATOM     23  C   UNL     1      10.266  -3.429  -0.211  0.00  0.00    +0.023 A 
ATOM     24  C   UNL     1       9.367  -2.369  -0.212  0.00  0.00    +0.037 A 
BRANCH  24  25
ATOM     25  N   UNL     1       9.828  -1.063  -0.321  0.00  0.00    -0.357 N 
ATOM     26  H   UNL     1       9.207  -0.322  -0.239  0.00  0.00    +0.142 HD
ATOM     27  H   UNL     1      10.769  -0.893  -0.479  0.00  0.00    +0.142 HD
ENDBRANCH  24  25
ENDBRANCH  16  19
ENDBRANCH  10  15
TORSDOF 3
