REMARK  Name = ZINC12930712
REMARK  6 active torsions:
REMARK  status: ('A' for Active; 'I' for Inactive)
REMARK    1  A    between atoms: N_13  and  C_17
REMARK    2  A    between atoms: C_17  and  C_18
REMARK    3  A    between atoms: C_18  and  C_20
REMARK    4  A    between atoms: C_18  and  O_30
REMARK    5  A    between atoms: C_20  and  O_21
REMARK    6  A    between atoms: O_21  and  C_22
REMARK                            x       y       z     vdW  Elec       q    Type
REMARK                         _______ _______ _______ _____ _____    ______ ____
ROOT
ATOM      1  C   UNL     1      -4.173  -6.766  -2.184  0.00  0.00    +0.001 A 
ATOM      2  C   UNL     1      -5.398  -7.120  -2.720  0.00  0.00    +0.004 A 
ATOM      3  C   UNL     1      -6.440  -6.215  -2.712  0.00  0.00    +0.046 A 
ATOM      4  C   UNL     1      -6.263  -4.948  -2.167  0.00  0.00    +0.126 A 
ATOM      5  C   UNL     1      -5.036  -4.598  -1.627  0.00  0.00    +0.027 A 
ATOM      6  C   UNL     1      -3.994  -5.510  -1.640  0.00  0.00    +0.010 A 
ATOM      7  C   UNL     1      -4.813  -3.240  -1.023  0.00  0.00    +0.144 C 
ATOM      8  C   UNL     1      -5.901  -2.266  -1.467  0.00  0.00    +0.081 C 
ATOM      9  C   UNL     1      -7.262  -2.956  -1.303  0.00  0.00    +0.232 C 
ATOM     10  O   UNL     1      -7.308  -4.081  -2.181  0.00  0.00    -0.492 OA
ATOM     11  C   UNL     1      -3.448  -2.713  -1.398  0.00  0.00    +0.251 C 
ATOM     12  O   UNL     1      -3.031  -2.481  -2.513  0.00  0.00    -0.272 OA
ATOM     13  N   UNL     1      -2.790  -2.554  -0.231  0.00  0.00    -0.221 N 
ATOM     14  C   UNL     1      -3.546  -2.912   0.814  0.00  0.00    +0.310 C 
ATOM     15  O   UNL     1      -3.170  -2.862   1.969  0.00  0.00    -0.252 OA
ATOM     16  N   UNL     1      -4.771  -3.329   0.442  0.00  0.00    -0.281 N 
ATOM     17  H   UNL     1      -5.484  -3.633   1.026  0.00  0.00    +0.152 HD
ENDROOT
BRANCH  13  18
ATOM     18  C   UNL     1      -1.416  -2.058  -0.121  0.00  0.00    +0.152 C 
BRANCH  18  19
ATOM     19  C   UNL     1      -1.433  -0.534   0.013  0.00  0.00    +0.170 C 
BRANCH  19  20
ATOM     20  O   UNL     1      -2.066  -0.171   1.242  0.00  0.00    -0.387 OA
ATOM     21  H   UNL     1      -1.626  -0.521   2.029  0.00  0.00    +0.210 HD
ENDBRANCH  19  20
BRANCH  19  22
ATOM     22  C   UNL     1       0.002  -0.004   0.002  0.00  0.00    +0.262 C 
BRANCH  22  23
ATOM     23  O   UNL     1      -0.017   1.425   0.010  0.00  0.00    -0.488 OA
BRANCH  23  24
ATOM     24  C   UNL     1       1.185   2.058   0.002  0.00  0.00    +0.140 A 
ATOM     25  C   UNL     1       2.359   1.320  -0.008  0.00  0.00    +0.067 A 
ATOM     26  C   UNL     1       3.581   1.967  -0.021  0.00  0.00    +0.045 A 
ATOM     27  C   UNL     1       3.634   3.349  -0.014  0.00  0.00    +0.021 A 
ATOM     28  C   UNL     1       2.465   4.088   0.001  0.00  0.00    +0.025 A 
ATOM     29  C   UNL     1       1.240   3.445   0.009  0.00  0.00    +0.083 A 
ATOM     30 CL   UNL     1      -0.227   4.373   0.028  0.00  0.00    -0.080 Cl
ATOM     31 CL   UNL     1       5.051   1.043  -0.039  0.00  0.00    -0.083 Cl
ENDBRANCH  23  24
ENDBRANCH  22  23
ENDBRANCH  19  22
ENDBRANCH  18  19
ENDBRANCH  13  18
TORSDOF 6
