REMARK  Name = ZINC31768145
REMARK  8 active torsions:
REMARK  status: ('A' for Active; 'I' for Inactive)
REMARK    1  A    between atoms: C_1  and  C_2
REMARK    2  A    between atoms: C_5  and  C_8
REMARK    3  A    between atoms: C_10  and  N_19
REMARK    4  A    between atoms: N_11  and  C_13
REMARK    5  A    between atoms: C_20  and  C_22
REMARK    6  A    between atoms: C_22  and  N_23
REMARK    7  A    between atoms: C_26  and  C_30
REMARK    8  A    between atoms: C_26  and  C_31
REMARK                            x       y       z     vdW  Elec       q    Type
REMARK                         _______ _______ _______ _____ _____    ______ ____
ROOT
ATOM      1  N   UNL     1       0.105  -7.513   1.494  0.00  0.00    -0.269 N 
ATOM      2  C   UNL     1       0.103  -7.385   2.836  0.00  0.00    +0.236 C 
ATOM      3  O   UNL     1       0.087  -6.282   3.340  0.00  0.00    -0.274 OA
ATOM      4  H   UNL     1       0.117  -8.395   1.091  0.00  0.00    +0.156 HD
ENDROOT
BRANCH   1   7
ATOM      5  C   UNL     1       0.061  -4.256  -0.021  0.00  0.00    +0.095 A 
ATOM      6  C   UNL     1       0.072  -5.088   1.114  0.00  0.00    +0.074 A 
ATOM      7  C   UNL     1       0.089  -6.377   0.685  0.00  0.00    +0.129 A 
ATOM      8  N   UNL     1       0.089  -6.359  -0.676  0.00  0.00    -0.218 N 
ATOM      9  N   UNL     1       0.065  -5.022  -1.092  0.00  0.00    -0.165 NA
BRANCH   5  14
ATOM     10  C   UNL     1      -0.018   1.503   0.010  0.00  0.00    +0.044 C 
ATOM     11  C   UNL     1       0.002  -0.004   0.002  0.00  0.00    -0.050 A 
ATOM     12  C   UNL     1       0.006  -0.686  -1.201  0.00  0.00    +0.004 A 
ATOM     13  C   UNL     1       0.025  -2.067  -1.215  0.00  0.00    +0.010 A 
ATOM     14  C   UNL     1       0.041  -2.772  -0.013  0.00  0.00    +0.002 A 
ATOM     15  C   UNL     1       0.037  -2.080   1.196  0.00  0.00    +0.010 A 
ATOM     16  C   UNL     1       0.023  -0.700   1.198  0.00  0.00    +0.004 A 
ENDBRANCH   5  14
BRANCH   8  17
ATOM     17  C   UNL     1       0.104  -7.482  -1.514  0.00  0.00    +0.067 A 
ATOM     18  C   UNL     1       0.804  -8.621  -1.139  0.00  0.00    +0.028 A 
ATOM     19  C   UNL     1       0.817  -9.726  -1.967  0.00  0.00    +0.002 A 
ATOM     20  C   UNL     1       0.134  -9.700  -3.169  0.00  0.00    +0.000 A 
ATOM     21  C   UNL     1      -0.564  -8.567  -3.546  0.00  0.00    +0.002 A 
ATOM     22  C   UNL     1      -0.586  -7.460  -2.719  0.00  0.00    +0.028 A 
ENDBRANCH   8  17
ENDBRANCH   1   7
BRANCH   2  23
ATOM     23  C   UNL     1       0.120  -8.613   3.709  0.00  0.00    +0.214 C 
BRANCH  23  24
ATOM     24  N   UNL     1       0.114  -8.210   5.118  0.00  0.00    -0.215 N 
ATOM     25  C   UNL     1       1.225  -7.981   5.845  0.00  0.00    +0.254 C 
ATOM     26  O   UNL     1       2.375  -8.067   5.470  0.00  0.00    -0.272 OA
ATOM     27  C   UNL     1       0.739  -7.594   7.227  0.00  0.00    +0.168 C 
ATOM     28  N   UNL     1      -0.728  -7.655   7.107  0.00  0.00    -0.279 N 
ATOM     29  C   UNL     1      -0.996  -8.018   5.840  0.00  0.00    +0.310 C 
ATOM     30  O   UNL     1      -2.121  -8.160   5.401  0.00  0.00    -0.252 OA
ATOM     31  C   UNL     1       1.192  -6.176   7.579  0.00  0.00    +0.050 C 
ATOM     32  H   UNL     1      -1.375  -7.468   7.806  0.00  0.00    +0.152 HD
BRANCH  27  33
ATOM     33  C   UNL     1       1.228  -8.579   8.257  0.00  0.00    +0.137 A 
ATOM     34  C   UNL     1       0.593  -8.908   9.396  0.00  0.00    +0.047 A 
ATOM     35  C   UNL     1       1.402  -9.861  10.056  0.00  0.00    +0.041 A 
ATOM     36  C   UNL     1       2.484 -10.057   9.282  0.00  0.00    +0.195 A 
ATOM     37  O   UNL     1       2.371  -9.283   8.190  0.00  0.00    -0.465 OA
ENDBRANCH  27  33
ENDBRANCH  23  24
ENDBRANCH   2  23
TORSDOF 6
