REMARK  Name = ZINC39361220
REMARK  7 active torsions:
REMARK  status: ('A' for Active; 'I' for Inactive)
REMARK    1  A    between atoms: C_1  and  C_2
REMARK    2  A    between atoms: N_7  and  S_9
REMARK    3  A    between atoms: S_9  and  C_12
REMARK    4  A    between atoms: C_15  and  N_18
REMARK    5  A    between atoms: C_19  and  C_21
REMARK    6  A    between atoms: C_24  and  C_27
REMARK    7  A    between atoms: C_32  and  O_33
REMARK                            x       y       z     vdW  Elec       q    Type
REMARK                         _______ _______ _______ _____ _____    ______ ____
ROOT
ATOM      1  N   UNL     1       3.843  -4.106  -4.087  0.00  0.00    -0.283 N 
ATOM      2  C   UNL     1       3.075  -4.847  -4.909  0.00  0.00    +0.248 C 
ATOM      3  O   UNL     1       1.968  -5.194  -4.556  0.00  0.00    -0.273 OA
ATOM      4  H   UNL     1       4.696  -3.764  -4.397  0.00  0.00    +0.155 HD
ENDROOT
BRANCH   1   8
ATOM      5  C   UNL     1       2.555  -3.282  -0.212  0.00  0.00    +0.106 A 
ATOM      6  C   UNL     1       2.227  -4.487  -0.806  0.00  0.00    +0.030 A 
ATOM      7  C   UNL     1       2.652  -4.763  -2.091  0.00  0.00    +0.025 A 
ATOM      8  C   UNL     1       3.410  -3.829  -2.786  0.00  0.00    +0.034 A 
ATOM      9  C   UNL     1       3.738  -2.620  -2.186  0.00  0.00    +0.025 A 
ATOM     10  C   UNL     1       3.305  -2.348  -0.902  0.00  0.00    +0.030 A 
BRANCH   5  11
ATOM     11  S   UNL     1       2.010  -2.934   1.427  0.00  0.00    +0.061 S 
ATOM     12  O   UNL     1       2.904  -1.964   1.955  0.00  0.00    -0.153 OA
ATOM     13  O   UNL     1       1.789  -4.189   2.057  0.00  0.00    -0.153 OA
BRANCH  11  19
ATOM     14  C   UNL     1      -0.638   1.123  -0.087  0.00  0.00    +0.009 C 
ATOM     15  C   UNL     1      -0.407  -0.389  -0.036  0.00  0.00    +0.002 C 
ATOM     16  C   UNL     1      -1.756  -1.109   0.047  0.00  0.00    +0.006 C 
ATOM     17  C   UNL     1      -1.527  -2.622   0.066  0.00  0.00    +0.017 C 
ATOM     18  C   UNL     1      -0.703  -2.995   1.303  0.00  0.00    +0.109 C 
ATOM     19  N   UNL     1       0.531  -2.198   1.306  0.00  0.00    -0.176 NA
ATOM     20  C   UNL     1       0.430  -0.736   1.199  0.00  0.00    +0.112 C 
ENDBRANCH  11  19
ENDBRANCH   5  11
ENDBRANCH   1   8
BRANCH   2  21
ATOM     21  C   UNL     1       3.592  -5.245  -6.268  0.00  0.00    +0.239 C 
ATOM     22  C   UNL     1       3.394  -4.120  -7.268  0.00  0.00    +0.041 C 
ATOM     23  C   UNL     1       2.575  -4.654  -8.195  0.00  0.00    +0.095 C 
ATOM     24  N   UNL     1       2.268  -5.938  -7.875  0.00  0.00    -0.153 NA
ATOM     25  N   UNL     1       2.788  -6.344  -6.829  0.00  0.00    -0.170 NA
BRANCH  23  26
ATOM     26  C   UNL     1       2.080  -3.940  -9.398  0.00  0.00    +0.043 A 
ATOM     27  C   UNL     1       1.230  -4.585 -10.293  0.00  0.00    +0.014 A 
ATOM     28  C   UNL     1       0.771  -3.916 -11.410  0.00  0.00    +0.001 A 
ATOM     29  C   UNL     1       1.153  -2.607 -11.644  0.00  0.00    +0.004 A 
ATOM     30  C   UNL     1       1.996  -1.958 -10.762  0.00  0.00    +0.046 A 
ATOM     31  C   UNL     1       2.459  -2.615  -9.634  0.00  0.00    +0.126 A 
BRANCH  31  32
ATOM     32  O   UNL     1       3.283  -1.976  -8.763  0.00  0.00    -0.506 OA
ATOM     33  H   UNL     1       4.223  -2.074  -8.967  0.00  0.00    +0.292 HD
ENDBRANCH  31  32
ENDBRANCH  23  26
ENDBRANCH   2  21
TORSDOF 6
