REMARK  Name = ZINC39734008
REMARK  7 active torsions:
REMARK  status: ('A' for Active; 'I' for Inactive)
REMARK    1  A    between atoms: C_1  and  C_2
REMARK    2  A    between atoms: C_4  and  C_12
REMARK    3  A    between atoms: C_12  and  C_14
REMARK    4  A    between atoms: C_14  and  C_16
REMARK    5  A    between atoms: C_14  and  S_17
REMARK    6  A    between atoms: S_17  and  C_18
REMARK    7  A    between atoms: C_22  and  C_24
REMARK                            x       y       z     vdW  Elec       q    Type
REMARK                         _______ _______ _______ _____ _____    ______ ____
ROOT
ATOM      1  C   UNL     1       1.283  -0.772  -3.678  0.00  0.00    +0.119 C 
ATOM      2  C   UNL     1       0.883  -2.194  -4.076  0.00  0.00    +0.027 C 
ENDROOT
BRANCH   1   3
ATOM      3  C   UNL     1       0.379  -0.286  -2.575  0.00  0.00    +0.174 C 
ATOM      4  O   UNL     1      -0.607   0.370  -2.844  0.00  0.00    -0.291 OA
BRANCH   3   7
ATOM      5  C   UNL     1       0.047   1.434   0.081  0.00  0.00    +0.035 C 
ATOM      6  C   UNL     1      -0.041  -0.091   0.003  0.00  0.00    +0.111 C 
ATOM      7  C   UNL     1       0.677  -0.592  -1.230  0.00  0.00    +0.027 C 
ATOM      8  C   UNL     1       1.688  -1.413  -0.764  0.00  0.00    +0.006 A 
ATOM      9  C   UNL     1       2.690  -2.170  -1.415  0.00  0.00    +0.010 A 
ATOM     10  C   UNL     1       3.568  -2.902  -0.694  0.00  0.00    +0.001 A 
ATOM     11  C   UNL     1       3.535  -2.950   0.709  0.00  0.00    +0.002 A 
ATOM     12  C   UNL     1       2.619  -2.265   1.427  0.00  0.00    +0.026 A 
ATOM     13  C   UNL     1       1.625  -1.443   0.718  0.00  0.00    +0.043 A 
ATOM     14  N   UNL     1       0.647  -0.696   1.149  0.00  0.00    -0.377 N 
ATOM     15  H   UNL     1       0.411  -0.560   2.080  0.00  0.00    +0.160 HD
ENDBRANCH   3   7
ENDBRANCH   1   3
BRANCH   1  16
ATOM     16  S   UNL     1       1.129   0.324  -5.115  0.00  0.00    -0.085 S 
BRANCH  16  17
ATOM     17  C   UNL     1       2.374  -0.299  -6.278  0.00  0.00    +0.340 C 
ATOM     18  N   UNL     1       2.120  -1.715  -6.596  0.00  0.00    -0.219 N 
ATOM     19  N   UNL     1       3.259  -2.406  -6.158  0.00  0.00    -0.145 NA
ATOM     20  C   UNL     1       4.112  -1.584  -5.641  0.00  0.00    +0.240 C 
ATOM     21  O   UNL     1       3.674  -0.299  -5.669  0.00  0.00    -0.442 OA
ATOM     22  H   UNL     1       1.332  -2.090  -7.019  0.00  0.00    +0.173 HD
BRANCH  20  23
ATOM     23  C   UNL     1       5.417  -1.995  -5.086  0.00  0.00    +0.041 A 
ATOM     24  C   UNL     1       6.294  -1.052  -4.534  0.00  0.00    +0.033 A 
ATOM     25  C   UNL     1       7.503  -1.480  -4.027  0.00  0.00    +0.111 A 
ATOM     26  N   UNL     1       7.836  -2.757  -4.056  0.00  0.00    -0.263 NA
ATOM     27  C   UNL     1       7.040  -3.678  -4.567  0.00  0.00    +0.111 A 
ATOM     28  C   UNL     1       5.811  -3.339  -5.091  0.00  0.00    +0.033 A 
ENDBRANCH  20  23
ENDBRANCH  16  17
ENDBRANCH   1  16
TORSDOF 5
