REMARK  Name = ZINC39773160
REMARK  13 active torsions:
REMARK  status: ('A' for Active; 'I' for Inactive)
REMARK    1  A    between atoms: C_1  and  C_2
REMARK    2  A    between atoms: C_2  and  C_3
REMARK    3  A    between atoms: C_8  and  N_9
REMARK    4  A    between atoms: C_10  and  C_12
REMARK    5  A    between atoms: C_12  and  C_13
REMARK    6  A    between atoms: C_16  and  S_21
REMARK    7  A    between atoms: N_17  and  C_18
REMARK    8  A    between atoms: C_18  and  C_19
REMARK    9  A    between atoms: S_21  and  C_22
REMARK   10  A    between atoms: C_22  and  C_23
REMARK   11  A    between atoms: C_29  and  C_31
REMARK   12  A    between atoms: C_31  and  C_32
REMARK   13  A    between atoms: C_31  and  C_33
REMARK                            x       y       z     vdW  Elec       q    Type
REMARK                         _______ _______ _______ _____ _____    ______ ____
ROOT
ATOM      1  C   UNL     1      -3.993  -0.687   5.069  0.00  0.00    +0.143 A 
ATOM      2  N   UNL     1      -4.416  -1.853   5.468  0.00  0.00    -0.133 NA
ATOM      3  N   UNL     1      -4.782  -1.792   6.699  0.00  0.00    -0.122 NA
ATOM      4  C   UNL     1      -4.611  -0.573   7.155  0.00  0.00    +0.192 A 
ATOM      5  N   UNL     1      -4.097   0.169   6.130  0.00  0.00    -0.302 N 
ENDROOT
BRANCH   1   6
ATOM      6  C   UNL     1      -3.478  -0.347   3.694  0.00  0.00    +0.172 C 
BRANCH   6   8
ATOM      7  N   UNL     1      -1.309  -0.339   2.505  0.00  0.00    -0.285 N 
ATOM      8  C   UNL     1      -1.990  -0.578   3.643  0.00  0.00    +0.225 C 
ATOM      9  O   UNL     1      -1.405  -0.980   4.627  0.00  0.00    -0.275 OA
ATOM     10  H   UNL     1      -1.764   0.044   1.739  0.00  0.00    +0.155 HD
BRANCH   7  16
ATOM     11  C   UNL     1       0.600  -1.100   1.236  0.00  0.00    -0.026 A 
ATOM     12  C   UNL     1       1.948  -1.393   1.163  0.00  0.00    +0.005 A 
ATOM     13  C   UNL     1       2.753  -1.237   2.276  0.00  0.00    +0.000 A 
ATOM     14  C   UNL     1       2.212  -0.786   3.466  0.00  0.00    +0.002 A 
ATOM     15  C   UNL     1       0.865  -0.491   3.546  0.00  0.00    +0.023 A 
ATOM     16  C   UNL     1       0.055  -0.642   2.429  0.00  0.00    +0.037 A 
BRANCH  11  18
ATOM     17  C   UNL     1      -0.393   0.066  -0.714  0.00  0.00    +0.009 C 
ATOM     18  C   UNL     1      -0.277  -1.270   0.022  0.00  0.00    +0.033 C 
ENDBRANCH  11  18
ENDBRANCH   7  16
ENDBRANCH   6   8
ENDBRANCH   1   6
BRANCH   5  19
ATOM     19  C   UNL     1      -3.736   1.588   6.160  0.00  0.00    +0.152 C 
BRANCH  19  20
ATOM     20  C   UNL     1      -4.929   2.419   5.764  0.00  0.00    -0.013 C 
ATOM     21  C   UNL     1      -5.357   3.370   6.556  0.00  0.00    +0.005 C 
ENDBRANCH  19  20
ENDBRANCH   5  19
BRANCH   4  22
ATOM     22  S   UNL     1      -4.970  -0.003   8.783  0.00  0.00    -0.077 S 
BRANCH  22  23
ATOM     23  C   UNL     1      -5.610  -1.474   9.631  0.00  0.00    +0.173 C 
BRANCH  23  24
ATOM     24  C   UNL     1      -5.960  -1.121  11.054  0.00  0.00    +0.229 C 
ATOM     25  O   UNL     1      -5.795   0.012  11.456  0.00  0.00    -0.275 OA
ATOM     26  N   UNL     1      -6.458  -2.063  11.879  0.00  0.00    -0.263 N 
ATOM     27  C   UNL     1      -6.781  -1.737  13.192  0.00  0.00    +0.188 A 
ATOM     28  N   UNL     1      -6.682  -0.576  13.809  0.00  0.00    -0.126 NA
ATOM     29  N   UNL     1      -7.019  -0.432  15.018  0.00  0.00    -0.144 NA
ATOM     30  C   UNL     1      -7.484  -1.471  15.683  0.00  0.00    +0.106 A 
ATOM     31  S   UNL     1      -7.410  -2.721  14.407  0.00  0.00    -0.035 S 
ATOM     32  H   UNL     1      -6.590  -2.969  11.557  0.00  0.00    +0.157 HD
BRANCH  30  33
ATOM     33  C   UNL     1      -7.950  -1.574  17.112  0.00  0.00    +0.040 C 
ATOM     34  C   UNL     1      -6.803  -1.198  18.052  0.00  0.00    +0.014 C 
ATOM     35  C   UNL     1      -9.125  -0.620  17.335  0.00  0.00    +0.014 C 
ENDBRANCH  30  33
ENDBRANCH  23  24
ENDBRANCH  22  23
ENDBRANCH   4  22
TORSDOF 10
