REMARK  Name = ZINC12428250
REMARK  6 active torsions:
REMARK  status: ('A' for Active; 'I' for Inactive)
REMARK    1  A    between atoms: C_2  and  C_16
REMARK    2  A    between atoms: C_6  and  S_7
REMARK    3  A    between atoms: S_7  and  N_10
REMARK    4  A    between atoms: N_10  and  C_11
REMARK    5  A    between atoms: N_18  and  C_19
REMARK    6  A    between atoms: C_19  and  C_20
REMARK                            x       y       z     vdW  Elec       q    Type
REMARK                         _______ _______ _______ _____ _____    ______ ____
ROOT
ATOM      1  C   UNL     1      -2.421   2.625  -3.015  0.00  0.00    +0.044 A 
ATOM      2  C   UNL     1      -1.275   1.830  -2.934  0.00  0.00    +0.057 A 
ATOM      3  C   UNL     1      -0.611   1.452  -4.103  0.00  0.00    +0.055 A 
ATOM      4  C   UNL     1      -1.087   1.870  -5.330  0.00  0.00    +0.042 A 
ATOM      5  C   UNL     1      -2.219   2.663  -5.402  0.00  0.00    +0.069 A 
ATOM      6  C   UNL     1      -2.882   3.041  -4.246  0.00  0.00    +0.124 A 
ATOM      7 CL   UNL     1      -2.812   3.185  -6.948  0.00  0.00    -0.081 Cl
ATOM      8 CL   UNL     1       0.810   0.458  -4.014  0.00  0.00    -0.083 Cl
ENDROOT
BRANCH   2   9
ATOM      9  C   UNL     1      -0.772   1.387  -1.618  0.00  0.00    +0.246 C 
ATOM     10  O   UNL     1       0.223   0.691  -1.551  0.00  0.00    -0.270 OA
ATOM     11  N   UNL     1      -1.415   1.754  -0.492  0.00  0.00    -0.311 N 
ATOM     12  H   UNL     1      -2.208   2.309  -0.546  0.00  0.00    +0.149 HD
BRANCH  11  13
ATOM     13  C   UNL     1      -0.916   1.314   0.813  0.00  0.00    +0.111 C 
BRANCH  13  14
ATOM     14  C   UNL     1      -1.821   1.864   1.917  0.00  0.00    -0.013 C 
ATOM     15  C   UNL     1      -1.822   3.393   1.861  0.00  0.00    +0.012 C 
ATOM     16  C   UNL     1      -2.727   3.944   2.965  0.00  0.00    -0.010 C 
ATOM     17  C   UNL     1      -2.205   3.484   4.328  0.00  0.00    +0.007 C 
ATOM     18  C   UNL     1      -2.204   1.955   4.385  0.00  0.00    -0.010 C 
ATOM     19  C   UNL     1      -1.299   1.405   3.280  0.00  0.00    +0.012 C 
ATOM     20  C   UNL     1      -3.629   1.436   4.182  0.00  0.00    +0.007 C 
ATOM     21  C   UNL     1      -4.150   1.895   2.819  0.00  0.00    -0.010 C 
ATOM     22  C   UNL     1      -4.152   3.424   2.763  0.00  0.00    +0.007 C 
ATOM     23  C   UNL     1      -3.245   1.345   1.715  0.00  0.00    +0.012 C 
ENDBRANCH  13  14
ENDBRANCH  11  13
ENDBRANCH   2   9
BRANCH   6  24
ATOM     24  S   UNL     1      -4.323   4.050  -4.349  0.00  0.00    +0.060 S 
ATOM     25  O   UNL     1      -4.796   4.219  -3.019  0.00  0.00    -0.153 OA
ATOM     26  O   UNL     1      -3.989   5.150  -5.184  0.00  0.00    -0.153 OA
BRANCH  24  27
ATOM     27  N   UNL     1      -5.476   3.176  -5.154  0.00  0.00    -0.187 NA
ATOM     28  H   UNL     1      -5.799   3.479  -6.017  0.00  0.00    +0.148 HD
BRANCH  27  29
ATOM     29  C   UNL     1      -6.009   1.946  -4.563  0.00  0.00    +0.077 C 
ATOM     30  C   UNL     1      -6.400   0.816  -5.518  0.00  0.00    +0.022 C 
ATOM     31  C   UNL     1      -7.485   1.627  -4.807  0.00  0.00    +0.022 C 
ENDBRANCH  27  29
ENDBRANCH  24  27
ENDBRANCH   6  24
TORSDOF 6
