REMARK  Name = ZINC66606786
REMARK  8 active torsions:
REMARK  status: ('A' for Active; 'I' for Inactive)
REMARK    1  A    between atoms: C_1  and  C_2
REMARK    2  A    between atoms: C_5  and  N_9
REMARK    3  A    between atoms: N_9  and  N_10
REMARK    4  A    between atoms: C_11  and  C_13
REMARK    5  A    between atoms: C_13  and  C_14
REMARK    6  A    between atoms: C_14  and  C_16
REMARK    7  A    between atoms: C_14  and  N_17
REMARK    8  A    between atoms: C_18  and  C_20
REMARK                            x       y       z     vdW  Elec       q    Type
REMARK                         _______ _______ _______ _____ _____    ______ ____
ROOT
ATOM      1  N   UNL     1       0.074  -4.876   1.187  0.00  0.00    -0.236 N 
ATOM      2  C   UNL     1       0.092  -6.224   1.179  0.00  0.00    +0.231 C 
ATOM      3  O   UNL     1       0.095  -6.824   0.124  0.00  0.00    -0.274 OA
ATOM      4  H   UNL     1       0.072  -4.396   2.030  0.00  0.00    +0.173 HD
ENDROOT
BRANCH   1   5
ATOM      5  N   UNL     1       0.059  -4.168  -0.022  0.00  0.00    -0.264 N 
ATOM      6  H   UNL     1       0.060  -4.648  -0.865  0.00  0.00    +0.170 HD
BRANCH   5  11
ATOM      7  C   UNL     1      -0.018   1.503   0.010  0.00  0.00    +0.045 C 
ATOM      8  C   UNL     1       0.002  -0.004   0.002  0.00  0.00    -0.032 A 
ATOM      9  C   UNL     1       0.006  -0.688  -1.200  0.00  0.00    +0.006 A 
ATOM     10  C   UNL     1       0.025  -2.068  -1.212  0.00  0.00    +0.025 A 
ATOM     11  C   UNL     1       0.040  -2.772  -0.013  0.00  0.00    +0.046 A 
ATOM     12  C   UNL     1       0.037  -2.083   1.193  0.00  0.00    +0.044 A 
ATOM     13  C   UNL     1       0.023  -0.701   1.197  0.00  0.00    +0.046 A 
ATOM     14 CL   UNL     1       0.025   0.161   2.704  0.00  0.00    -0.083 Cl
ENDBRANCH   5  11
ENDBRANCH   1   5
BRANCH   2  15
ATOM     15  C   UNL     1       0.109  -6.985   2.479  0.00  0.00    +0.119 C 
BRANCH  15  16
ATOM     16  C   UNL     1       0.127  -8.487   2.190  0.00  0.00    +0.079 C 
ATOM     17  C   UNL     1       0.019  -9.261   3.506  0.00  0.00    +0.028 C 
BRANCH  16  18
ATOM     18  N   UNL     1       1.381  -8.840   1.518  0.00  0.00    -0.312 N 
ATOM     19  C   UNL     1       1.439  -9.932   0.731  0.00  0.00    +0.216 C 
ATOM     20  O   UNL     1       0.454 -10.623   0.579  0.00  0.00    -0.276 OA
ATOM     21  H   UNL     1       2.168  -8.287   1.640  0.00  0.00    +0.149 HD
BRANCH  19  22
ATOM     22  C   UNL     1       2.728 -10.295   0.040  0.00  0.00    +0.075 C 
ATOM     23  C   UNL     1       3.151  -9.151  -0.884  0.00  0.00    +0.013 C 
ATOM     24  C   UNL     1       4.460  -9.520  -1.586  0.00  0.00    +0.001 C 
ATOM     25  C   UNL     1       4.255 -10.792  -2.411  0.00  0.00    +0.000 C 
ATOM     26  C   UNL     1       3.832 -11.936  -1.487  0.00  0.00    +0.001 C 
ATOM     27  C   UNL     1       2.523 -11.568  -0.785  0.00  0.00    +0.013 C 
ENDBRANCH  19  22
ENDBRANCH  16  18
ENDBRANCH  15  16
ENDBRANCH   2  15
TORSDOF 6
