REMARK  Name = ZINC10244400
REMARK  8 active torsions:
REMARK  status: ('A' for Active; 'I' for Inactive)
REMARK    1  A    between atoms: N_13  and  C_28
REMARK    2  A    between atoms: C_14  and  S_16
REMARK    3  A    between atoms: S_16  and  C_17
REMARK    4  A    between atoms: C_17  and  C_18
REMARK    5  A    between atoms: N_20  and  C_21
REMARK    6  A    between atoms: C_21  and  C_22
REMARK    7  A    between atoms: C_31  and  O_34
REMARK    8  A    between atoms: O_34  and  C_35
REMARK                            x       y       z     vdW  Elec       q    Type
REMARK                         _______ _______ _______ _____ _____    ______ ____
ROOT
ATOM      1  C   UNL     1      11.161   2.976   0.440  0.00  0.00    +0.001 A 
ATOM      2  C   UNL     1      12.342   3.283  -0.221  0.00  0.00    +0.002 A 
ATOM      3  C   UNL     1      12.411   4.367  -1.066  0.00  0.00    +0.026 A 
ATOM      4  C   UNL     1      11.287   5.167  -1.263  0.00  0.00    +0.049 A 
ATOM      5  C   UNL     1      10.095   4.851  -0.591  0.00  0.00    +0.026 A 
ATOM      6  C   UNL     1      10.047   3.747   0.262  0.00  0.00    +0.012 A 
ATOM      7  C   UNL     1       9.105   5.860  -0.995  0.00  0.00    +0.104 A 
ATOM      8  C   UNL     1       9.756   6.718  -1.881  0.00  0.00    +0.132 A 
ATOM      9  N   UNL     1      11.065   6.289  -2.032  0.00  0.00    -0.349 N 
ATOM     10  H   UNL     1      11.728   6.717  -2.596  0.00  0.00    +0.166 HD
ATOM     11  C   UNL     1       9.028   7.793  -2.431  0.00  0.00    +0.283 A 
ATOM     12  O   UNL     1       9.557   8.569  -3.211  0.00  0.00    -0.265 OA
ATOM     13  N   UNL     1       7.734   7.947  -2.078  0.00  0.00    -0.254 N 
ATOM     14  C   UNL     1       7.149   7.075  -1.205  0.00  0.00    +0.177 A 
ATOM     15  N   UNL     1       7.817   6.072  -0.681  0.00  0.00    -0.221 NA
ENDROOT
BRANCH  13  16
ATOM     16  C   UNL     1       6.987   9.008  -2.610  0.00  0.00    +0.052 A 
ATOM     17  C   UNL     1       6.949  10.229  -1.952  0.00  0.00    +0.030 A 
ATOM     18  C   UNL     1       6.217  11.275  -2.479  0.00  0.00    +0.048 A 
ATOM     19  C   UNL     1       5.511  11.101  -3.660  0.00  0.00    +0.130 A 
ATOM     20  C   UNL     1       5.545   9.879  -4.316  0.00  0.00    +0.048 A 
ATOM     21  C   UNL     1       6.281   8.835  -3.793  0.00  0.00    +0.030 A 
BRANCH  19  22
ATOM     22  O   UNL     1       4.787  12.130  -4.177  0.00  0.00    -0.406 OA
BRANCH  22  23
ATOM     23  C   UNL     1       4.797  13.360  -3.449  0.00  0.00    +0.575 C 
ATOM     24  F   UNL     1       6.110  13.835  -3.355  0.00  0.00    -0.133 F 
ATOM     25  F   UNL     1       4.007  14.302  -4.116  0.00  0.00    -0.133 F 
ATOM     26  F   UNL     1       4.285  13.146  -2.165  0.00  0.00    -0.133 F 
ENDBRANCH  22  23
ENDBRANCH  19  22
ENDBRANCH  13  16
BRANCH  14  27
ATOM     27  S   UNL     1       5.458   7.304  -0.764  0.00  0.00    -0.078 S 
BRANCH  27  28
ATOM     28  C   UNL     1       5.237   5.911   0.370  0.00  0.00    +0.173 C 
BRANCH  28  29
ATOM     29  C   UNL     1       3.822   5.904   0.889  0.00  0.00    +0.223 C 
ATOM     30  O   UNL     1       3.040   6.758   0.527  0.00  0.00    -0.275 OA
ATOM     31  N   UNL     1       3.426   4.951   1.755  0.00  0.00    -0.312 N 
ATOM     32  H   UNL     1       4.052   4.268   2.044  0.00  0.00    +0.149 HD
BRANCH  31  33
ATOM     33  C   UNL     1       2.051   4.945   2.259  0.00  0.00    +0.135 C 
BRANCH  33  34
ATOM     34  C   UNL     1       1.864   3.767   3.218  0.00  0.00    +0.135 C 
ATOM     35  C   UNL     1       0.415   3.735   3.768  0.00  0.00    +0.035 C 
ATOM     36  C   UNL     1       0.243   2.243   4.141  0.00  0.00    +0.031 C 
ATOM     37  C   UNL     1       1.318   1.518   3.308  0.00  0.00    +0.160 C 
ATOM     38  O   UNL     1       1.984   2.513   2.512  0.00  0.00    -0.375 OA
ENDBRANCH  33  34
ENDBRANCH  31  33
ENDBRANCH  28  29
ENDBRANCH  27  28
ENDBRANCH  14  27
TORSDOF 8
