REMARK  Name = ZINC22829213
REMARK  5 active torsions:
REMARK  status: ('A' for Active; 'I' for Inactive)
REMARK    1  A    between atoms: C_1  and  C_2
REMARK    2  A    between atoms: N_11  and  C_15
REMARK    3  A    between atoms: C_15  and  C_16
REMARK    4  A    between atoms: N_18  and  C_19
REMARK    5  A    between atoms: C_24  and  N_25
REMARK                            x       y       z     vdW  Elec       q    Type
REMARK                         _______ _______ _______ _____ _____    ______ ____
ROOT
ATOM      1  C   UNL     1      -3.487   2.336   0.656  0.00  0.00    +0.235 C 
ATOM      2  O   UNL     1      -3.184   1.169   0.787  0.00  0.00    -0.274 OA
ATOM      3  N   UNL     1      -2.532   3.257   0.417  0.00  0.00    -0.283 N 
ATOM      4  H   UNL     1      -2.797   4.323   0.365  0.00  0.00    +0.155 HD
ENDROOT
BRANCH   3   5
ATOM      5  C   UNL     1      -1.202   2.856   0.234  0.00  0.00    +0.055 A 
ATOM      6  C   UNL     1      -0.748   1.674   0.799  0.00  0.00    +0.025 A 
ATOM      7  C   UNL     1       0.567   1.284   0.622  0.00  0.00    +0.002 A 
ATOM      8  C   UNL     1       1.429   2.063  -0.127  0.00  0.00    +0.002 A 
ATOM      9  C   UNL     1       0.984   3.240  -0.698  0.00  0.00    +0.025 A 
ATOM     10  C   UNL     1      -0.332   3.643  -0.521  0.00  0.00    +0.051 A 
BRANCH  10  11
ATOM     11  N   UNL     1      -0.785   4.834  -1.098  0.00  0.00    -0.328 N 
ATOM     12  C   UNL     1      -0.691   4.778  -2.574  0.00  0.00    +0.105 C 
ATOM     13  C   UNL     1      -0.905   6.118  -3.223  0.00  0.00    +0.019 C 
ATOM     14  C   UNL     1       0.470   6.784  -3.439  0.00  0.00    +0.002 C 
ATOM     15  C   UNL     1       0.995   7.373  -2.212  0.00  0.00    +0.002 C 
ATOM     16  C   UNL     1       1.209   6.320  -1.105  0.00  0.00    +0.019 C 
ATOM     17  C   UNL     1      -0.124   6.006  -0.481  0.00  0.00    +0.105 C 
ENDBRANCH  10  11
ENDBRANCH   3   5
BRANCH   1  18
ATOM     18  C   UNL     1      -4.930   2.756   0.759  0.00  0.00    +0.214 C 
BRANCH  18  28
ATOM     19  C   UNL     1      -5.040  -1.700   0.806  0.00  0.00    +0.010 C 
ATOM     20  C   UNL     1      -6.524  -1.641   0.438  0.00  0.00    +0.018 C 
ATOM     21  C   UNL     1      -7.285  -2.716   1.217  0.00  0.00    +0.006 C 
ATOM     22  C   UNL     1      -8.772  -2.643   0.863  0.00  0.00    +0.000 C 
ATOM     23  C   UNL     1      -9.322  -1.266   1.242  0.00  0.00    +0.003 C 
ATOM     24  C   UNL     1      -8.567  -0.186   0.463  0.00  0.00    +0.035 C 
ATOM     25  C   UNL     1      -7.080  -0.266   0.790  0.00  0.00    +0.115 C 
ATOM     26  C   UNL     1      -6.323   0.818   0.058  0.00  0.00    +0.247 C 
ATOM     27  O   UNL     1      -6.236   0.970  -1.142  0.00  0.00    -0.273 OA
ATOM     28  N   UNL     1      -5.763   1.580   1.021  0.00  0.00    -0.215 N 
ATOM     29  C   UNL     1      -6.069   1.131   2.244  0.00  0.00    +0.310 C 
ATOM     30  O   UNL     1      -5.684   1.654   3.272  0.00  0.00    -0.252 OA
ATOM     31  N   UNL     1      -6.850   0.034   2.209  0.00  0.00    -0.285 N 
ATOM     32  H   UNL     1      -7.295  -0.605   2.986  0.00  0.00    +0.151 HD
ENDBRANCH  18  28
ENDBRANCH   1  18
TORSDOF 4
