REMARK  Name = ZINC34923358
REMARK  13 active torsions:
REMARK  status: ('A' for Active; 'I' for Inactive)
REMARK    1  A    between atoms: C_1  and  C_2
REMARK    2  A    between atoms: C_6  and  C_8
REMARK    3  A    between atoms: C_10  and  C_31
REMARK    4  A    between atoms: C_11  and  C_30
REMARK    5  A    between atoms: C_15  and  C_18
REMARK    6  A    between atoms: C_19  and  N_21
REMARK    7  A    between atoms: C_24  and  N_27
REMARK    8  A    between atoms: N_27  and  C_28
REMARK    9  A    between atoms: N_27  and  C_29
REMARK   10  A    between atoms: C_31  and  O_33
REMARK   11  A    between atoms: O_33  and  C_34
REMARK   12  A    between atoms: C_34  and  C_35
REMARK   13  A    between atoms: C_34  and  C_36
REMARK                            x       y       z     vdW  Elec       q    Type
REMARK                         _______ _______ _______ _____ _____    ______ ____
ROOT
ATOM      1  C   UNL     1      -0.074  -2.624   2.465  0.00  0.00    +0.150 C 
ATOM      2  C   UNL     1       1.389  -2.908   2.724  0.00  0.00    +0.082 C 
ATOM      3  C   UNL     1       1.788  -4.229   2.783  0.00  0.00    +0.053 C 
ATOM      4  N   UNL     1       0.909  -5.204   2.614  0.00  0.00    -0.230 NA
ATOM      5  C   UNL     1      -0.376  -5.025   2.385  0.00  0.00    +0.166 C 
ATOM      6  N   UNL     1      -0.970  -3.798   2.291  0.00  0.00    -0.267 N 
ATOM      7  C   UNL     1      -2.329  -3.778   2.045  0.00  0.00    +0.048 C 
ATOM      8  C   UNL     1      -2.961  -4.965   1.918  0.00  0.00    +0.072 C 
ATOM      9  S   UNL     1      -1.626  -6.120   2.148  0.00  0.00    -0.060 S 
ATOM     10  C   UNL     1       3.235  -4.563   3.039  0.00  0.00    +0.066 C 
ENDROOT
BRANCH   1  16
ATOM     11  C   UNL     1      -0.654   1.848   0.294  0.00  0.00    +0.044 C 
ATOM     12  C   UNL     1      -0.447   0.359   0.181  0.00  0.00    -0.050 A 
ATOM     13  C   UNL     1      -0.343  -0.232  -1.064  0.00  0.00    +0.003 A 
ATOM     14  C   UNL     1      -0.153  -1.597  -1.168  0.00  0.00    +0.001 A 
ATOM     15  C   UNL     1      -0.066  -2.371  -0.025  0.00  0.00    +0.006 A 
ATOM     16  C   UNL     1      -0.169  -1.780   1.220  0.00  0.00    -0.022 A 
ATOM     17  C   UNL     1      -0.354  -0.414   1.323  0.00  0.00    +0.009 A 
ENDBRANCH   1  16
BRANCH   7  18
ATOM     18  C   UNL     1      -3.062  -2.509   1.927  0.00  0.00    +0.091 C 
ATOM     19  C   UNL     1      -4.405  -2.514   1.828  0.00  0.00    +0.241 C 
ATOM     20  O   UNL     1      -5.091  -3.673   1.977  0.00  0.00    -0.271 OA
BRANCH  19  21
ATOM     21  N   UNL     1      -5.085  -1.335   1.574  0.00  0.00    -0.300 N 
ATOM     22  C   UNL     1      -4.465  -0.035   1.278  0.00  0.00    +0.106 C 
ATOM     23  C   UNL     1      -5.607   0.974   1.039  0.00  0.00    +0.005 C 
ATOM     24  C   UNL     1      -6.802   0.061   0.656  0.00  0.00    -0.050 C 
ATOM     25  C   UNL     1      -6.550  -1.176   1.549  0.00  0.00    +0.093 C 
BRANCH  24  26
ATOM     26  N   UNL     1      -8.082   0.702   0.987  0.00  0.00    +0.379 N 
ATOM     27  C   UNL     1      -8.201   1.968   0.250  0.00  0.00    -0.096 C 
ATOM     28  C   UNL     1      -9.187  -0.189   0.611  0.00  0.00    -0.096 C 
ATOM     29  H   UNL     1      -8.120   0.885   1.978  0.00  0.00    -0.082 HD
ENDBRANCH  24  26
ENDBRANCH  19  21
ENDBRANCH   7  18
BRANCH   2  30
ATOM     30  C   UNL     1       2.308  -1.866   2.900  0.00  0.00    +0.339 C 
ATOM     31  O   UNL     1       3.494  -2.115   3.030  0.00  0.00    -0.245 OA
BRANCH  30  32
ATOM     32  O   UNL     1       1.880  -0.585   2.925  0.00  0.00    -0.459 OA
BRANCH  32  33
ATOM     33  C   UNL     1       2.872   0.427   3.108  0.00  0.00    +0.171 C 
ATOM     34  C   UNL     1       3.401   0.875   1.744  0.00  0.00    +0.052 C 
ATOM     35  C   UNL     1       2.252   1.624   3.832  0.00  0.00    +0.052 C 
ENDBRANCH  32  33
ENDBRANCH  30  32
ENDBRANCH   2  30
TORSDOF 7
