REMARK  Name = ZINC10206832
REMARK  8 active torsions:
REMARK  status: ('A' for Active; 'I' for Inactive)
REMARK    1  A    between atoms: C_1  and  C_2
REMARK    2  A    between atoms: C_2  and  C_4
REMARK    3  A    between atoms: C_2  and  N_52
REMARK    4  A    between atoms: C_11  and  N_52
REMARK    5  A    between atoms: C_12  and  C_13
REMARK    6  A    between atoms: C_12  and  N_52
REMARK    7  A    between atoms: C_17  and  C_26
REMARK    8  A    between atoms: N_28  and  C_29
REMARK                            x       y       z     vdW  Elec       q    Type
REMARK                         _______ _______ _______ _____ _____    ______ ____
ROOT
ATOM      1  C   UNL     1       0.338  -1.483   1.936  0.00  0.00    +0.203 C 
ATOM      2  O   UNL     1      -0.729  -2.010   1.699  0.00  0.00    -0.277 OA
ATOM      3  N   UNL     1       0.762  -0.450   1.182  0.00  0.00    -0.266 N 
ATOM      4  C   UNL     1       2.009   0.267   1.502  0.00  0.00    +0.168 C 
ATOM      5  C   UNL     1       2.746   0.527   0.181  0.00  0.00    +0.276 C 
ATOM      6  O   UNL     1       1.894   1.285  -0.681  0.00  0.00    -0.476 OA
ATOM      7  C   UNL     1       0.620   0.847  -0.856  0.00  0.00    +0.143 A 
ATOM      8  C   UNL     1       0.030  -0.018   0.062  0.00  0.00    +0.078 A 
ATOM      9  C   UNL     1      -1.272  -0.452  -0.126  0.00  0.00    +0.027 A 
ATOM     10  C   UNL     1      -1.987  -0.026  -1.231  0.00  0.00    +0.002 A 
ATOM     11  C   UNL     1      -1.403   0.831  -2.145  0.00  0.00    +0.004 A 
ATOM     12  C   UNL     1      -0.104   1.267  -1.962  0.00  0.00    +0.047 A 
ENDROOT
BRANCH   5  13
ATOM     13  C   UNL     1       4.010   1.303   0.453  0.00  0.00    +0.255 C 
ATOM     14  O   UNL     1       4.133   2.430   0.021  0.00  0.00    -0.272 OA
ATOM     15  N   UNL     1       5.002   0.744   1.174  0.00  0.00    -0.315 N 
ATOM     16  C   UNL     1       6.229   1.499   1.438  0.00  0.00    +0.128 C 
ATOM     17  H   UNL     1       4.902  -0.157   1.519  0.00  0.00    +0.148 HD
ENDBRANCH   5  13
BRANCH   1  18
ATOM     18  C   UNL     1       1.189  -1.984   3.075  0.00  0.00    +0.020 C 
BRANCH  18  20
ATOM     19  C   UNL     1       0.584  -4.298   2.694  0.00  0.00    -0.095 C 
ATOM     20  N   UNL     1       0.546  -3.179   3.660  0.00  0.00    +0.388 N 
ATOM     21  H   UNL     1      -0.433  -2.959   3.877  0.00  0.00    -0.081 HD
BRANCH  20  23
ATOM     22  C   UNL     1       1.121  -2.420   5.915  0.00  0.00    -0.008 C 
ATOM     23  C   UNL     1       1.238  -3.566   4.907  0.00  0.00    -0.041 C 
BRANCH  23  24
ATOM     24  C   UNL     1       0.581  -4.799   5.471  0.00  0.00    -0.061 A 
ATOM     25  C   UNL     1      -0.794  -4.934   5.420  0.00  0.00    +0.005 A 
ATOM     26  C   UNL     1      -1.397  -6.066   5.932  0.00  0.00    +0.038 A 
ATOM     27  C   UNL     1      -0.625  -7.062   6.506  0.00  0.00    +0.123 A 
ATOM     28  C   UNL     1       0.752  -6.924   6.561  0.00  0.00    +0.038 A 
ATOM     29  C   UNL     1       1.353  -5.793   6.043  0.00  0.00    +0.005 A 
ATOM     30  F   UNL     1      -1.214  -8.168   7.011  0.00  0.00    -0.205 F 
ENDBRANCH  23  24
ENDBRANCH  20  23
ENDBRANCH  18  20
ENDBRANCH   1  18
TORSDOF 5
