REMARK  Name = ZINC40004020
REMARK  13 active torsions:
REMARK  status: ('A' for Active; 'I' for Inactive)
REMARK    1  A    between atoms: C_1  and  C_2
REMARK    2  A    between atoms: C_2  and  O_3
REMARK    3  A    between atoms: O_3  and  C_4
REMARK    4  A    between atoms: C_6  and  C_14
REMARK    5  A    between atoms: C_9  and  O_10
REMARK    6  A    between atoms: O_10  and  C_11
REMARK    7  A    between atoms: C_11  and  C_12
REMARK    8  A    between atoms: C_16  and  C_28
REMARK    9  A    between atoms: N_20  and  C_21
REMARK   10  A    between atoms: C_21  and  C_22
REMARK   11  A    between atoms: C_28  and  C_30
REMARK   12  A    between atoms: C_31  and  C_40
REMARK   13  A    between atoms: C_38  and  C_39
REMARK                            x       y       z     vdW  Elec       q    Type
REMARK                         _______ _______ _______ _____ _____    ______ ____
ROOT
ATOM      1  C   UNL     1       1.775  -4.419  -0.223  0.00  0.00    +0.145 C 
ATOM      2  C   UNL     1       0.990  -5.109   0.869  0.00  0.00    +0.078 C 
ATOM      3  C   UNL     1       0.251  -6.070   0.270  0.00  0.00    +0.249 C 
ATOM      4  C   UNL     1       0.511  -6.049  -1.182  0.00  0.00    +0.288 C 
ATOM      5  O   UNL     1      -0.003  -6.794  -1.994  0.00  0.00    -0.266 OA
ATOM      6  N   UNL     1       1.404  -5.085  -1.477  0.00  0.00    -0.276 N 
ATOM      7  O   UNL     1      -0.595  -6.917   0.903  0.00  0.00    -0.282 OA
ENDROOT
BRANCH   1  10
ATOM      8  C   UNL     1       1.976  -0.659   0.080  0.00  0.00    +0.162 A 
ATOM      9  C   UNL     1       2.313  -2.002   0.134  0.00  0.00    +0.055 A 
ATOM     10  C   UNL     1       1.407  -2.959  -0.282  0.00  0.00    -0.019 A 
ATOM     11  C   UNL     1       0.164  -2.580  -0.754  0.00  0.00    +0.009 A 
ATOM     12  C   UNL     1      -0.178  -1.242  -0.812  0.00  0.00    +0.050 A 
ATOM     13  C   UNL     1       0.723  -0.277  -0.390  0.00  0.00    +0.162 A 
BRANCH   8  14
ATOM     14  O   UNL     1       2.866   0.284   0.490  0.00  0.00    -0.489 OA
BRANCH  14  16
ATOM     15  C   UNL     1       5.057   1.032   1.183  0.00  0.00    +0.048 C 
ATOM     16  C   UNL     1       4.168  -0.171   0.862  0.00  0.00    +0.226 C 
ENDBRANCH  14  16
ENDBRANCH   8  14
BRANCH  13  17
ATOM     17  O   UNL     1       0.385   1.039  -0.440  0.00  0.00    -0.484 OA
BRANCH  17  18
ATOM     18  C   UNL     1      -0.918   1.357  -0.933  0.00  0.00    +0.256 C 
BRANCH  18  19
ATOM     19  C   UNL     1      -1.111   2.851  -0.915  0.00  0.00    +0.006 C 
ATOM     20  C   UNL     1      -1.641   3.455  -1.950  0.00  0.00    +0.007 C 
ENDBRANCH  18  19
ENDBRANCH  17  18
ENDBRANCH  13  17
ENDBRANCH   1  10
BRANCH   2  21
ATOM     21  C   UNL     1       1.023  -4.796   2.303  0.00  0.00    +0.213 C 
ATOM     22  O   UNL     1       0.066  -4.257   2.832  0.00  0.00    -0.285 OA
BRANCH  21  23
ATOM     23  C   UNL     1       2.168  -5.121   3.072  0.00  0.00    +0.116 A 
ATOM     24  C   UNL     1       3.276  -5.845   2.651  0.00  0.00    +0.068 A 
ATOM     25  N   UNL     1       4.123  -5.929   3.662  0.00  0.00    -0.232 NA
ATOM     26  C   UNL     1       3.624  -5.296   4.724  0.00  0.00    +0.141 A 
ATOM     27  N   UNL     1       2.407  -4.775   4.390  0.00  0.00    -0.296 N 
ATOM     28  C   UNL     1       1.681  -4.070   5.298  0.00  0.00    +0.093 A 
ATOM     29  C   UNL     1       2.152  -3.868   6.551  0.00  0.00    +0.018 A 
ATOM     30  C   UNL     1       3.399  -4.387   6.924  0.00  0.00    +0.008 A 
ATOM     31  C   UNL     1       4.129  -5.103   6.021  0.00  0.00    -0.008 A 
ATOM     32  C   UNL     1       5.473  -5.666   6.406  0.00  0.00    +0.047 C 
ATOM     33  C   UNL     1       3.478  -6.434   1.278  0.00  0.00    +0.068 C 
ENDBRANCH  21  23
ENDBRANCH   2  21
BRANCH   6  34
ATOM     34  C   UNL     1       1.915  -4.758  -2.811  0.00  0.00    +0.183 C 
BRANCH  34  35
ATOM     35  C   UNL     1       3.151  -5.574  -3.089  0.00  0.00    +0.122 A 
ATOM     36  C   UNL     1       3.179  -6.787  -3.669  0.00  0.00    +0.046 A 
ATOM     37  C   UNL     1       4.535  -7.180  -3.733  0.00  0.00    +0.041 A 
ATOM     38  C   UNL     1       5.256  -6.183  -3.188  0.00  0.00    +0.195 A 
ATOM     39  O   UNL     1       4.412  -5.210  -2.805  0.00  0.00    -0.466 OA
ENDBRANCH  34  35
ENDBRANCH   6  34
TORSDOF 10
