REMARK  Name = ZINC18062439
REMARK  4 active torsions:
REMARK  status: ('A' for Active; 'I' for Inactive)
REMARK    1  A    between atoms: N_11  and  N_12
REMARK    2  A    between atoms: C_13  and  C_15
REMARK    3  A    between atoms: C_15  and  N_16
REMARK    4  A    between atoms: N_16  and  C_17
REMARK                            x       y       z     vdW  Elec       q    Type
REMARK                         _______ _______ _______ _____ _____    ______ ____
ROOT
ATOM      1  N   UNL     1       6.018  -0.744  -0.299  0.00  0.00    -0.205 N 
ATOM      2  C   UNL     1       7.170  -0.087  -0.541  0.00  0.00    +0.249 C 
ATOM      3  O   UNL     1       7.155   1.109  -0.744  0.00  0.00    -0.272 OA
ATOM      4  H   UNL     1       6.030  -1.700  -0.137  0.00  0.00    +0.177 HD
ENDROOT
BRANCH   1  15
ATOM      5  C   UNL     1      -0.017   1.378   0.010  0.00  0.00    +0.000 A 
ATOM      6  C   UNL     1       1.167   2.095   0.002  0.00  0.00    +0.001 A 
ATOM      7  C   UNL     1       2.375   1.430  -0.015  0.00  0.00    +0.010 A 
ATOM      8  C   UNL     1       2.398   0.034  -0.024  0.00  0.00    +0.001 A 
ATOM      9  C   UNL     1       1.205  -0.687  -0.012  0.00  0.00    -0.038 A 
ATOM     10  C   UNL     1       0.002  -0.004   0.002  0.00  0.00    +0.004 A 
ATOM     11  C   UNL     1       1.193  -2.191  -0.008  0.00  0.00    +0.036 C 
ATOM     12  C   UNL     1       2.495  -2.757  -0.568  0.00  0.00    +0.011 C 
ATOM     13  C   UNL     1       3.682  -2.170   0.208  0.00  0.00    +0.058 C 
ATOM     14  C   UNL     1       3.695  -0.677  -0.048  0.00  0.00    +0.067 C 
ATOM     15  N   UNL     1       4.804  -0.045  -0.281  0.00  0.00    -0.184 NA
ENDBRANCH   1  15
BRANCH   2  16
ATOM     16  C   UNL     1       8.476  -0.839  -0.560  0.00  0.00    +0.199 C 
BRANCH  16  17
ATOM     17  N   UNL     1       9.571   0.092  -0.842  0.00  0.00    -0.334 N 
ATOM     18  H   UNL     1       9.384   1.033  -0.982  0.00  0.00    +0.147 HD
BRANCH  17  19
ATOM     19  C   UNL     1      10.886  -0.376  -0.910  0.00  0.00    +0.046 A 
ATOM     20  C   UNL     1      11.156  -1.725  -0.716  0.00  0.00    +0.024 A 
ATOM     21  C   UNL     1      12.457  -2.184  -0.785  0.00  0.00    +0.002 A 
ATOM     22  C   UNL     1      13.491  -1.304  -1.046  0.00  0.00    +0.002 A 
ATOM     23  C   UNL     1      13.226   0.040  -1.240  0.00  0.00    +0.022 A 
ATOM     24  C   UNL     1      11.927   0.506  -1.178  0.00  0.00    +0.062 A 
ATOM     25 CL   UNL     1      11.595   2.191  -1.429  0.00  0.00    -0.082 Cl
ENDBRANCH  17  19
ENDBRANCH  16  17
ENDBRANCH   2  16
TORSDOF 4
