REMARK  Name = ZINC52798223
REMARK  3 active torsions:
REMARK  status: ('A' for Active; 'I' for Inactive)
REMARK    1  A    between atoms: C_3  and  C_11
REMARK    2  A    between atoms: N_13  and  C_14
REMARK    3  A    between atoms: C_17  and  C_20
REMARK                            x       y       z     vdW  Elec       q    Type
REMARK                         _______ _______ _______ _____ _____    ______ ____
ROOT
ATOM      1  C   UNL     1       3.651   2.174  -0.021  0.00  0.00    +0.252 C 
ATOM      2  O   UNL     1       4.714   1.583  -0.027  0.00  0.00    -0.270 OA
ATOM      3  N   UNL     1       3.630   3.522  -0.014  0.00  0.00    -0.281 N 
ATOM      4  H   UNL     1       2.785   3.994  -0.077  0.00  0.00    +0.155 HD
ENDROOT
BRANCH   1   7
ATOM      5  C   UNL     1      -0.017   1.381  -0.014  0.00  0.00    +0.005 A 
ATOM      6  C   UNL     1       1.163   2.093  -0.014  0.00  0.00    +0.017 A 
ATOM      7  C   UNL     1       2.385   1.416  -0.021  0.00  0.00    +0.082 A 
ATOM      8  C   UNL     1       2.404   0.015  -0.027  0.00  0.00    +0.174 A 
ATOM      9  C   UNL     1       1.206  -0.689  -0.025  0.00  0.00    +0.163 A 
ATOM     10  C   UNL     1       0.002  -0.004  -0.020  0.00  0.00    +0.049 A 
ATOM     11  O   UNL     1       1.200  -2.051  -0.023  0.00  0.00    -0.485 OA
ATOM     12  C   UNL     1       2.418  -2.700  -0.404  0.00  0.00    +0.270 C 
ATOM     13  C   UNL     1       3.577  -2.019   0.336  0.00  0.00    +0.270 C 
ATOM     14  O   UNL     1       3.596  -0.637  -0.037  0.00  0.00    -0.484 OA
ENDBRANCH   1   7
BRANCH   3  15
ATOM     15  C   UNL     1       4.825   4.239   0.083  0.00  0.00    +0.034 A 
ATOM     16  C   UNL     1       5.976   3.757  -0.529  0.00  0.00    +0.024 A 
ATOM     17  C   UNL     1       7.157   4.463  -0.434  0.00  0.00    +0.012 A 
ATOM     18  C   UNL     1       7.195   5.662   0.276  0.00  0.00    +0.002 A 
ATOM     19  C   UNL     1       6.040   6.143   0.889  0.00  0.00    +0.012 A 
ATOM     20  C   UNL     1       4.861   5.436   0.788  0.00  0.00    +0.024 A 
BRANCH  18  21
ATOM     21  C   UNL     1       8.464   6.423   0.380  0.00  0.00    +0.092 A 
ATOM     22  C   UNL     1       8.648   7.639   1.067  0.00  0.00    +0.049 A 
ATOM     23  C   UNL     1       9.940   8.005   0.924  0.00  0.00    +0.105 A 
ATOM     24  N   UNL     1      10.559   7.065   0.177  0.00  0.00    -0.284 N 
ATOM     25  H   UNL     1      11.493   7.070  -0.084  0.00  0.00    +0.188 HD
ATOM     26  N   UNL     1       9.620   6.079  -0.149  0.00  0.00    -0.174 NA
ENDBRANCH  18  21
ENDBRANCH   3  15
TORSDOF 3
