REMARK  Name = ZINC15018992
REMARK  7 active torsions:
REMARK  status: ('A' for Active; 'I' for Inactive)
REMARK    1  A    between atoms: C_1  and  C_2
REMARK    2  A    between atoms: C_8  and  N_10
REMARK    3  A    between atoms: C_11  and  C_13
REMARK    4  A    between atoms: C_13  and  S_14
REMARK    5  A    between atoms: S_14  and  C_15
REMARK    6  A    between atoms: C_18  and  C_21
REMARK    7  A    between atoms: N_19  and  C_20
REMARK                            x       y       z     vdW  Elec       q    Type
REMARK                         _______ _______ _______ _____ _____    ______ ____
ROOT
ATOM      1  C   UNL     1       2.669  -3.119  -0.040  0.00  0.00    +0.192 A 
ATOM      2  N   UNL     1       3.760  -2.386  -0.052  0.00  0.00    -0.122 NA
ATOM      3  N   UNL     1       4.800  -3.140  -0.061  0.00  0.00    -0.125 NA
ATOM      4  C   UNL     1       4.437  -4.404  -0.064  0.00  0.00    +0.200 A 
ATOM      5  N   UNL     1       3.059  -4.428  -0.051  0.00  0.00    -0.303 N 
ATOM      6  C   UNL     1       2.194  -5.610  -0.050  0.00  0.00    +0.153 C 
ENDROOT
BRANCH   4   7
ATOM      7  C   UNL     1       5.332  -5.572  -0.078  0.00  0.00    +0.173 A 
ATOM      8  C   UNL     1       6.654  -5.539  -0.384  0.00  0.00    +0.061 A 
ATOM      9  C   UNL     1       7.132  -6.918  -0.267  0.00  0.00    +0.021 A 
ATOM     10  C   UNL     1       8.370  -7.537  -0.446  0.00  0.00    +0.011 A 
ATOM     11  C   UNL     1       8.487  -8.886  -0.259  0.00  0.00    +0.001 A 
ATOM     12  C   UNL     1       7.382  -9.642   0.107  0.00  0.00    +0.004 A 
ATOM     13  C   UNL     1       6.150  -9.049   0.288  0.00  0.00    +0.047 A 
ATOM     14  C   UNL     1       6.009  -7.680   0.103  0.00  0.00    +0.136 A 
ATOM     15  O   UNL     1       4.960  -6.837   0.204  0.00  0.00    -0.452 OA
ENDBRANCH   4   7
BRANCH   1  16
ATOM     16  S   UNL     1       1.011  -2.524  -0.021  0.00  0.00    -0.077 S 
BRANCH  16  17
ATOM     17  C   UNL     1       1.317  -0.740  -0.015  0.00  0.00    +0.173 C 
BRANCH  17  19
ATOM     18  N   UNL     1      -0.016   1.344   0.009  0.00  0.00    -0.312 N 
ATOM     19  C   UNL     1       0.002  -0.004   0.002  0.00  0.00    +0.224 C 
ATOM     20  O   UNL     1      -1.040  -0.625   0.009  0.00  0.00    -0.275 OA
ATOM     21  H   UNL     1       0.817   1.840   0.004  0.00  0.00    +0.149 HD
BRANCH  18  28
ATOM     22  C   UNL     1      -0.605   3.321  -2.024  0.00  0.00    +0.009 C 
ATOM     23  C   UNL     1      -1.105   3.452  -0.584  0.00  0.00    +0.006 C 
ATOM     24  C   UNL     1      -2.440   4.199  -0.573  0.00  0.00    +0.005 C 
ATOM     25  C   UNL     1      -2.939   4.330   0.867  0.00  0.00    +0.000 C 
ATOM     26  C   UNL     1      -3.130   2.937   1.470  0.00  0.00    +0.002 C 
ATOM     27  C   UNL     1      -1.794   2.190   1.460  0.00  0.00    +0.022 C 
ATOM     28  C   UNL     1      -1.295   2.059   0.019  0.00  0.00    +0.076 C 
ENDBRANCH  18  28
ENDBRANCH  17  19
ENDBRANCH  16  17
ENDBRANCH   1  16
TORSDOF 5
