REMARK  Name = ZINC05963664
REMARK  6 active torsions:
REMARK  status: ('A' for Active; 'I' for Inactive)
REMARK    1  A    between atoms: C_1  and  C_2
REMARK    2  A    between atoms: C_2  and  C_23
REMARK    3  A    between atoms: C_5  and  C_7
REMARK    4  A    between atoms: C_7  and  C_9
REMARK    5  A    between atoms: C_7  and  O_15
REMARK    6  A    between atoms: O_15  and  C_16
REMARK                            x       y       z     vdW  Elec       q    Type
REMARK                         _______ _______ _______ _____ _____    ______ ____
ROOT
ATOM      1  C   UNL     1      -0.615  -4.076  -1.081  0.00  0.00    +0.264 C 
ENDROOT
BRANCH   1   6
ATOM      2  C   UNL     1      -0.994   1.513   0.181  0.00  0.00    +0.014 C 
ATOM      3  C   UNL     1      -0.697   0.014   0.119  0.00  0.00    -0.002 C 
ATOM      4  C   UNL     1       0.038  -0.315  -1.189  0.00  0.00    +0.110 C 
ATOM      5  N   UNL     1       0.270  -1.767  -1.209  0.00  0.00    -0.330 N 
ATOM      6  C   UNL     1      -0.735  -2.601  -0.796  0.00  0.00    +0.114 C 
ATOM      7  C   UNL     1      -2.010  -0.773   0.145  0.00  0.00    +0.121 C 
ATOM      8  C   UNL     1       0.170  -0.390   1.313  0.00  0.00    +0.014 C 
ATOM      9  H   UNL     1       1.119  -2.128  -1.509  0.00  0.00    +0.147 HD
ATOM     10  N   UNL     1      -1.838  -2.243  -0.151  0.00  0.00    -0.373 N 
ATOM     11  H   UNL     1      -2.542  -2.934   0.133  0.00  0.00    +0.161 HD
ENDBRANCH   1   6
BRANCH   1  12
ATOM     12  C   UNL     1      -1.611  -4.833  -0.240  0.00  0.00    -0.000 A 
ATOM     13  C   UNL     1      -2.913  -4.983  -0.680  0.00  0.00    +0.008 A 
ATOM     14  C   UNL     1      -3.826  -5.680   0.089  0.00  0.00    +0.000 A 
ATOM     15  C   UNL     1      -3.439  -6.220   1.302  0.00  0.00    +0.000 A 
ATOM     16  C   UNL     1      -2.138  -6.065   1.743  0.00  0.00    +0.000 A 
ATOM     17  C   UNL     1      -1.225  -5.372   0.972  0.00  0.00    +0.008 A 
ENDBRANCH   1  12
BRANCH   1  18
ATOM     18  O   UNL     1      -0.879  -4.317  -2.465  0.00  0.00    -0.477 OA
BRANCH  18  19
ATOM     19  C   UNL     1      -0.343  -5.442  -3.009  0.00  0.00    +0.122 A 
ATOM     20  C   UNL     1       0.332  -6.348  -2.204  0.00  0.00    +0.047 A 
ATOM     21  C   UNL     1       0.872  -7.493  -2.758  0.00  0.00    +0.023 A 
ATOM     22  C   UNL     1       0.749  -7.730  -4.116  0.00  0.00    +0.041 A 
ATOM     23  C   UNL     1       0.081  -6.824  -4.920  0.00  0.00    +0.023 A 
ATOM     24  C   UNL     1      -0.465  -5.681  -4.370  0.00  0.00    +0.047 A 
ATOM     25 CL   UNL     1       1.434  -9.166  -4.810  0.00  0.00    -0.084 Cl
ENDBRANCH  18  19
ENDBRANCH   1  18
TORSDOF 4
