REMARK  Name = ZINC64664363
REMARK  5 active torsions:
REMARK  status: ('A' for Active; 'I' for Inactive)
REMARK    1  A    between atoms: C_1  and  C_2
REMARK    2  A    between atoms: C_5  and  N_8
REMARK    3  A    between atoms: C_9  and  N_25
REMARK    4  A    between atoms: C_10  and  C_13
REMARK    5  A    between atoms: C_15  and  C_18
REMARK                            x       y       z     vdW  Elec       q    Type
REMARK                         _______ _______ _______ _____ _____    ______ ____
ROOT
ATOM      1  N   UNL     1       0.057  -4.173  -0.021  0.00  0.00    -0.198 N 
ATOM      2  C   UNL     1       0.695  -4.984   0.871  0.00  0.00    +0.150 A 
ATOM      3  C   UNL     1       0.435  -6.283   0.469  0.00  0.00    +0.159 A 
ATOM      4  N   UNL     1      -0.335  -6.236  -0.630  0.00  0.00    -0.125 NA
ATOM      5  N   UNL     1      -0.582  -5.013  -0.943  0.00  0.00    -0.058 NA
ENDROOT
BRANCH   1  10
ATOM      6  C   UNL     1      -0.018   1.503   0.010  0.00  0.00    +0.044 C 
ATOM      7  C   UNL     1       0.002  -0.004   0.002  0.00  0.00    -0.050 A 
ATOM      8  C   UNL     1       0.006  -0.688  -1.200  0.00  0.00    +0.005 A 
ATOM      9  C   UNL     1       0.024  -2.068  -1.211  0.00  0.00    +0.028 A 
ATOM     10  C   UNL     1       0.039  -2.771  -0.013  0.00  0.00    +0.069 A 
ATOM     11  C   UNL     1       0.036  -2.082   1.192  0.00  0.00    +0.028 A 
ATOM     12  C   UNL     1       0.023  -0.700   1.196  0.00  0.00    +0.005 A 
ENDBRANCH   1  10
BRANCH   3  13
ATOM     13  C   UNL     1       0.922  -7.508   1.133  0.00  0.00    +0.132 A 
ATOM     14  N   UNL     1       0.721  -8.776   0.805  0.00  0.00    -0.237 NA
ATOM     15  C   UNL     1       1.239  -9.759   1.522  0.00  0.00    +0.079 A 
ATOM     16  C   UNL     1       1.997  -9.462   2.622  0.00  0.00    +0.075 A 
ATOM     17  S   UNL     1       1.946  -7.675   2.588  0.00  0.00    -0.073 S 
BRANCH  15  18
ATOM     18  C   UNL     1       1.000 -11.171   1.137  0.00  0.00    +0.001 A 
ATOM     19  C   UNL     1       1.542 -12.205   1.898  0.00  0.00    +0.013 A 
ATOM     20  C   UNL     1       1.317 -13.517   1.536  0.00  0.00    +0.039 A 
ATOM     21  C   UNL     1       0.554 -13.808   0.418  0.00  0.00    +0.123 A 
ATOM     22  C   UNL     1       0.012 -12.784  -0.342  0.00  0.00    +0.039 A 
ATOM     23  C   UNL     1       0.227 -11.469   0.016  0.00  0.00    +0.013 A 
ATOM     24  F   UNL     1       0.337 -15.095   0.067  0.00  0.00    -0.205 F 
ENDBRANCH  15  18
ENDBRANCH   3  13
BRANCH   2  25
ATOM     25  N   UNL     1       1.453  -4.587   1.962  0.00  0.00    -0.341 N 
ATOM     26  H   UNL     1       1.571  -3.644   2.153  0.00  0.00    +0.144 HD
ATOM     27  H   UNL     1       1.865  -5.253   2.534  0.00  0.00    +0.144 HD
ENDBRANCH   2  25
TORSDOF 4
