REMARK  Name = ZINC13500118
REMARK  10 active torsions:
REMARK  status: ('A' for Active; 'I' for Inactive)
REMARK    1  A    between atoms: C_1  and  C_2
REMARK    2  A    between atoms: C_2  and  C_3
REMARK    3  A    between atoms: C_3  and  C_4
REMARK    4  A    between atoms: C_4  and  C_6
REMARK    5  A    between atoms: C_4  and  N_72
REMARK    6  A    between atoms: N_10  and  C_11
REMARK    7  A    between atoms: C_16  and  C_17
REMARK    8  A    between atoms: C_16  and  N_72
REMARK    9  A    between atoms: C_23  and  C_29
REMARK   10  A    between atoms: C_30  and  N_72
REMARK                            x       y       z     vdW  Elec       q    Type
REMARK                         _______ _______ _______ _____ _____    ______ ____
ROOT
ATOM      1  N   UNL     1       0.739  -2.022   1.448  0.00  0.00    +0.391 N 
ATOM      2  H   UNL     1       1.077  -2.328   0.528  0.00  0.00    -0.080 HD
ENDROOT
BRANCH   1   3
ATOM      3  C   UNL     1       0.795  -0.546   1.514  0.00  0.00    -0.067 C 
ATOM      4  C   UNL     1      -0.015   0.032   0.352  0.00  0.00    -0.015 C 
ATOM      5  C   UNL     1       0.053   1.560   0.394  0.00  0.00    -0.002 C 
ATOM      6  C   UNL     1       1.511   2.009   0.273  0.00  0.00    -0.000 C 
ATOM      7  C   UNL     1       2.321   1.430   1.434  0.00  0.00    -0.002 C 
ATOM      8  C   UNL     1       2.253  -0.098   1.393  0.00  0.00    -0.015 C 
ENDBRANCH   1   3
BRANCH   1   9
ATOM      9  C   UNL     1       1.601  -2.607   2.496  0.00  0.00    +0.003 C 
BRANCH   9  10
ATOM     10  C   UNL     1       1.606  -1.732   3.723  0.00  0.00    +0.138 A 
ATOM     11  N   UNL     1       1.686  -0.424   3.750  0.00  0.00    -0.115 NA
ATOM     12  N   UNL     1       1.658  -0.049   4.983  0.00  0.00    -0.023 NA
ATOM     13  N   UNL     1       1.570  -1.085   5.742  0.00  0.00    -0.044 NA
ATOM     14  N   UNL     1       1.536  -2.141   5.003  0.00  0.00    -0.228 N 
BRANCH  14  15
ATOM     15  C   UNL     1       1.439  -3.527   5.469  0.00  0.00    +0.111 C 
ATOM     16  C   UNL     1       0.167  -3.710   6.322  0.00  0.00    +0.027 C 
ATOM     17  C   UNL     1       0.598  -4.690   7.441  0.00  0.00    +0.002 C 
ATOM     18  C   UNL     1       2.044  -4.234   7.758  0.00  0.00    +0.002 C 
ATOM     19  C   UNL     1       2.632  -3.861   6.381  0.00  0.00    +0.027 C 
ENDBRANCH  14  15
ENDBRANCH   9  10
BRANCH   9  20
ATOM     20  C   UNL     1       3.025  -2.724   1.947  0.00  0.00    -0.008 C 
BRANCH  20  22
ATOM     21  C   UNL     1       4.485  -3.934   0.320  0.00  0.00    +0.004 C 
ATOM     22  C   UNL     1       3.044  -3.723   0.788  0.00  0.00    -0.005 C 
ENDBRANCH  20  22
ENDBRANCH   9  20
ENDBRANCH   1   9
BRANCH   1  23
ATOM     23  C   UNL     1      -0.654  -2.483   1.625  0.00  0.00    -0.036 C 
BRANCH  23  24
ATOM     24  C   UNL     1      -0.701  -3.977   1.436  0.00  0.00    +0.001 A 
ATOM     25  C   UNL     1      -0.719  -4.795   2.518  0.00  0.00    +0.017 A 
ATOM     26  C   UNL     1      -0.764  -6.242   2.301  0.00  0.00    -0.001 A 
ATOM     27  C   UNL     1      -0.785  -7.135   3.377  0.00  0.00    +0.010 A 
ATOM     28  C   UNL     1      -0.827  -8.479   3.141  0.00  0.00    +0.001 A 
ATOM     29  C   UNL     1      -0.851  -8.968   1.841  0.00  0.00    +0.005 A 
ATOM     30  C   UNL     1      -0.832  -8.107   0.766  0.00  0.00    -0.026 A 
ATOM     31  C   UNL     1      -0.788  -6.733   0.982  0.00  0.00    +0.052 A 
ATOM     32  N   UNL     1      -0.769  -5.849  -0.075  0.00  0.00    -0.322 N 
ATOM     33  H   UNL     1      -0.786  -6.189  -0.983  0.00  0.00    +0.169 HD
ATOM     34  C   UNL     1      -0.732  -4.521   0.134  0.00  0.00    +0.251 A 
ATOM     35  O   UNL     1      -0.721  -3.768  -0.824  0.00  0.00    -0.268 OA
ATOM     36  C   UNL     1      -0.857  -8.651  -0.639  0.00  0.00    +0.046 C 
ENDBRANCH  23  24
ENDBRANCH   1  23
TORSDOF 8
