REMARK  Name = ZINC05409187
REMARK  4 active torsions:
REMARK  status: ('A' for Active; 'I' for Inactive)
REMARK    1  A    between atoms: C_3  and  C_8
REMARK    2  A    between atoms: C_11  and  C_22
REMARK    3  A    between atoms: C_17  and  N_21
REMARK    4  A    between atoms: C_18  and  C_19
REMARK                            x       y       z     vdW  Elec       q    Type
REMARK                         _______ _______ _______ _____ _____    ______ ____
ROOT
ATOM      1  C   UNL     1       3.672   2.184  -0.021  0.00  0.00    +0.102 C 
ATOM      2  C   UNL     1       4.490   1.818   1.190  0.00  0.00    +0.055 A 
ATOM      3  C   UNL     1       4.285   2.157   2.532  0.00  0.00    +0.107 A 
ATOM      4  N   UNL     1       5.257   1.611   3.241  0.00  0.00    -0.170 NA
ATOM      5  N   UNL     1       6.103   0.912   2.366  0.00  0.00    -0.246 N 
ATOM      6  H   UNL     1       6.898   0.415   2.616  0.00  0.00    +0.192 HD
ATOM      7  C   UNL     1       5.617   1.052   1.115  0.00  0.00    +0.223 A 
ATOM      8  O   UNL     1       6.091   0.561  -0.057  0.00  0.00    -0.423 OA
ATOM      9  C   UNL     1       5.583   1.068  -1.199  0.00  0.00    +0.200 C 
ATOM     10  C   UNL     1       4.468   1.830  -1.253  0.00  0.00    +0.098 C 
ENDROOT
BRANCH   1  13
ATOM     11  C   UNL     1      -0.017   1.378   0.010  0.00  0.00    +0.002 A 
ATOM     12  C   UNL     1       1.171   2.086   0.002  0.00  0.00    +0.004 A 
ATOM     13  C   UNL     1       2.378   1.412  -0.013  0.00  0.00    -0.033 A 
ATOM     14  C   UNL     1       2.398   0.029  -0.021  0.00  0.00    +0.024 A 
ATOM     15  C   UNL     1       1.210  -0.679  -0.013  0.00  0.00    +0.041 A 
ATOM     16  C   UNL     1       0.002  -0.004   0.002  0.00  0.00    +0.020 A 
ATOM     17 CL   UNL     1       1.234  -2.415  -0.024  0.00  0.00    -0.084 Cl
ENDBRANCH   1  13
BRANCH   3  18
ATOM     18  C   UNL     1       3.177   2.980   3.063  0.00  0.00    +0.040 A 
ATOM     19  C   UNL     1       2.515   2.870   4.256  0.00  0.00    +0.018 A 
ATOM     20  C   UNL     1       1.503   3.762   4.537  0.00  0.00    +0.008 A 
ATOM     21  C   UNL     1       1.195   4.721   3.627  0.00  0.00    +0.046 A 
ATOM     22  S   UNL     1       2.361   4.383   2.318  0.00  0.00    -0.095 S 
ENDBRANCH   3  18
BRANCH   9  23
ATOM     23  N   UNL     1       6.237   0.796  -2.374  0.00  0.00    -0.328 N 
ATOM     24  H   UNL     1       7.041   0.253  -2.368  0.00  0.00    +0.145 HD
ATOM     25  H   UNL     1       5.896   1.147  -3.212  0.00  0.00    +0.145 HD
ENDBRANCH   9  23
BRANCH  10  26
ATOM     26  C   UNL     1       4.025   2.318  -2.524  0.00  0.00    +0.101 C 
ATOM     27  N   UNL     1       3.673   2.706  -3.533  0.00  0.00    -0.191 NA
ENDBRANCH  10  26
TORSDOF 4
