REMARK  Name = ZINC14010842
REMARK  8 active torsions:
REMARK  status: ('A' for Active; 'I' for Inactive)
REMARK    1  A    between atoms: C_1  and  C_2
REMARK    2  A    between atoms: C_2  and  N_3
REMARK    3  A    between atoms: C_4  and  C_27
REMARK    4  A    between atoms: C_6  and  C_9
REMARK    5  A    between atoms: C_7  and  C_8
REMARK    6  A    between atoms: N_16  and  C_19
REMARK    7  A    between atoms: C_23  and  C_26
REMARK    8  A    between atoms: C_24  and  C_25
REMARK                            x       y       z     vdW  Elec       q    Type
REMARK                         _______ _______ _______ _____ _____    ______ ____
ROOT
ATOM      1  C   UNL     1      -1.297  -3.255  -0.776  0.00  0.00    +0.028 C 
ATOM      2  C   UNL     1      -0.745  -4.513  -0.602  0.00  0.00    +0.100 C 
ATOM      3  C   UNL     1       0.531  -4.702   0.112  0.00  0.00    +0.257 C 
ATOM      4  O   UNL     1       1.137  -3.752   0.571  0.00  0.00    -0.270 OA
ATOM      5  N   UNL     1       1.009  -5.957   0.244  0.00  0.00    -0.235 N 
ATOM      6  C   UNL     1       0.351  -7.012  -0.256  0.00  0.00    +0.320 C 
ATOM      7  O   UNL     1       0.835  -8.117  -0.103  0.00  0.00    -0.251 OA
ATOM      8  N   UNL     1      -0.811  -6.915  -0.916  0.00  0.00    -0.190 N 
ATOM      9  C   UNL     1      -1.411  -5.724  -1.117  0.00  0.00    +0.263 C 
ATOM     10  O   UNL     1      -2.469  -5.649  -1.713  0.00  0.00    -0.269 OA
ATOM     11  H   UNL     1       1.847  -6.098   0.711  0.00  0.00    +0.159 HD
ENDROOT
BRANCH   8  12
ATOM     12  C   UNL     1      -1.422  -8.079  -1.401  0.00  0.00    +0.049 A 
ATOM     13  C   UNL     1      -2.319  -8.779  -0.605  0.00  0.00    +0.024 A 
ATOM     14  C   UNL     1      -2.924  -9.922  -1.088  0.00  0.00    +0.002 A 
ATOM     15  C   UNL     1      -2.628 -10.377  -2.360  0.00  0.00    +0.004 A 
ATOM     16  C   UNL     1      -1.732  -9.686  -3.154  0.00  0.00    -0.046 A 
ATOM     17  C   UNL     1      -1.128  -8.539  -2.678  0.00  0.00    -0.026 A 
ATOM     18  C   UNL     1      -0.151  -7.786  -3.544  0.00  0.00    +0.046 C 
ATOM     19  C   UNL     1      -1.413 -10.185  -4.540  0.00  0.00    +0.044 C 
ENDBRANCH   8  12
BRANCH   1  23
ATOM     20  N   UNL     1       0.022  -0.127   0.379  0.00  0.00    -0.348 N 
ATOM     21  C   UNL     1       1.136  -0.621  -0.238  0.00  0.00    +0.016 A 
ATOM     22  C   UNL     1       0.858  -1.829  -0.753  0.00  0.00    +0.030 A 
ATOM     23  C   UNL     1      -0.551  -2.101  -0.434  0.00  0.00    -0.003 A 
ATOM     24  C   UNL     1      -0.999  -0.994   0.271  0.00  0.00    +0.023 A 
ATOM     25  C   UNL     1      -2.389  -0.797   0.820  0.00  0.00    +0.064 C 
ATOM     26  C   UNL     1       2.468   0.079  -0.324  0.00  0.00    +0.063 C 
BRANCH  20  28
ATOM     27  C   UNL     1       0.323   0.997   2.530  0.00  0.00    +0.027 C 
ATOM     28  C   UNL     1      -0.051   1.170   1.057  0.00  0.00    +0.118 C 
ENDBRANCH  20  28
ENDBRANCH   1  23
TORSDOF 3
