REMARK  Name = ZINC23337605
REMARK  8 active torsions:
REMARK  status: ('A' for Active; 'I' for Inactive)
REMARK    1  A    between atoms: C_1  and  N_2
REMARK    2  A    between atoms: N_2  and  C_3
REMARK    3  A    between atoms: N_2  and  C_14
REMARK    4  A    between atoms: C_3  and  C_4
REMARK    5  A    between atoms: C_14  and  C_15
REMARK    6  A    between atoms: N_20  and  C_22
REMARK    7  A    between atoms: C_22  and  C_23
REMARK    8  A    between atoms: C_23  and  C_24
REMARK                            x       y       z     vdW  Elec       q    Type
REMARK                         _______ _______ _______ _____ _____    ______ ____
ROOT
ATOM      1  C   UNL     1       3.109  -3.673  -2.870  0.00  0.00    -0.014 C 
ATOM      2  C   UNL     1       1.846  -3.730  -3.734  0.00  0.00    +0.001 C 
ATOM      3  C   UNL     1       2.247  -3.935  -5.197  0.00  0.00    -0.018 C 
ATOM      4  C   UNL     1       3.073  -5.217  -5.320  0.00  0.00    -0.079 C 
ATOM      5  N   UNL     1       4.270  -5.113  -4.476  0.00  0.00    +0.380 N 
ATOM      6  C   UNL     1       3.909  -4.963  -3.060  0.00  0.00    -0.074 C 
ATOM      7  H   UNL     1       4.817  -4.208  -4.780  0.00  0.00    -0.082 HD
ENDROOT
BRANCH   1   8
ATOM      8  C   UNL     1       2.715  -3.528  -1.398  0.00  0.00    +0.086 C 
BRANCH   8  10
ATOM      9  C   UNL     1       4.557  -2.086  -0.772  0.00  0.00    +0.105 C 
ATOM     10  N   UNL     1       3.926  -3.399  -0.578  0.00  0.00    -0.300 NA
BRANCH  10  11
ATOM     11  C   UNL     1       3.629  -3.635   0.841  0.00  0.00    +0.137 C 
BRANCH  11  12
ATOM     12  C   UNL     1       4.918  -3.738   1.615  0.00  0.00    +0.040 A 
ATOM     13  C   UNL     1       5.527  -2.732   2.275  0.00  0.00    +0.024 A 
ATOM     14  C   UNL     1       6.699  -3.256   2.857  0.00  0.00    +0.020 A 
ATOM     15  C   UNL     1       6.764  -4.563   2.532  0.00  0.00    +0.093 A 
ATOM     16  N   UNL     1       5.672  -4.867   1.768  0.00  0.00    -0.298 N 
ATOM     17  C   UNL     1       5.378  -6.120   1.234  0.00  0.00    +0.177 A 
ATOM     18  N   UNL     1       6.056  -7.246   1.340  0.00  0.00    -0.231 NA
ATOM     19  C   UNL     1       5.633  -8.355   0.767  0.00  0.00    +0.121 A 
ATOM     20  C   UNL     1       4.477  -8.316   0.059  0.00  0.00    +0.068 A 
ATOM     21  S   UNL     1       4.020  -6.601   0.264  0.00  0.00    -0.058 S 
ENDBRANCH  11  12
ENDBRANCH  10  11
ENDBRANCH   8  10
ENDBRANCH   1   8
BRANCH   5  22
ATOM     22  C   UNL     1       5.156  -6.267  -4.674  0.00  0.00    -0.074 C 
BRANCH  22  23
ATOM     23  C   UNL     1       5.713  -6.244  -6.099  0.00  0.00    +0.016 C 
BRANCH  23  24
ATOM     24  C   UNL     1       6.622  -7.428  -6.302  0.00  0.00    -0.049 A 
ATOM     25  C   UNL     1       7.972  -7.318  -6.026  0.00  0.00    +0.006 A 
ATOM     26  C   UNL     1       8.806  -8.405  -6.208  0.00  0.00    +0.038 A 
ATOM     27  C   UNL     1       8.291  -9.601  -6.677  0.00  0.00    +0.123 A 
ATOM     28  C   UNL     1       6.940  -9.709  -6.958  0.00  0.00    +0.038 A 
ATOM     29  C   UNL     1       6.106  -8.623  -6.770  0.00  0.00    +0.006 A 
ATOM     30  F   UNL     1       9.106 -10.663  -6.859  0.00  0.00    -0.205 F 
ENDBRANCH  23  24
ENDBRANCH  22  23
ENDBRANCH   5  22
TORSDOF 7
