REMARK  Name = ZINC41151906
REMARK  6 active torsions:
REMARK  status: ('A' for Active; 'I' for Inactive)
REMARK    1  A    between atoms: C_4  and  C_7
REMARK    2  A    between atoms: C_7  and  S_8
REMARK    3  A    between atoms: S_8  and  N_11
REMARK    4  A    between atoms: N_11  and  C_12
REMARK    5  A    between atoms: C_12  and  C_13
REMARK    6  A    between atoms: C_15  and  C_18
REMARK                            x       y       z     vdW  Elec       q    Type
REMARK                         _______ _______ _______ _____ _____    ______ ____
ROOT
ATOM      1  N   UNL     1       5.696  -1.816   1.514  0.00  0.00    -0.185 NA
ATOM      2  H   UNL     1       5.774  -2.732   1.824  0.00  0.00    +0.148 HD
ENDROOT
BRANCH   1   3
ATOM      3  S   UNL     1       4.257  -1.011   1.666  0.00  0.00    +0.034 S 
ATOM      4  O   UNL     1       4.593   0.216   2.298  0.00  0.00    -0.158 OA
ATOM      5  O   UNL     1       3.387  -1.939   2.300  0.00  0.00    -0.158 OA
BRANCH   3   6
ATOM      6  C   UNL     1       3.711  -0.707  -0.038  0.00  0.00    +0.220 C 
BRANCH   6  10
ATOM      7  C   UNL     1      -0.017   1.378   0.010  0.00  0.00    +0.000 A 
ATOM      8  C   UNL     1       1.171   2.086   0.002  0.00  0.00    +0.000 A 
ATOM      9  C   UNL     1       2.377   1.411  -0.013  0.00  0.00    +0.005 A 
ATOM     10  C   UNL     1       2.396   0.029  -0.020  0.00  0.00    -0.025 A 
ATOM     11  C   UNL     1       1.208  -0.679  -0.012  0.00  0.00    +0.005 A 
ATOM     12  C   UNL     1       0.002  -0.004   0.002  0.00  0.00    +0.000 A 
ENDBRANCH   6  10
ENDBRANCH   3   6
ENDBRANCH   1   3
BRANCH   1  13
ATOM     13  C   UNL     1       6.851  -1.145   0.912  0.00  0.00    +0.204 C 
BRANCH  13  14
ATOM     14  C   UNL     1       8.102  -1.927   1.218  0.00  0.00    +0.243 A 
ATOM     15  N   UNL     1       8.602  -2.881   0.485  0.00  0.00    -0.190 NA
ATOM     16  C   UNL     1       9.723  -3.360   1.054  0.00  0.00    +0.202 A 
ATOM     17  N   UNL     1       9.941  -2.703   2.167  0.00  0.00    -0.056 NA
ATOM     18  O   UNL     1       8.891  -1.756   2.287  0.00  0.00    -0.336 OA
BRANCH  16  19
ATOM     19  C   UNL     1      10.570  -4.452   0.513  0.00  0.00    +0.022 A 
ATOM     20  C   UNL     1      10.230  -5.070  -0.689  0.00  0.00    +0.012 A 
ATOM     21  C   UNL     1      11.022  -6.085  -1.188  0.00  0.00    +0.001 A 
ATOM     22  C   UNL     1      12.150  -6.488  -0.497  0.00  0.00    +0.000 A 
ATOM     23  C   UNL     1      12.492  -5.878   0.696  0.00  0.00    +0.001 A 
ATOM     24  C   UNL     1      11.711  -4.858   1.201  0.00  0.00    +0.012 A 
ENDBRANCH  16  19
ENDBRANCH  13  14
ENDBRANCH   1  13
TORSDOF 6
