REMARK  Name = ZINC04592814
REMARK  3 active torsions:
REMARK  status: ('A' for Active; 'I' for Inactive)
REMARK    1  A    between atoms: C_12  and  C_20
REMARK    2  A    between atoms: C_14  and  C_18
REMARK    3  A    between atoms: C_15  and  N_17
REMARK                            x       y       z     vdW  Elec       q    Type
REMARK                         _______ _______ _______ _____ _____    ______ ____
ROOT
ATOM      1  C   UNL     1      -4.687   8.326  -3.406  0.00  0.00    +0.001 A 
ATOM      2  C   UNL     1      -4.005   8.302  -4.616  0.00  0.00    +0.001 A 
ATOM      3  C   UNL     1      -2.708   7.842  -4.684  0.00  0.00    +0.016 A 
ATOM      4  C   UNL     1      -2.078   7.396  -3.523  0.00  0.00    +0.070 A 
ATOM      5  C   UNL     1      -2.772   7.420  -2.293  0.00  0.00    +0.035 A 
ATOM      6  C   UNL     1      -4.083   7.891  -2.247  0.00  0.00    +0.012 A 
ATOM      7  C   UNL     1      -2.076   6.941  -1.089  0.00  0.00    +0.177 A 
ATOM      8  C   UNL     1      -0.811   6.499  -1.188  0.00  0.00    +0.164 A 
ATOM      9  O   UNL     1      -0.155   6.482  -2.369  0.00  0.00    -0.422 OA
ATOM     10  C   UNL     1      -0.700   6.895  -3.522  0.00  0.00    +0.345 A 
ATOM     11  O   UNL     1      -0.058   6.854  -4.556  0.00  0.00    -0.245 OA
ATOM     12  C   UNL     1      -0.079   6.003   0.036  0.00  0.00    +0.134 C 
ATOM     13  C   UNL     1      -0.760   6.484   1.285  0.00  0.00    +0.101 C 
ATOM     14  C   UNL     1      -2.041   6.931   1.250  0.00  0.00    +0.199 C 
ATOM     15  O   UNL     1      -2.732   6.956   0.098  0.00  0.00    -0.437 OA
ENDROOT
BRANCH  12  16
ATOM     16  C   UNL     1      -0.059   4.497   0.027  0.00  0.00    -0.032 A 
ATOM     17  C   UNL     1       1.148   3.822   0.012  0.00  0.00    +0.006 A 
ATOM     18  C   UNL     1       1.167   2.440   0.004  0.00  0.00    +0.020 A 
ATOM     19  C   UNL     1      -0.021   1.732   0.012  0.00  0.00    +0.041 A 
ATOM     20  C   UNL     1      -1.229   2.407   0.021  0.00  0.00    +0.020 A 
ATOM     21  C   UNL     1      -1.247   3.789   0.035  0.00  0.00    +0.006 A 
ATOM     22 CL   UNL     1       0.002  -0.004   0.002  0.00  0.00    -0.084 Cl
ENDBRANCH  12  16
BRANCH  14  23
ATOM     23  N   UNL     1      -2.639   7.363   2.408  0.00  0.00    -0.328 N 
ATOM     24  H   UNL     1      -3.554   7.683   2.391  0.00  0.00    +0.145 HD
ATOM     25  H   UNL     1      -2.146   7.347   3.243  0.00  0.00    +0.145 HD
ENDBRANCH  14  23
BRANCH  13  26
ATOM     26  C   UNL     1      -0.050   6.470   2.528  0.00  0.00    +0.101 C 
ATOM     27  N   UNL     1       0.514   6.459   3.514  0.00  0.00    -0.191 NA
ENDBRANCH  13  26
TORSDOF 3
