REMARK  Name = ZINC08444225
REMARK  3 active torsions:
REMARK  status: ('A' for Active; 'I' for Inactive)
REMARK    1  A    between atoms: C_1  and  C_2
REMARK    2  A    between atoms: C_10  and  C_13
REMARK    3  A    between atoms: C_18  and  C_23
REMARK                            x       y       z     vdW  Elec       q    Type
REMARK                         _______ _______ _______ _____ _____    ______ ____
ROOT
ATOM      1  C   UNL     1      -6.575   0.203  -0.034  0.00  0.00    +0.143 C 
ATOM      2  C   UNL     1      -5.281   0.949   0.185  0.00  0.00    +0.037 C 
ATOM      3  C   UNL     1      -4.703   1.194   1.373  0.00  0.00    +0.017 C 
ATOM      4  C   UNL     1      -3.406   1.982   1.448  0.00  0.00    +0.059 C 
ATOM      5  C   UNL     1      -2.552   1.694   0.215  0.00  0.00    +0.033 C 
ATOM      6  C   UNL     1      -3.357   2.119  -1.019  0.00  0.00    +0.088 C 
ATOM      7  C   UNL     1      -4.668   1.392  -1.010  0.00  0.00    +0.163 C 
ATOM      8  O   UNL     1      -5.223   1.175  -2.069  0.00  0.00    -0.292 OA
ATOM      9  N   UNL     1      -5.191   0.787   2.572  0.00  0.00    -0.316 N 
ATOM     10  C   UNL     1      -6.514   0.920   2.977  0.00  0.00    +0.052 A 
ATOM     11  C   UNL     1      -6.885   1.724   4.040  0.00  0.00    +0.025 A 
ATOM     12  C   UNL     1      -8.215   1.775   4.420  0.00  0.00    +0.002 A 
ATOM     13  C   UNL     1      -9.163   1.029   3.745  0.00  0.00    +0.002 A 
ATOM     14  C   UNL     1      -8.796   0.238   2.670  0.00  0.00    +0.025 A 
ATOM     15  C   UNL     1      -7.469   0.201   2.274  0.00  0.00    +0.049 A 
ATOM     16  N   UNL     1      -7.069  -0.495   1.134  0.00  0.00    -0.331 N 
ATOM     17  H   UNL     1      -4.570   0.372   3.192  0.00  0.00    +0.152 HD
ATOM     18  H   UNL     1      -7.122  -1.464   1.124  0.00  0.00    +0.147 HD
ENDROOT
BRANCH   1  28
ATOM     19  C   UNL     1     -13.055   2.038  -3.417  0.00  0.00    +0.044 C 
ATOM     20  C   UNL     1     -11.803   2.400  -2.660  0.00  0.00    -0.050 A 
ATOM     21  C   UNL     1     -11.554   3.724  -2.329  0.00  0.00    +0.007 A 
ATOM     22  C   UNL     1     -10.415   4.075  -1.637  0.00  0.00    +0.047 A 
ATOM     23  C   UNL     1      -9.502   3.097  -1.264  0.00  0.00    +0.138 A 
ATOM     24  C   UNL     1      -9.755   1.757  -1.599  0.00  0.00    +0.065 A 
ATOM     25  C   UNL     1     -10.910   1.414  -2.299  0.00  0.00    +0.018 A 
ATOM     26  C   UNL     1      -8.767   0.737  -1.197  0.00  0.00    +0.198 A 
ATOM     27  O   UNL     1      -8.927  -0.442  -1.462  0.00  0.00    -0.287 OA
ATOM     28  C   UNL     1      -7.625   1.187  -0.482  0.00  0.00    +0.059 A 
ATOM     29  C   UNL     1      -7.483   2.497  -0.213  0.00  0.00    +0.205 A 
ATOM     30  O   UNL     1      -8.380   3.416  -0.586  0.00  0.00    -0.462 OA
ENDBRANCH   1  28
BRANCH   5  31
ATOM     31  C   UNL     1      -1.270   2.484   0.285  0.00  0.00    -0.025 A 
ATOM     32  C   UNL     1      -1.311   3.864   0.348  0.00  0.00    +0.005 A 
ATOM     33  C   UNL     1      -0.135   4.588   0.407  0.00  0.00    +0.000 A 
ATOM     34  C   UNL     1       1.082   3.933   0.409  0.00  0.00    +0.001 A 
ATOM     35  C   UNL     1       1.124   2.553   0.352  0.00  0.00    +0.020 A 
ATOM     36  C   UNL     1      -0.052   1.827   0.293  0.00  0.00    +0.044 A 
ATOM     37 CL   UNL     1      -0.001   0.093   0.221  0.00  0.00    -0.083 Cl
ENDBRANCH   5  31
TORSDOF 2
