REMARK  Name = ZINC12563431
REMARK  1 active torsions:
REMARK  status: ('A' for Active; 'I' for Inactive)
REMARK    1  A    between atoms: C_16  and  C_19
REMARK                            x       y       z     vdW  Elec       q    Type
REMARK                         _______ _______ _______ _____ _____    ______ ____
ROOT
ATOM      1  C   UNL     1      -0.342   0.984  -0.069  0.00  0.00    +0.001 A 
ATOM      2  C   UNL     1       0.766   1.815  -0.074  0.00  0.00    +0.002 A 
ATOM      3  C   UNL     1       2.044   1.288  -0.059  0.00  0.00    +0.024 A 
ATOM      4  C   UNL     1       2.223  -0.085  -0.043  0.00  0.00    +0.040 A 
ATOM      5  C   UNL     1       1.095  -0.927  -0.056  0.00  0.00    +0.038 A 
ATOM      6  C   UNL     1      -0.183  -0.389  -0.059  0.00  0.00    +0.013 A 
ATOM      7  C   UNL     1       1.349  -2.381  -0.096  0.00  0.00    +0.145 A 
ATOM      8  N   UNL     1       0.525  -3.380   0.056  0.00  0.00    -0.227 NA
ATOM      9  C   UNL     1       1.207  -4.537  -0.024  0.00  0.00    +0.090 A 
ATOM     10  C   UNL     1       0.794  -5.871   0.086  0.00  0.00    +0.030 A 
ATOM     11  C   UNL     1       1.761  -6.837  -0.040  0.00  0.00    +0.002 A 
ATOM     12  C   UNL     1       3.091  -6.524  -0.265  0.00  0.00    +0.002 A 
ATOM     13  C   UNL     1       3.529  -5.215  -0.380  0.00  0.00    +0.028 A 
ATOM     14  C   UNL     1       2.569  -4.215  -0.259  0.00  0.00    +0.071 A 
ATOM     15  N   UNL     1       2.631  -2.858  -0.321  0.00  0.00    -0.300 N 
ATOM     16  C   UNL     1       3.762  -1.966  -0.592  0.00  0.00    +0.207 C 
ATOM     17  N   UNL     1       3.495  -0.650   0.004  0.00  0.00    -0.320 N 
ATOM     18  H   UNL     1       4.215  -0.167   0.438  0.00  0.00    +0.148 HD
ENDROOT
BRANCH  16  19
ATOM     19  C   UNL     1       3.942  -1.817  -2.081  0.00  0.00    +0.013 A 
ATOM     20  C   UNL     1       2.927  -2.196  -2.940  0.00  0.00    +0.009 A 
ATOM     21  C   UNL     1       3.091  -2.060  -4.306  0.00  0.00    +0.002 A 
ATOM     22  C   UNL     1       4.269  -1.547  -4.814  0.00  0.00    +0.021 A 
ATOM     23  C   UNL     1       5.285  -1.168  -3.956  0.00  0.00    +0.060 A 
ATOM     24  C   UNL     1       5.119  -1.298  -2.587  0.00  0.00    +0.066 A 
ATOM     25 CL   UNL     1       6.391  -0.816  -1.508  0.00  0.00    -0.082 Cl
ATOM     26 CL   UNL     1       6.766  -0.523  -4.593  0.00  0.00    -0.082 Cl
ENDBRANCH  16  19
TORSDOF 1
