REMARK  Name = ZINC14743166
REMARK  11 active torsions:
REMARK  status: ('A' for Active; 'I' for Inactive)
REMARK    1  A    between atoms: C_1  and  C_2
REMARK    2  A    between atoms: C_2  and  C_4
REMARK    3  A    between atoms: C_2  and  N_65
REMARK    4  A    between atoms: C_4  and  O_5
REMARK    5  A    between atoms: N_13  and  C_22
REMARK    6  A    between atoms: N_16  and  C_17
REMARK    7  A    between atoms: C_17  and  C_18
REMARK    8  A    between atoms: C_18  and  C_19
REMARK    9  A    between atoms: C_19  and  O_20
REMARK   10  A    between atoms: O_20  and  C_21
REMARK   11  A    between atoms: C_22  and  C_23
REMARK                            x       y       z     vdW  Elec       q    Type
REMARK                         _______ _______ _______ _____ _____    ______ ____
ROOT
ATOM      1  C   UNL     1       4.539   4.714  -6.080  0.00  0.00    -0.076 C 
ATOM      2  C   UNL     1       3.799   5.021  -4.775  0.00  0.00    +0.017 C 
ATOM      3  C   UNL     1       4.814   5.206  -3.651  0.00  0.00    +0.112 C 
ATOM      4  C   UNL     1       5.816   6.299  -4.011  0.00  0.00    +0.017 C 
ATOM      5  C   UNL     1       6.490   5.950  -5.342  0.00  0.00    -0.076 C 
ATOM      6  C   UNL     1       4.114   5.537  -2.355  0.00  0.00    +0.247 C 
ATOM      7  O   UNL     1       3.415   6.501  -2.123  0.00  0.00    -0.273 OA
ATOM      8  N   UNL     1       4.429   4.534  -1.509  0.00  0.00    -0.220 N 
ATOM      9  C   UNL     1       5.228   3.632  -2.091  0.00  0.00    +0.312 C 
ATOM     10  O   UNL     1       5.651   2.641  -1.528  0.00  0.00    -0.252 OA
ATOM     11  N   UNL     1       5.508   3.943  -3.371  0.00  0.00    -0.271 N 
ATOM     12  N   UNL     1       5.452   5.837  -6.388  0.00  0.00    +0.383 N 
ATOM     13  H   UNL     1       4.910   6.708  -6.415  0.00  0.00    -0.081 HD
ENDROOT
BRANCH  12  15
ATOM     14  C   UNL     1       4.991   5.438  -8.759  0.00  0.00    -0.011 C 
ATOM     15  C   UNL     1       6.085   5.625  -7.706  0.00  0.00    -0.046 C 
BRANCH  15  16
ATOM     16  C   UNL     1       6.923   6.856  -8.055  0.00  0.00    +0.140 C 
BRANCH  16  17
ATOM     17  O   UNL     1       6.072   8.000  -8.152  0.00  0.00    -0.397 OA
ATOM     18  H   UNL     1       6.538   8.819  -8.372  0.00  0.00    +0.209 HD
ENDBRANCH  16  17
ENDBRANCH  15  16
ENDBRANCH  12  15
BRANCH  11  19
ATOM     19  C   UNL     1       6.345   3.177  -4.298  0.00  0.00    +0.112 C 
BRANCH  19  20
ATOM     20  C   UNL     1       5.662   1.847  -4.620  0.00  0.00    +0.047 C 
BRANCH  20  21
ATOM     21  C   UNL     1       6.569   1.015  -5.530  0.00  0.00    +0.161 C 
BRANCH  21  22
ATOM     22  O   UNL     1       5.931  -0.228  -5.831  0.00  0.00    -0.383 OA
ATOM     23  C   UNL     1       6.699  -1.084  -6.679  0.00  0.00    +0.193 C 
ENDBRANCH  21  22
ENDBRANCH  20  21
ENDBRANCH  19  20
ENDBRANCH  11  19
BRANCH   8  24
ATOM     24  C   UNL     1       3.959   4.447  -0.124  0.00  0.00    +0.153 C 
BRANCH  24  25
ATOM     25  C   UNL     1       2.655   3.693  -0.082  0.00  0.00    -0.029 A 
ATOM     26  C   UNL     1       2.668   2.308   0.077  0.00  0.00    +0.006 A 
ATOM     27  C   UNL     1       1.508   1.597   0.119  0.00  0.00    +0.009 A 
ATOM     28  C   UNL     1       0.278   2.266   0.001  0.00  0.00    -0.018 A 
ATOM     29  C   UNL     1      -0.940   1.566   0.039  0.00  0.00    +0.008 A 
ATOM     30  C   UNL     1      -2.112   2.246  -0.085  0.00  0.00    +0.001 A 
ATOM     31  C   UNL     1      -2.125   3.632  -0.238  0.00  0.00    +0.001 A 
ATOM     32  C   UNL     1      -0.965   4.343  -0.280  0.00  0.00    +0.008 A 
ATOM     33  C   UNL     1       0.265   3.674  -0.161  0.00  0.00    -0.018 A 
ATOM     34  C   UNL     1       1.483   4.374  -0.200  0.00  0.00    +0.013 A 
ENDBRANCH  24  25
ENDBRANCH   8  24
TORSDOF 9
