REMARK  Name = ZINC32124942
REMARK  7 active torsions:
REMARK  status: ('A' for Active; 'I' for Inactive)
REMARK    1  A    between atoms: C_4  and  C_7
REMARK    2  A    between atoms: C_7  and  N_8
REMARK    3  A    between atoms: C_9  and  C_11
REMARK    4  A    between atoms: C_15  and  N_16
REMARK    5  A    between atoms: C_17  and  C_19
REMARK    6  A    between atoms: C_19  and  N_20
REMARK    7  A    between atoms: C_22  and  C_29
REMARK                            x       y       z     vdW  Elec       q    Type
REMARK                         _______ _______ _______ _____ _____    ______ ____
ROOT
ATOM      1  C   UNL     1       1.325   2.063   0.001  0.00  0.00    +0.069 A 
ATOM      2  C   UNL     1       2.288   0.974  -0.014  0.00  0.00    -0.023 A 
ATOM      3  C   UNL     1       1.753  -0.266  -0.016  0.00  0.00    -0.004 A 
ATOM      4  S   UNL     1       0.002  -0.004   0.002  0.00  0.00    -0.077 S 
ATOM      5  C   UNL     1      -0.021   1.728   0.011  0.00  0.00    +0.084 A 
ATOM      6  C   UNL     1       2.492  -1.568  -0.031  0.00  0.00    +0.043 C 
ATOM      7  C   UNL     1       3.951  -1.292  -0.422  0.00  0.00    +0.005 C 
ATOM      8  C   UNL     1       4.473  -0.121   0.416  0.00  0.00    +0.005 C 
ATOM      9  C   UNL     1       3.798   1.178  -0.027  0.00  0.00    +0.037 C 
ENDROOT
BRANCH   1  11
ATOM     10  N   UNL     1       1.950   4.112  -1.163  0.00  0.00    -0.307 N 
ATOM     11  C   UNL     1       1.761   3.463   0.003  0.00  0.00    +0.247 C 
ATOM     12  O   UNL     1       1.952   4.039   1.058  0.00  0.00    -0.270 OA
ATOM     13  H   UNL     1       1.777   3.592  -2.116  0.00  0.00    +0.149 HD
BRANCH  10  14
ATOM     14  C   UNL     1       2.385   5.511  -1.160  0.00  0.00    +0.139 C 
BRANCH  14  18
ATOM     15  C   UNL     1       2.769   6.891  -5.184  0.00  0.00    +0.000 A 
ATOM     16  C   UNL     1       1.564   7.024  -4.520  0.00  0.00    +0.000 A 
ATOM     17  C   UNL     1       1.440   6.577  -3.218  0.00  0.00    +0.005 A 
ATOM     18  C   UNL     1       2.521   5.998  -2.580  0.00  0.00    -0.030 A 
ATOM     19  C   UNL     1       3.727   5.870  -3.242  0.00  0.00    +0.005 A 
ATOM     20  C   UNL     1       3.850   6.312  -4.546  0.00  0.00    +0.000 A 
ENDBRANCH  14  18
ENDBRANCH  10  14
ENDBRANCH   1  11
BRANCH   5  21
ATOM     21  N   UNL     1      -1.119   2.575   0.022  0.00  0.00    -0.278 N 
ATOM     22  C   UNL     1      -2.366   2.062   0.026  0.00  0.00    +0.237 C 
ATOM     23  O   UNL     1      -2.527   0.860   0.020  0.00  0.00    -0.273 OA
ATOM     24  H   UNL     1      -0.973   3.665   0.026  0.00  0.00    +0.155 HD
BRANCH  22  25
ATOM     25  C   UNL     1      -3.559   2.983   0.036  0.00  0.00    +0.217 C 
BRANCH  25  26
ATOM     26  N   UNL     1      -4.789   2.187   0.039  0.00  0.00    -0.337 N 
ATOM     27  C   UNL     1      -5.490   1.858  -1.063  0.00  0.00    +0.098 A 
ATOM     28  C   UNL     1      -6.590   1.107  -0.705  0.00  0.00    +0.039 A 
ATOM     29  C   UNL     1      -6.537   0.976   0.764  0.00  0.00    +0.010 A 
ATOM     30  C   UNL     1      -5.386   1.667   1.170  0.00  0.00    +0.050 A 
ATOM     31  C   UNL     1      -5.061   1.717   2.522  0.00  0.00    +0.026 A 
ATOM     32  C   UNL     1      -5.867   1.087   3.446  0.00  0.00    +0.002 A 
ATOM     33  C   UNL     1      -7.002   0.400   3.042  0.00  0.00    +0.001 A 
ATOM     34  C   UNL     1      -7.345   0.347   1.708  0.00  0.00    +0.011 A 
BRANCH  28  35
ATOM     35  C   UNL     1      -7.572   0.569  -1.573  0.00  0.00    +0.260 C 
ATOM     36  O   UNL     1      -7.492   0.755  -2.770  0.00  0.00    -0.296 OA
ENDBRANCH  28  35
ENDBRANCH  25  26
ENDBRANCH  22  25
ENDBRANCH   5  21
TORSDOF 7
