REMARK  Name = ZINC36019093
REMARK  13 active torsions:
REMARK  status: ('A' for Active; 'I' for Inactive)
REMARK    1  A    between atoms: C_1  and  C_2
REMARK    2  A    between atoms: C_2  and  O_3
REMARK    3  A    between atoms: O_3  and  C_4
REMARK    4  A    between atoms: C_4  and  C_6
REMARK    5  A    between atoms: C_7  and  C_24
REMARK    6  A    between atoms: N_8  and  C_21
REMARK    7  A    between atoms: C_12  and  C_14
REMARK    8  A    between atoms: C_21  and  C_22
REMARK    9  A    between atoms: C_24  and  N_25
REMARK   10  A    between atoms: C_29  and  C_32
REMARK   11  A    between atoms: N_35  and  C_36
REMARK   12  A    between atoms: C_36  and  C_37
REMARK   13  A    between atoms: C_36  and  C_38
REMARK                            x       y       z     vdW  Elec       q    Type
REMARK                         _______ _______ _______ _____ _____    ______ ____
ROOT
ATOM      1  C   UNL     1       2.354  -2.954  -2.279  0.00  0.00    +0.080 C 
ATOM      2  C   UNL     1       2.356  -4.294  -2.448  0.00  0.00    +0.041 C 
ATOM      3  N   UNL     1       2.952  -4.866  -3.536  0.00  0.00    -0.254 N 
ATOM      4  C   UNL     1       3.567  -4.168  -4.498  0.00  0.00    +0.307 C 
ATOM      5  O   UNL     1       4.069  -4.766  -5.430  0.00  0.00    -0.252 OA
ATOM      6  N   UNL     1       3.647  -2.822  -4.469  0.00  0.00    -0.288 N 
ATOM      7  C   UNL     1       3.029  -2.108  -3.339  0.00  0.00    +0.144 C 
ATOM      8  H   UNL     1       4.098  -2.336  -5.177  0.00  0.00    +0.151 HD
ENDROOT
BRANCH   7   9
ATOM      9  C   UNL     1       2.005  -1.151  -3.892  0.00  0.00    -0.022 A 
ATOM     10  C   UNL     1       1.092  -1.586  -4.834  0.00  0.00    +0.007 A 
ATOM     11  C   UNL     1       0.152  -0.709  -5.342  0.00  0.00    +0.020 A 
ATOM     12  C   UNL     1       0.125   0.604  -4.906  0.00  0.00    +0.041 A 
ATOM     13  C   UNL     1       1.039   1.038  -3.963  0.00  0.00    +0.020 A 
ATOM     14  C   UNL     1       1.975   0.159  -3.452  0.00  0.00    +0.007 A 
ATOM     15 CL   UNL     1      -1.055   1.707  -5.543  0.00  0.00    -0.084 Cl
ENDBRANCH   7   9
BRANCH   1  16
ATOM     16  C   UNL     1       1.737  -2.361  -1.153  0.00  0.00    +0.339 C 
ATOM     17  O   UNL     1       0.655  -1.815  -1.268  0.00  0.00    -0.245 OA
BRANCH  16  18
ATOM     18  O   UNL     1       2.348  -2.400   0.050  0.00  0.00    -0.462 OA
BRANCH  18  20
ATOM     19  C   UNL     1       2.507  -1.924   2.414  0.00  0.00    +0.048 C 
ATOM     20  C   UNL     1       1.667  -1.780   1.143  0.00  0.00    +0.229 C 
ENDBRANCH  18  20
ENDBRANCH  16  18
ENDBRANCH   1  16
BRANCH   3  21
ATOM     21  C   UNL     1       2.917  -6.326  -3.656  0.00  0.00    +0.141 C 
BRANCH  21  22
ATOM     22  C   UNL     1       1.681  -6.738  -4.414  0.00  0.00    -0.015 C 
ATOM     23  C   UNL     1       1.788  -7.487  -5.483  0.00  0.00    +0.005 C 
ENDBRANCH  21  22
ENDBRANCH   3  21
BRANCH   2  24
ATOM     24  C   UNL     1       1.691  -5.173  -1.420  0.00  0.00    +0.136 C 
BRANCH  24  25
ATOM     25  N   UNL     1       0.517  -5.823  -2.017  0.00  0.00    -0.294 NA
ATOM     26  C   UNL     1      -0.513  -4.835  -2.362  0.00  0.00    +0.104 C 
ATOM     27  C   UNL     1      -1.637  -5.525  -3.143  0.00  0.00    +0.125 C 
ATOM     28  N   UNL     1      -2.115  -6.673  -2.358  0.00  0.00    -0.280 N 
ATOM     29  C   UNL     1      -1.122  -7.636  -1.858  0.00  0.00    +0.088 C 
ATOM     30  C   UNL     1      -0.018  -6.863  -1.128  0.00  0.00    +0.107 C 
ATOM     31  C   UNL     1      -1.794  -8.614  -0.893  0.00  0.00    +0.029 C 
ATOM     32  C   UNL     1      -3.428  -6.838  -2.103  0.00  0.00    +0.303 C 
ATOM     33  O   UNL     1      -3.797  -7.741  -1.377  0.00  0.00    -0.253 OA
ATOM     34  N   UNL     1      -4.332  -6.003  -2.653  0.00  0.00    -0.297 N 
ATOM     35  H   UNL     1      -4.045  -5.331  -3.291  0.00  0.00    +0.150 HD
BRANCH  34  36
ATOM     36  C   UNL     1      -5.746  -6.111  -2.287  0.00  0.00    +0.068 C 
ATOM     37  C   UNL     1      -6.434  -4.763  -2.509  0.00  0.00    +0.027 C 
ATOM     38  C   UNL     1      -6.418  -7.176  -3.158  0.00  0.00    +0.027 C 
ENDBRANCH  34  36
ENDBRANCH  24  25
ENDBRANCH   2  24
TORSDOF 9
