REMARK  Name = ZINC04649514
REMARK  4 active torsions:
REMARK  status: ('A' for Active; 'I' for Inactive)
REMARK    1  A    between atoms: C_1  and  C_2
REMARK    2  A    between atoms: C_2  and  N_3
REMARK    3  A    between atoms: C_4  and  C_6
REMARK    4  A    between atoms: C_9  and  C_11
REMARK                            x       y       z     vdW  Elec       q    Type
REMARK                         _______ _______ _______ _____ _____    ______ ____
ROOT
ATOM      1  C   UNL     1      -2.977  -2.347   0.018  0.00  0.00    +0.189 A 
ATOM      2  C   UNL     1      -4.112  -1.588   0.027  0.00  0.00    +0.055 A 
ATOM      3  C   UNL     1      -5.194  -2.482   0.034  0.00  0.00    +0.046 A 
ATOM      4  C   UNL     1      -4.679  -3.731   0.029  0.00  0.00    +0.112 A 
ATOM      5  O   UNL     1      -3.342  -3.646   0.014  0.00  0.00    -0.455 OA
ENDROOT
BRANCH   4   6
ATOM      6  C   UNL     1      -5.477  -5.009   0.035  0.00  0.00    +0.029 C 
ATOM      7  C   UNL     1      -6.369  -5.059  -1.208  0.00  0.00    +0.018 C 
ATOM      8  C   UNL     1      -7.179  -6.357  -1.202  0.00  0.00    -0.010 C 
ATOM      9  C   UNL     1      -6.225  -7.554  -1.210  0.00  0.00    +0.007 C 
ATOM     10  C   UNL     1      -5.333  -7.504   0.032  0.00  0.00    -0.010 C 
ATOM     11  C   UNL     1      -4.523  -6.206   0.026  0.00  0.00    +0.018 C 
ATOM     12  C   UNL     1      -6.205  -7.555   1.288  0.00  0.00    +0.007 C 
ATOM     13  C   UNL     1      -7.159  -6.359   1.296  0.00  0.00    -0.010 C 
ATOM     14  C   UNL     1      -8.051  -6.409   0.054  0.00  0.00    +0.007 C 
ATOM     15  C   UNL     1      -6.349  -5.061   1.291  0.00  0.00    +0.018 C 
ENDBRANCH   4   6
BRANCH   1  17
ATOM     16  N   UNL     1      -1.372  -0.511   0.012  0.00  0.00    -0.309 N 
ATOM     17  C   UNL     1      -1.601  -1.839   0.007  0.00  0.00    +0.279 C 
ATOM     18  O   UNL     1      -0.665  -2.618  -0.006  0.00  0.00    -0.267 OA
ATOM     19  H   UNL     1      -2.118   0.109   0.023  0.00  0.00    +0.149 HD
BRANCH  16  21
ATOM     20  C   UNL     1      -0.019   1.526   0.010  0.00  0.00    +0.024 C 
ATOM     21  C   UNL     1       0.002  -0.004   0.002  0.00  0.00    +0.101 C 
ENDBRANCH  16  21
ENDBRANCH   1  17
TORSDOF 3
