REMARK  Name = ZINC02614072
REMARK  10 active torsions:
REMARK  status: ('A' for Active; 'I' for Inactive)
REMARK    1  A    between atoms: C_1  and  C_2
REMARK    2  A    between atoms: C_3  and  C_27
REMARK    3  A    between atoms: C_8  and  C_10
REMARK    4  A    between atoms: C_10  and  S_11
REMARK    5  A    between atoms: S_11  and  C_12
REMARK    6  A    between atoms: C_27  and  O_29
REMARK    7  A    between atoms: O_29  and  C_30
REMARK    8  A    between atoms: C_30  and  C_31
REMARK    9  A    between atoms: C_31  and  C_32
REMARK   10  A    between atoms: C_31  and  C_33
REMARK                            x       y       z     vdW  Elec       q    Type
REMARK                         _______ _______ _______ _____ _____    ______ ____
ROOT
ATOM      1  C   UNL     1       4.755  13.547   0.031  0.00  0.00    +0.054 C 
ATOM      2  C   UNL     1       4.608  12.047   0.024  0.00  0.00    +0.022 A 
ATOM      3  C   UNL     1       5.580  11.081   0.009  0.00  0.00    +0.160 A 
ATOM      4  N   UNL     1       5.215   9.797   0.011  0.00  0.00    -0.218 NA
ATOM      5  C   UNL     1       3.938   9.479   0.016  0.00  0.00    +0.165 A 
ATOM      6  S   UNL     1       3.161  11.087   0.033  0.00  0.00    -0.056 S 
ATOM      7  N   UNL     1       3.348   8.222   0.015  0.00  0.00    -0.264 N 
ATOM      8  C   UNL     1       4.118   7.116   0.001  0.00  0.00    +0.229 C 
ATOM      9  O   UNL     1       5.326   7.219  -0.011  0.00  0.00    -0.275 OA
ATOM     10  H   UNL     1       2.381   8.139   0.024  0.00  0.00    +0.157 HD
ENDROOT
BRANCH   3  11
ATOM     11  C   UNL     1       7.003  11.454  -0.003  0.00  0.00    +0.359 C 
ATOM     12  O   UNL     1       7.324  12.626   0.001  0.00  0.00    -0.243 OA
BRANCH  11  13
ATOM     13  O   UNL     1       7.950  10.495  -0.018  0.00  0.00    -0.460 OA
BRANCH  13  14
ATOM     14  C   UNL     1       9.334  10.936  -0.029  0.00  0.00    +0.235 C 
BRANCH  14  15
ATOM     15  C   UNL     1      10.257   9.716  -0.045  0.00  0.00    +0.020 C 
ATOM     16  C   UNL     1      11.710  10.178  -0.183  0.00  0.00    +0.010 C 
ATOM     17  C   UNL     1      10.092   8.934   1.259  0.00  0.00    +0.010 C 
ENDBRANCH  14  15
ENDBRANCH  13  14
ENDBRANCH  11  13
ENDBRANCH   3  11
BRANCH   8  18
ATOM     18  C   UNL     1       3.478   5.752  -0.000  0.00  0.00    +0.173 C 
BRANCH  18  19
ATOM     19  S   UNL     1       4.766   4.481  -0.020  0.00  0.00    -0.078 S 
BRANCH  19  20
ATOM     20  C   UNL     1       3.766   3.030  -0.018  0.00  0.00    +0.170 A 
ATOM     21  N   UNL     1       4.378   1.814  -0.031  0.00  0.00    -0.301 N 
ATOM     22  H   UNL     1       5.348   1.784  -0.041  0.00  0.00    +0.171 HD
ATOM     23  C   UNL     1       3.696   0.645  -0.030  0.00  0.00    +0.261 A 
ATOM     24  O   UNL     1       4.262  -0.435  -0.041  0.00  0.00    -0.267 OA
ATOM     25  C   UNL     1       2.267   0.755  -0.015  0.00  0.00    +0.075 A 
ATOM     26  C   UNL     1       1.312  -0.341  -0.012  0.00  0.00    -0.023 A 
ATOM     27  C   UNL     1       0.002  -0.004   0.002  0.00  0.00    -0.004 A 
ATOM     28  S   UNL     1      -0.022   1.771   0.012  0.00  0.00    -0.073 S 
ATOM     29  C   UNL     1       1.719   2.058  -0.003  0.00  0.00    +0.117 A 
ATOM     30  N   UNL     1       2.447   3.168  -0.005  0.00  0.00    -0.216 NA
ATOM     31  C   UNL     1      -1.173  -0.932   0.007  0.00  0.00    +0.043 C 
ATOM     32  C   UNL     1      -0.687  -2.336  -0.379  0.00  0.00    +0.005 C 
ATOM     33  C   UNL     1       0.560  -2.666   0.446  0.00  0.00    +0.005 C 
ATOM     34  C   UNL     1       1.735  -1.808  -0.023  0.00  0.00    +0.037 C 
ENDBRANCH  19  20
ENDBRANCH  18  19
ENDBRANCH   8  18
TORSDOF 7
