REMARK  Name = ZINC01247362
REMARK  11 active torsions:
REMARK  status: ('A' for Active; 'I' for Inactive)
REMARK    1  A    between atoms: C_1  and  C_2
REMARK    2  A    between atoms: C_3  and  C_23
REMARK    3  A    between atoms: N_11  and  C_14
REMARK    4  A    between atoms: C_14  and  C_15
REMARK    5  A    between atoms: C_17  and  C_21
REMARK    6  A    between atoms: C_18  and  N_20
REMARK    7  A    between atoms: C_23  and  O_25
REMARK    8  A    between atoms: O_25  and  C_26
REMARK    9  A    between atoms: C_26  and  C_27
REMARK   10  A    between atoms: C_26  and  C_28
REMARK   11  A    between atoms: C_26  and  C_29
REMARK                            x       y       z     vdW  Elec       q    Type
REMARK                         _______ _______ _______ _____ _____    ______ ____
ROOT
ATOM      1  C   UNL     1       4.957   3.307   2.503  0.00  0.00    +0.087 C 
ATOM      2  C   UNL     1       4.240   3.503   1.192  0.00  0.00    +0.116 C 
ATOM      3  C   UNL     1       2.965   3.919   1.206  0.00  0.00    +0.099 C 
ATOM      4  C   UNL     1       2.212   4.130  -0.075  0.00  0.00    +0.148 C 
ATOM      5  C   UNL     1       1.202   3.029  -0.281  0.00  0.00    -0.001 A 
ATOM      6  C   UNL     1       1.316   1.665  -0.426  0.00  0.00    +0.007 A 
ATOM      7  C   UNL     1       0.181   0.892  -0.606  0.00  0.00    +0.000 A 
ATOM      8  C   UNL     1      -1.062   1.496  -0.645  0.00  0.00    +0.002 A 
ATOM      9  C   UNL     1      -1.180   2.862  -0.495  0.00  0.00    +0.024 A 
ATOM     10  C   UNL     1      -0.043   3.646  -0.314  0.00  0.00    +0.041 A 
ATOM     11  N   UNL     1       0.098   5.025  -0.146  0.00  0.00    -0.266 N 
ATOM     12  C   UNL     1       1.383   5.391   0.002  0.00  0.00    +0.241 C 
ATOM     13  O   UNL     1       1.799   6.519   0.165  0.00  0.00    -0.274 OA
ATOM     14  C   UNL     1       3.160   4.198  -1.237  0.00  0.00    +0.110 C 
ATOM     15  C   UNL     1       4.438   3.761  -1.107  0.00  0.00    +0.199 C 
ATOM     16  O   UNL     1       4.897   3.254   0.051  0.00  0.00    -0.445 OA
ENDROOT
BRANCH  15  17
ATOM     17  N   UNL     1       5.285   3.839  -2.185  0.00  0.00    -0.328 N 
ATOM     18  H   UNL     1       6.201   3.530  -2.106  0.00  0.00    +0.145 HD
ATOM     19  H   UNL     1       4.966   4.203  -3.026  0.00  0.00    +0.145 HD
ENDBRANCH  15  17
BRANCH  14  20
ATOM     20  C   UNL     1       2.713   4.726  -2.491  0.00  0.00    +0.102 C 
ATOM     21  N   UNL     1       2.359   5.146  -3.485  0.00  0.00    -0.191 NA
ENDBRANCH  14  20
BRANCH   3  22
ATOM     22  C   UNL     1       2.322   4.162   2.445  0.00  0.00    +0.341 C 
ATOM     23  O   UNL     1       1.581   3.323   2.921  0.00  0.00    -0.245 OA
BRANCH  22  24
ATOM     24  O   UNL     1       2.531   5.325   3.096  0.00  0.00    -0.456 OA
BRANCH  24  25
ATOM     25  C   UNL     1       1.850   5.503   4.340  0.00  0.00    +0.106 C 
ATOM     26  C   UNL     1       2.274   4.404   5.316  0.00  0.00    +0.055 C 
ATOM     27  C   UNL     1       2.208   6.871   4.926  0.00  0.00    +0.055 C 
ATOM     28  C   UNL     1       0.340   5.427   4.110  0.00  0.00    +0.055 C 
ENDBRANCH  24  25
ENDBRANCH  22  24
ENDBRANCH   3  22
BRANCH  11  29
ATOM     29  C   UNL     1      -1.026   5.965  -0.132  0.00  0.00    +0.140 C 
BRANCH  29  30
ATOM     30  C   UNL     1      -1.295   6.446  -1.535  0.00  0.00    -0.015 C 
ATOM     31  C   UNL     1      -2.491   6.320  -2.053  0.00  0.00    +0.005 C 
ENDBRANCH  29  30
ENDBRANCH  11  29
TORSDOF 7
