REMARK  Name = ZINC35730257
REMARK  10 active torsions:
REMARK  status: ('A' for Active; 'I' for Inactive)
REMARK    1  A    between atoms: C_1  and  C_2
REMARK    2  A    between atoms: C_2  and  C_3
REMARK    3  A    between atoms: C_3  and  C_5
REMARK    4  A    between atoms: C_3  and  N_6
REMARK    5  A    between atoms: N_6  and  C_7
REMARK    6  A    between atoms: C_7  and  C_8
REMARK    7  A    between atoms: N_12  and  C_13
REMARK    8  A    between atoms: C_13  and  C_14
REMARK    9  A    between atoms: C_20  and  C_22
REMARK   10  A    between atoms: C_25  and  C_27
REMARK                            x       y       z     vdW  Elec       q    Type
REMARK                         _______ _______ _______ _____ _____    ______ ____
ROOT
ATOM      1  N   UNL     1      -0.364  -0.965  -3.006  0.00  0.00    -0.293 N 
ATOM      2  C   UNL     1      -0.974  -1.957  -3.683  0.00  0.00    +0.220 C 
ATOM      3  O   UNL     1      -1.056  -1.904  -4.892  0.00  0.00    -0.275 OA
ENDROOT
BRANCH   2   4
ATOM      4  C   UNL     1      -1.555  -3.131  -2.939  0.00  0.00    +0.083 C 
ATOM      5  C   UNL     1      -2.961  -2.973  -2.356  0.00  0.00    +0.022 C 
ATOM      6  C   UNL     1      -2.735  -3.862  -3.582  0.00  0.00    +0.032 C 
BRANCH   6   7
ATOM      7  C   UNL     1      -3.228  -3.352  -4.912  0.00  0.00    -0.044 A 
ATOM      8  C   UNL     1      -3.689  -2.053  -5.026  0.00  0.00    +0.004 A 
ATOM      9  C   UNL     1      -4.142  -1.585  -6.246  0.00  0.00    +0.000 A 
ATOM     10  C   UNL     1      -4.133  -2.416  -7.351  0.00  0.00    +0.000 A 
ATOM     11  C   UNL     1      -3.671  -3.713  -7.237  0.00  0.00    +0.000 A 
ATOM     12  C   UNL     1      -3.215  -4.180  -6.018  0.00  0.00    +0.004 A 
ENDBRANCH   6   7
ENDBRANCH   2   4
BRANCH   1  13
ATOM     13  C   UNL     1      -0.161  -1.082  -1.560  0.00  0.00    +0.073 C 
ATOM     14  C   UNL     1      -0.743   0.150  -0.862  0.00  0.00    +0.028 C 
BRANCH  13  16
ATOM     15  C   UNL     1       1.876  -2.511  -1.783  0.00  0.00    +0.005 C 
ATOM     16  C   UNL     1       1.336  -1.178  -1.260  0.00  0.00    +0.019 C 
ENDBRANCH  13  16
ENDBRANCH   1  13
BRANCH   1  17
ATOM     17  C   UNL     1       0.098   0.231  -3.716  0.00  0.00    +0.161 C 
BRANCH  17  18
ATOM     18  C   UNL     1       1.454  -0.034  -4.318  0.00  0.00    +0.036 A 
ATOM     19  C   UNL     1       1.945  -1.243  -4.658  0.00  0.00    +0.024 A 
ATOM     20  C   UNL     1       3.237  -1.041  -5.182  0.00  0.00    +0.019 A 
ATOM     21  C   UNL     1       3.486   0.284  -5.142  0.00  0.00    +0.086 A 
ATOM     22  N   UNL     1       2.393   0.907  -4.618  0.00  0.00    -0.345 N 
BRANCH  22  23
ATOM     23  C   UNL     1       2.252   2.351  -4.408  0.00  0.00    +0.156 C 
BRANCH  23  24
ATOM     24  C   UNL     1       2.702   2.702  -3.013  0.00  0.00    -0.028 A 
ATOM     25  C   UNL     1       1.770   2.857  -2.005  0.00  0.00    +0.005 A 
ATOM     26  C   UNL     1       2.182   3.179  -0.725  0.00  0.00    +0.000 A 
ATOM     27  C   UNL     1       3.528   3.345  -0.454  0.00  0.00    +0.000 A 
ATOM     28  C   UNL     1       4.460   3.189  -1.462  0.00  0.00    +0.000 A 
ATOM     29  C   UNL     1       4.048   2.862  -2.741  0.00  0.00    +0.005 A 
ENDBRANCH  23  24
ENDBRANCH  22  23
ENDBRANCH  17  18
ENDBRANCH   1  17
TORSDOF 8
