REMARK  Name = ZINC10908693
REMARK  7 active torsions:
REMARK  status: ('A' for Active; 'I' for Inactive)
REMARK    1  A    between atoms: C_4  and  N_7
REMARK    2  A    between atoms: C_9  and  C_19
REMARK    3  A    between atoms: C_10  and  C_12
REMARK    4  A    between atoms: C_19  and  N_20
REMARK    5  A    between atoms: C_21  and  C_23
REMARK    6  A    between atoms: C_23  and  C_24
REMARK    7  A    between atoms: C_24  and  N_25
REMARK                            x       y       z     vdW  Elec       q    Type
REMARK                         _______ _______ _______ _____ _____    ______ ____
ROOT
ATOM      1  C   UNL     1       8.247   6.589  -2.653  0.00  0.00    +0.143 C 
ENDROOT
BRANCH   1   4
ATOM      2  N   UNL     1       9.667   6.769  -6.015  0.00  0.00    -0.239 N 
ATOM      3  C   UNL     1       9.609   6.219  -4.774  0.00  0.00    +0.120 A 
ATOM      4  C   UNL     1       8.653   6.871  -4.076  0.00  0.00    +0.015 A 
ATOM      5  C   UNL     1       8.109   7.865  -4.913  0.00  0.00    +0.098 A 
ATOM      6  N   UNL     1       8.721   7.801  -6.077  0.00  0.00    -0.166 NA
BRANCH   5   7
ATOM      7  C   UNL     1       7.033   8.820  -4.546  0.00  0.00    +0.003 A 
ATOM      8  C   UNL     1       6.001   8.418  -3.701  0.00  0.00    +0.013 A 
ATOM      9  C   UNL     1       5.005   9.309  -3.359  0.00  0.00    +0.039 A 
ATOM     10  C   UNL     1       5.025  10.600  -3.863  0.00  0.00    +0.123 A 
ATOM     11  C   UNL     1       6.047  11.002  -4.707  0.00  0.00    +0.039 A 
ATOM     12  C   UNL     1       7.050  10.118  -5.050  0.00  0.00    +0.013 A 
ATOM     13  F   UNL     1       4.045  11.468  -3.529  0.00  0.00    -0.205 F 
ENDBRANCH   5   7
BRANCH   2  17
ATOM     14  C   UNL     1      12.226   5.606  -9.093  0.00  0.00    +0.000 A 
ATOM     15  C   UNL     1      11.335   6.645  -9.291  0.00  0.00    +0.002 A 
ATOM     16  C   UNL     1      10.486   7.033  -8.274  0.00  0.00    +0.028 A 
ATOM     17  C   UNL     1      10.527   6.378  -7.050  0.00  0.00    +0.065 A 
ATOM     18  C   UNL     1      11.426   5.338  -6.852  0.00  0.00    +0.028 A 
ATOM     19  C   UNL     1      12.269   4.952  -7.875  0.00  0.00    +0.002 A 
ENDBRANCH   2  17
ENDBRANCH   1   4
BRANCH   1  20
ATOM     20  N   UNL     1       7.019   5.791  -2.645  0.00  0.00    -0.311 N 
ATOM     21  C   UNL     1       6.466   5.417  -1.474  0.00  0.00    +0.215 C 
ATOM     22  O   UNL     1       6.985   5.741  -0.427  0.00  0.00    -0.276 OA
ATOM     23  H   UNL     1       6.604   5.531  -3.482  0.00  0.00    +0.149 HD
BRANCH  21  24
ATOM     24  C   UNL     1       5.202   4.595  -1.466  0.00  0.00    +0.117 C 
BRANCH  24  25
ATOM     25  C   UNL     1       4.790   4.309  -0.021  0.00  0.00    +0.136 C 
BRANCH  25  26
ATOM     26  N   UNL     1       3.562   3.510  -0.013  0.00  0.00    -0.288 N 
ATOM     27  C   UNL     1       3.648   2.162  -0.022  0.00  0.00    +0.262 A 
ATOM     28  O   UNL     1       4.729   1.606  -0.035  0.00  0.00    -0.267 OA
ATOM     29  C   UNL     1       2.397   1.382  -0.014  0.00  0.00    +0.063 A 
ATOM     30  C   UNL     1       2.402  -0.011  -0.021  0.00  0.00    +0.015 A 
ATOM     31  C   UNL     1       1.204  -0.695  -0.013  0.00  0.00    +0.001 A 
ATOM     32  C   UNL     1       0.002  -0.004   0.002  0.00  0.00    +0.002 A 
ATOM     33  C   UNL     1      -0.017   1.377   0.010  0.00  0.00    +0.026 A 
ATOM     34  C   UNL     1       1.178   2.081   0.002  0.00  0.00    +0.053 A 
ATOM     35  N   UNL     1       1.203   3.468   0.010  0.00  0.00    -0.335 N 
ATOM     36  H   UNL     1       0.369   3.963   0.020  0.00  0.00    +0.168 HD
ATOM     37  C   UNL     1       2.372   4.131   0.002  0.00  0.00    +0.161 A 
ATOM     38  S   UNL     1       2.342   5.843   0.011  0.00  0.00    -0.013 S 
ENDBRANCH  25  26
ENDBRANCH  24  25
ENDBRANCH  21  24
ENDBRANCH   1  20
TORSDOF 7
