REMARK  Name = ZINC00937280
REMARK  9 active torsions:
REMARK  status: ('A' for Active; 'I' for Inactive)
REMARK    1  A    between atoms: C_1  and  C_2
REMARK    2  A    between atoms: C_2  and  C_3
REMARK    3  A    between atoms: C_2  and  C_4
REMARK    4  A    between atoms: C_4  and  C_5
REMARK    5  A    between atoms: C_5  and  S_6
REMARK    6  A    between atoms: S_6  and  C_7
REMARK    7  A    between atoms: C_18  and  C_20
REMARK    8  A    between atoms: C_32  and  C_34
REMARK    9  A    between atoms: C_32  and  C_35
REMARK                            x       y       z     vdW  Elec       q    Type
REMARK                         _______ _______ _______ _____ _____    ______ ____
ROOT
ATOM      1  C   UNL     1       0.002  -0.004   0.002  0.00  0.00    +0.171 A 
ATOM      2  N   UNL     1      -0.016   1.358   0.009  0.00  0.00    -0.302 N 
ATOM      3  H   UNL     1      -0.863   1.831   0.016  0.00  0.00    +0.171 HD
ATOM      4  C   UNL     1       1.142   2.051   0.002  0.00  0.00    +0.258 A 
ATOM      5  O   UNL     1       1.136   3.272   0.009  0.00  0.00    -0.267 OA
ATOM      6  C   UNL     1       2.349   1.344  -0.013  0.00  0.00    +0.069 A 
ATOM      7  C   UNL     1       2.313  -0.040  -0.022  0.00  0.00    +0.135 A 
ATOM      8  N   UNL     1       1.136  -0.674  -0.013  0.00  0.00    -0.208 NA
ATOM      9  N   UNL     1       3.494  -0.755  -0.043  0.00  0.00    -0.302 N 
ATOM     10  C   UNL     1       4.661  -0.162  -0.443  0.00  0.00    +0.017 C 
ATOM     11  C   UNL     1       4.787   1.181  -0.460  0.00  0.00    +0.024 C 
ATOM     12  C   UNL     1       3.658   2.077  -0.018  0.00  0.00    +0.093 C 
ATOM     13  C   UNL     1       5.980   1.791  -0.887  0.00  0.00    +0.162 C 
ATOM     14  O   UNL     1       6.064   3.003  -0.882  0.00  0.00    -0.292 OA
ATOM     15  C   UNL     1       7.154   0.974  -1.350  0.00  0.00    +0.086 C 
ATOM     16  C   UNL     1       6.643  -0.350  -1.928  0.00  0.00    -0.023 C 
ATOM     17  C   UNL     1       5.806  -1.055  -0.859  0.00  0.00    +0.058 C 
ATOM     18  C   UNL     1       5.778  -0.073  -3.159  0.00  0.00    +0.011 C 
ATOM     19  C   UNL     1       7.830  -1.232  -2.321  0.00  0.00    +0.011 C 
ATOM     20  H   UNL     1       3.497  -1.686   0.229  0.00  0.00    +0.153 HD
ENDROOT
BRANCH  12  21
ATOM     21  C   UNL     1       3.943   2.582   1.373  0.00  0.00    -0.032 A 
ATOM     22  C   UNL     1       4.094   1.685   2.415  0.00  0.00    +0.008 A 
ATOM     23  C   UNL     1       4.357   2.143   3.692  0.00  0.00    +0.050 A 
ATOM     24  C   UNL     1       4.470   3.503   3.932  0.00  0.00    +0.166 A 
ATOM     25  C   UNL     1       4.318   4.406   2.883  0.00  0.00    +0.167 A 
ATOM     26  C   UNL     1       4.060   3.940   1.604  0.00  0.00    +0.054 A 
ATOM     27  O   UNL     1       4.473   5.671   3.371  0.00  0.00    -0.453 OA
ATOM     28  C   UNL     1       4.314   5.555   4.797  0.00  0.00    +0.466 C 
ATOM     29  O   UNL     1       4.719   4.202   5.077  0.00  0.00    -0.453 OA
ENDBRANCH  12  21
BRANCH   1  30
ATOM     30  S   UNL     1      -1.522  -0.888   0.014  0.00  0.00    -0.088 S 
BRANCH  30  31
ATOM     31  C   UNL     1      -0.901  -2.587  -0.002  0.00  0.00    +0.077 C 
BRANCH  31  32
ATOM     32  C   UNL     1      -2.080  -3.562   0.006  0.00  0.00    +0.014 C 
BRANCH  32  34
ATOM     33  C   UNL     1      -2.727  -5.972   0.125  0.00  0.00    +0.007 C 
ATOM     34  C   UNL     1      -1.554  -4.999  -0.008  0.00  0.00    -0.016 C 
ATOM     35  C   UNL     1      -0.821  -5.261  -1.325  0.00  0.00    +0.007 C 
ENDBRANCH  32  34
ENDBRANCH  31  32
ENDBRANCH  30  31
ENDBRANCH   1  30
TORSDOF 5
