REMARK  Name = ZINC50364926
REMARK  4 active torsions:
REMARK  status: ('A' for Active; 'I' for Inactive)
REMARK    1  A    between atoms: C_1  and  C_2
REMARK    2  A    between atoms: C_2  and  C_3
REMARK    3  A    between atoms: C_2  and  C_4
REMARK    4  A    between atoms: C_8  and  C_10
REMARK                            x       y       z     vdW  Elec       q    Type
REMARK                         _______ _______ _______ _____ _____    ______ ____
ROOT
ATOM      1  C   UNL     1       0.707  -0.490  -1.238  0.00  0.00    +0.132 A 
ATOM      2  N   UNL     1       0.227  -0.155  -2.420  0.00  0.00    -0.239 NA
ATOM      3  C   UNL     1       0.814  -0.559  -3.534  0.00  0.00    +0.135 A 
ATOM      4  C   UNL     1       1.954  -1.349  -3.450  0.00  0.00    +0.089 A 
ATOM      5  C   UNL     1       2.433  -1.684  -2.181  0.00  0.00    +0.147 A 
ATOM      6  N   UNL     1       1.786  -1.231  -1.109  0.00  0.00    -0.226 NA
ATOM      7 CL   UNL     1       2.760  -1.905  -4.883  0.00  0.00    -0.080 Cl
ENDROOT
BRANCH   5   8
ATOM      8  C   UNL     1       3.646  -2.524  -2.031  0.00  0.00    +0.270 C 
ATOM      9  O   UNL     1       4.231  -2.928  -3.017  0.00  0.00    -0.268 OA
ATOM     10  N   UNL     1       4.099  -2.840  -0.802  0.00  0.00    -0.259 N 
ATOM     11  C   UNL     1       5.234  -3.628  -0.661  0.00  0.00    +0.166 A 
ATOM     12  N   UNL     1       5.992  -4.144  -1.604  0.00  0.00    -0.232 NA
ATOM     13  C   UNL     1       7.049  -4.878  -1.305  0.00  0.00    +0.136 A 
ATOM     14  C   UNL     1       7.312  -5.072   0.012  0.00  0.00    +0.076 A 
ATOM     15  S   UNL     1       5.979  -4.146   0.756  0.00  0.00    -0.045 S 
ATOM     16 BR   UNL     1       8.709  -6.046   0.832  0.00  0.00    -0.041 Br
ATOM     17  H   UNL     1       3.632  -2.518  -0.015  0.00  0.00    +0.157 HD
ENDBRANCH   5   8
BRANCH   1  19
ATOM     18  C   UNL     1      -0.019   1.526   0.010  0.00  0.00    +0.015 C 
ATOM     19  C   UNL     1       0.002  -0.004   0.002  0.00  0.00    +0.051 C 
ATOM     20  C   UNL     1      -1.433  -0.534   0.013  0.00  0.00    +0.015 C 
ENDBRANCH   1  19
TORSDOF 2
