REMARK  Name = ZINC38573722
REMARK  11 active torsions:
REMARK  status: ('A' for Active; 'I' for Inactive)
REMARK    1  A    between atoms: C_1  and  O_2
REMARK    2  A    between atoms: O_2  and  C_3
REMARK    3  A    between atoms: C_6  and  C_9
REMARK    4  A    between atoms: C_9  and  C_10
REMARK    5  A    between atoms: C_10  and  C_11
REMARK    6  A    between atoms: N_13  and  C_14
REMARK    7  A    between atoms: C_14  and  C_16
REMARK    8  A    between atoms: C_14  and  C_20
REMARK    9  A    between atoms: C_16  and  C_17
REMARK   10  A    between atoms: C_17  and  S_18
REMARK   11  A    between atoms: S_18  and  C_19
REMARK                            x       y       z     vdW  Elec       q    Type
REMARK                         _______ _______ _______ _____ _____    ______ ____
ROOT
ATOM      1  C   UNL     1       6.620  -4.339  -6.329  0.00  0.00    +0.160 C 
ENDROOT
BRANCH   1   2
ATOM      2  C   UNL     1       7.849  -5.012  -5.776  0.00  0.00    +0.236 C 
ATOM      3  O   UNL     1       8.239  -4.741  -4.659  0.00  0.00    -0.274 OA
ATOM      4  N   UNL     1       8.516  -5.916  -6.521  0.00  0.00    -0.300 N 
ATOM      5  C   UNL     1       8.128  -6.169  -7.915  0.00  0.00    +0.106 C 
ATOM      6  C   UNL     1       7.891  -7.672  -8.096  0.00  0.00    +0.009 C 
ATOM      7  C   UNL     1       9.131  -8.440  -7.637  0.00  0.00    -0.037 C 
ATOM      8  C   UNL     1       9.392  -8.164  -6.155  0.00  0.00    +0.009 C 
ATOM      9  C   UNL     1       9.649  -6.663  -5.956  0.00  0.00    +0.106 C 
ATOM     10  C   UNL     1       8.918  -9.939  -7.852  0.00  0.00    +0.140 C 
ATOM     11  C   UNL     1      10.246 -10.601  -7.501  0.00  0.00    +0.042 C 
ATOM     12  N   UNL     1       9.984 -11.466  -6.600  0.00  0.00    -0.243 NA
ATOM     13  C   UNL     1       8.682 -11.418  -6.225  0.00  0.00    +0.216 C 
ATOM     14  N   UNL     1       7.981 -10.528  -6.894  0.00  0.00    -0.264 NA
ATOM     15  C   UNL     1      11.546 -10.118  -8.094  0.00  0.00    +0.034 C 
ATOM     16  C   UNL     1      11.546  -8.587  -7.924  0.00  0.00    -0.076 C 
ATOM     17  N   UNL     1      10.295  -8.018  -8.430  0.00  0.00    +0.385 N 
ATOM     18  H   UNL     1      10.164  -8.312  -9.386  0.00  0.00    -0.085 HD
ATOM     19  H   UNL     1      10.360  -7.011  -8.405  0.00  0.00    -0.085 HD
ENDBRANCH   1   2
BRANCH   1  22
ATOM     20  C   UNL     1       4.458  -3.700  -5.406  0.00  0.00    +0.214 C 
ATOM     21  O   UNL     1       3.958  -3.942  -6.484  0.00  0.00    -0.276 OA
ATOM     22  N   UNL     1       5.783  -3.866  -5.224  0.00  0.00    -0.304 N 
ATOM     23  H   UNL     1       6.182  -3.673  -4.361  0.00  0.00    +0.149 HD
BRANCH  20  24
ATOM     24  C   UNL     1       3.596  -3.213  -4.269  0.00  0.00    +0.100 C 
BRANCH  24  25
ATOM     25  C   UNL     1       2.143  -3.112  -4.737  0.00  0.00    +0.044 C 
BRANCH  25  29
ATOM     26  C   UNL     1      -0.299  -1.732  -1.513  0.00  0.00    +0.120 A 
ATOM     27  C   UNL     1       0.287  -0.822  -2.380  0.00  0.00    +0.046 A 
ATOM     28  C   UNL     1       1.076  -1.270  -3.421  0.00  0.00    +0.007 A 
ATOM     29  C   UNL     1       1.282  -2.626  -3.600  0.00  0.00    -0.047 A 
ATOM     30  C   UNL     1       0.698  -3.535  -2.738  0.00  0.00    +0.007 A 
ATOM     31  C   UNL     1      -0.087  -3.092  -1.692  0.00  0.00    +0.046 A 
BRANCH  26  33
ATOM     32  C   UNL     1      -1.251   0.119  -0.365  0.00  0.00    +0.277 C 
ATOM     33  O   UNL     1      -1.076  -1.294  -0.488  0.00  0.00    -0.495 OA
ENDBRANCH  26  33
ENDBRANCH  25  29
ENDBRANCH  24  25
ENDBRANCH  20  24
ENDBRANCH   1  22
BRANCH   1  34
ATOM     34  C   UNL     1       7.037  -3.151  -7.198  0.00  0.00    +0.042 C 
BRANCH  34  35
ATOM     35  C   UNL     1       5.800  -2.554  -7.873  0.00  0.00    +0.071 C 
BRANCH  35  36
ATOM     36  S   UNL     1       6.294  -1.145  -8.903  0.00  0.00    -0.164 S 
ATOM     37  C   UNL     1       4.736  -0.559  -9.623  0.00  0.00    +0.084 C 
ENDBRANCH  35  36
ENDBRANCH  34  35
ENDBRANCH   1  34
TORSDOF 9
