REMARK  Name = ZINC61887240
REMARK  5 active torsions:
REMARK  status: ('A' for Active; 'I' for Inactive)
REMARK    1  A    between atoms: C_1  and  C_2
REMARK    2  A    between atoms: C_7  and  C_8
REMARK    3  A    between atoms: N_10  and  C_11
REMARK    4  A    between atoms: C_16  and  C_18
REMARK    5  A    between atoms: N_19  and  O_20
REMARK                            x       y       z     vdW  Elec       q    Type
REMARK                         _______ _______ _______ _____ _____    ______ ____
ROOT
ATOM      1  C   UNL     1       0.578   0.067   4.894  0.00  0.00    +0.083 C 
ATOM      2  C   UNL     1       2.032   0.520   5.115  0.00  0.00    +0.023 C 
ATOM      3  C   UNL     1       2.512  -0.157   6.416  0.00  0.00    +0.003 C 
ATOM      4  C   UNL     1       1.205  -0.454   7.193  0.00  0.00    +0.013 C 
ATOM      5  C   UNL     1       0.224  -0.869   6.068  0.00  0.00    +0.076 C 
ENDROOT
BRANCH   5   6
ATOM      6  C   UNL     1      -1.202  -0.651   6.504  0.00  0.00    +0.136 C 
ATOM      7  N   UNL     1      -1.779   0.483   6.283  0.00  0.00    -0.076 NA
ATOM      8  N   UNL     1      -1.890  -1.662   7.138  0.00  0.00    -0.344 N 
ATOM      9  H   UNL     1      -1.457  -2.514   7.304  0.00  0.00    +0.144 HD
ATOM     10  H   UNL     1      -2.808  -1.522   7.419  0.00  0.00    +0.144 HD
BRANCH   7  11
ATOM     11  O   UNL     1      -3.119   0.688   6.693  0.00  0.00    -0.408 OA
ATOM     12  H   UNL     1      -3.464   1.567   6.484  0.00  0.00    +0.328 HD
ENDBRANCH   7  11
ENDBRANCH   5   6
BRANCH   1  15
ATOM     13  C   UNL     1       0.242   0.021   2.481  0.00  0.00    +0.245 C 
ATOM     14  O   UNL     1       0.135   1.232   2.503  0.00  0.00    -0.270 OA
ATOM     15  N   UNL     1       0.465  -0.656   3.625  0.00  0.00    -0.308 N 
ATOM     16  H   UNL     1       0.551  -1.622   3.607  0.00  0.00    +0.149 HD
BRANCH  13  23
ATOM     17  C   UNL     1      -0.511   1.452   0.082  0.00  0.00    +0.044 C 
ATOM     18  C   UNL     1      -0.234  -0.028   0.036  0.00  0.00    -0.038 A 
ATOM     19  C   UNL     1      -0.334  -0.714  -1.157  0.00  0.00    +0.004 A 
ATOM     20  C   UNL     1      -0.080  -2.073  -1.200  0.00  0.00    +0.000 A 
ATOM     21  C   UNL     1       0.275  -2.754  -0.049  0.00  0.00    +0.001 A 
ATOM     22  C   UNL     1       0.378  -2.080   1.150  0.00  0.00    +0.013 A 
ATOM     23  C   UNL     1       0.128  -0.708   1.200  0.00  0.00    +0.040 A 
ENDBRANCH  13  23
ENDBRANCH   1  15
TORSDOF 4
