REMARK  Name = ZINC42370619
REMARK  11 active torsions:
REMARK  status: ('A' for Active; 'I' for Inactive)
REMARK    1  A    between atoms: C_1  and  C_2
REMARK    2  A    between atoms: C_4  and  C_19
REMARK    3  A    between atoms: C_7  and  C_8
REMARK    4  A    between atoms: N_10  and  C_11
REMARK    5  A    between atoms: N_10  and  C_15
REMARK    6  A    between atoms: C_11  and  C_12
REMARK    7  A    between atoms: C_12  and  O_13
REMARK    8  A    between atoms: O_13  and  C_14
REMARK    9  A    between atoms: C_15  and  C_16
REMARK   10  A    between atoms: C_16  and  C_17
REMARK   11  A    between atoms: C_16  and  C_18
REMARK                            x       y       z     vdW  Elec       q    Type
REMARK                         _______ _______ _______ _____ _____    ______ ____
ROOT
ATOM      1  C   UNL     1      -3.012  -0.846  -1.622  0.00  0.00    +0.044 C 
ATOM      2  C   UNL     1      -1.661  -0.927  -0.959  0.00  0.00    -0.041 A 
ATOM      3  C   UNL     1      -0.540  -0.372  -1.561  0.00  0.00    +0.024 A 
ATOM      4  C   UNL     1       0.683  -0.463  -0.928  0.00  0.00    +0.015 A 
ATOM      5  N   UNL     1       0.797  -1.069   0.239  0.00  0.00    -0.347 N 
ATOM      6  C   UNL     1      -0.248  -1.611   0.845  0.00  0.00    +0.104 A 
ATOM      7  C   UNL     1      -1.512  -1.551   0.267  0.00  0.00    +0.008 A 
ATOM      8  N   UNL     1      -0.082  -2.240   2.074  0.00  0.00    -0.314 N 
ATOM      9  C   UNL     1       1.903   0.137  -1.577  0.00  0.00    +0.063 C 
ATOM     10  H   UNL     1       1.668  -1.119   0.663  0.00  0.00    +0.167 HD
ENDROOT
BRANCH   7  11
ATOM     11  C   UNL     1      -2.700  -2.163   0.963  0.00  0.00    +0.147 C 
ATOM     12 CL   UNL     1      -2.968  -3.833   0.338  0.00  0.00    -0.120 Cl
ENDBRANCH   7  11
BRANCH   8  13
ATOM     13  C   UNL     1      -0.032  -1.444   3.303  0.00  0.00    +0.134 C 
BRANCH  13  14
ATOM     14  C   UNL     1      -1.451  -1.244   3.839  0.00  0.00    +0.178 C 
BRANCH  14  15
ATOM     15  O   UNL     1      -1.990  -2.504   4.243  0.00  0.00    -0.381 OA
ATOM     16  C   UNL     1      -3.320  -2.428   4.762  0.00  0.00    +0.194 C 
ENDBRANCH  14  15
ENDBRANCH  13  14
ENDBRANCH   8  13
BRANCH   8  17
ATOM     17  C   UNL     1       0.044  -3.698   2.139  0.00  0.00    +0.109 C 
BRANCH  17  18
ATOM     18  C   UNL     1       1.519  -4.088   2.028  0.00  0.00    +0.000 C 
ATOM     19  C   UNL     1       2.279  -3.562   3.247  0.00  0.00    +0.009 C 
ATOM     20  C   UNL     1       1.640  -5.612   1.971  0.00  0.00    +0.009 C 
ENDBRANCH  17  18
ENDBRANCH   8  17
TORSDOF 6
