REMARK  Name = ZINC15675843
REMARK  6 active torsions:
REMARK  status: ('A' for Active; 'I' for Inactive)
REMARK    1  A    between atoms: C_1  and  C_2
REMARK    2  A    between atoms: C_5  and  N_8
REMARK    3  A    between atoms: C_20  and  C_22
REMARK    4  A    between atoms: C_24  and  C_27
REMARK    5  A    between atoms: C_30  and  O_33
REMARK    6  A    between atoms: O_33  and  C_34
REMARK                            x       y       z     vdW  Elec       q    Type
REMARK                         _______ _______ _______ _____ _____    ______ ____
ROOT
ATOM      1  N   UNL     1       0.056  -4.170  -0.021  0.00  0.00    -0.269 N 
ATOM      2  C   UNL     1       0.174  -4.849   1.138  0.00  0.00    +0.307 C 
ATOM      3  O   UNL     1       0.174  -4.250   2.196  0.00  0.00    -0.252 OA
ATOM      4  N   UNL     1       0.294  -6.191   1.123  0.00  0.00    -0.267 N 
ATOM      5  C   UNL     1       0.415  -6.925  -0.150  0.00  0.00    +0.165 C 
ATOM      6  C   UNL     1      -0.495  -8.127  -0.063  0.00  0.00    +0.054 A 
ATOM      7  C   UNL     1      -1.082  -8.542   1.080  0.00  0.00    +0.040 A 
ATOM      8  N   UNL     1      -1.816  -9.646   0.771  0.00  0.00    -0.349 N 
ATOM      9  H   UNL     1      -2.352 -10.173   1.385  0.00  0.00    +0.166 HD
ATOM     10  C   UNL     1      -1.658  -9.870  -0.554  0.00  0.00    +0.171 A 
ATOM     11  N   UNL     1      -0.864  -8.954  -1.044  0.00  0.00    -0.348 N 
ATOM     12  C   UNL     1      -0.927  -7.870   2.419  0.00  0.00    +0.087 C 
ATOM     13  C   UNL     1       0.312  -6.959   2.377  0.00  0.00    +0.172 C 
ATOM     14  H   UNL     1      -0.082  -4.650  -0.852  0.00  0.00    +0.156 HD
ATOM     15  H   UNL     1      -0.588  -8.885  -1.971  0.00  0.00    +0.166 HD
ENDROOT
BRANCH   1  20
ATOM     16  C   UNL     1       0.359   1.495  -0.035  0.00  0.00    +0.044 C 
ATOM     17  C   UNL     1       0.279  -0.010  -0.031  0.00  0.00    -0.050 A 
ATOM     18  C   UNL     1       0.711  -0.727  -1.132  0.00  0.00    +0.005 A 
ATOM     19  C   UNL     1       0.638  -2.106  -1.131  0.00  0.00    +0.023 A 
ATOM     20  C   UNL     1       0.131  -2.773  -0.024  0.00  0.00    +0.035 A 
ATOM     21  C   UNL     1      -0.302  -2.050   1.080  0.00  0.00    +0.023 A 
ATOM     22  C   UNL     1      -0.222  -0.671   1.076  0.00  0.00    +0.005 A 
ENDBRANCH   1  20
BRANCH  13  23
ATOM     23  C   UNL     1       1.562  -7.800   2.435  0.00  0.00    +0.249 A 
ATOM     24  N   UNL     1       2.341  -7.934   3.470  0.00  0.00    -0.190 NA
ATOM     25  C   UNL     1       3.363  -8.757   3.173  0.00  0.00    +0.202 A 
ATOM     26  N   UNL     1       3.234  -9.153   1.930  0.00  0.00    -0.056 NA
ATOM     27  O   UNL     1       2.055  -8.539   1.433  0.00  0.00    -0.336 OA
BRANCH  25  28
ATOM     28  C   UNL     1       4.455  -9.149   4.098  0.00  0.00    +0.023 A 
ATOM     29  C   UNL     1       4.474  -8.660   5.402  0.00  0.00    +0.015 A 
ATOM     30  C   UNL     1       5.490  -9.027   6.260  0.00  0.00    +0.046 A 
ATOM     31  C   UNL     1       6.493  -9.883   5.824  0.00  0.00    +0.130 A 
ATOM     32  C   UNL     1       6.476 -10.371   4.524  0.00  0.00    +0.046 A 
ATOM     33  C   UNL     1       5.460 -10.013   3.665  0.00  0.00    +0.015 A 
BRANCH  31  34
ATOM     34  O   UNL     1       7.492 -10.242   6.671  0.00  0.00    -0.406 OA
BRANCH  34  35
ATOM     35  C   UNL     1       8.491 -11.126   6.157  0.00  0.00    +0.575 C 
ATOM     36  F   UNL     1       9.123 -10.528   5.062  0.00  0.00    -0.133 F 
ATOM     37  F   UNL     1       9.437 -11.390   7.154  0.00  0.00    -0.133 F 
ATOM     38  F   UNL     1       7.891 -12.323   5.753  0.00  0.00    -0.133 F 
ENDBRANCH  34  35
ENDBRANCH  31  34
ENDBRANCH  25  28
ENDBRANCH  13  23
TORSDOF 5
