REMARK  Name = ZINC39462482
REMARK  12 active torsions:
REMARK  status: ('A' for Active; 'I' for Inactive)
REMARK    1  A    between atoms: C_1  and  C_2
REMARK    2  A    between atoms: C_2  and  C_3
REMARK    3  A    between atoms: C_2  and  N_4
REMARK    4  A    between atoms: N_4  and  C_5
REMARK    5  A    between atoms: N_4  and  C_34
REMARK    6  A    between atoms: C_5  and  C_6
REMARK    7  A    between atoms: C_6  and  N_7
REMARK    8  A    between atoms: C_8  and  S_19
REMARK    9  A    between atoms: S_19  and  C_20
REMARK   10  A    between atoms: C_20  and  C_21
REMARK   11  A    between atoms: C_34  and  C_35
REMARK   12  A    between atoms: C_34  and  C_36
REMARK                            x       y       z     vdW  Elec       q    Type
REMARK                         _______ _______ _______ _____ _____    ______ ____
ROOT
ATOM      1  N   UNL     1      -3.042   2.023  -2.231  0.00  0.00    -0.272 N 
ATOM      2  C   UNL     1      -2.372   2.345  -3.491  0.00  0.00    +0.222 C 
ATOM      3  N   UNL     1      -3.081   3.427  -4.183  0.00  0.00    -0.317 N 
ATOM      4  C   UNL     1      -4.470   3.391  -4.235  0.00  0.00    +0.041 A 
ATOM      5  C   UNL     1      -5.176   3.962  -5.281  0.00  0.00    +0.024 A 
ATOM      6  C   UNL     1      -6.556   3.911  -5.283  0.00  0.00    +0.002 A 
ATOM      7  C   UNL     1      -7.240   3.294  -4.247  0.00  0.00    +0.001 A 
ATOM      8  C   UNL     1      -6.552   2.717  -3.200  0.00  0.00    +0.015 A 
ATOM      9  C   UNL     1      -5.160   2.757  -3.188  0.00  0.00    +0.058 A 
ATOM     10  C   UNL     1      -4.380   2.129  -2.106  0.00  0.00    +0.250 C 
ATOM     11  O   UNL     1      -4.937   1.713  -1.108  0.00  0.00    -0.270 OA
ATOM     12  H   UNL     1      -2.590   4.154  -4.597  0.00  0.00    +0.149 HD
ENDROOT
BRANCH   1  13
ATOM     13  C   UNL     1      -2.245   1.573  -1.087  0.00  0.00    +0.092 C 
BRANCH  13  14
ATOM     14  C   UNL     1      -2.116   0.049  -1.124  0.00  0.00    -0.059 C 
BRANCH  14  15
ATOM     15  N   UNL     1      -1.449  -0.416   0.099  0.00  0.00    +0.384 N 
ATOM     16  H   UNL     1      -1.933  -0.052   0.906  0.00  0.00    -0.081 HD
BRANCH  15  18
ATOM     17  C   UNL     1       0.439   0.207  -1.331  0.00  0.00    -0.014 C 
ATOM     18  C   UNL     1      -0.058   0.056   0.108  0.00  0.00    -0.074 C 
ATOM     19  C   UNL     1       0.016   1.410   0.817  0.00  0.00    -0.014 C 
ENDBRANCH  15  18
BRANCH  15  20
ATOM     20  C   UNL     1      -1.467  -1.885   0.139  0.00  0.00    -0.074 C 
ATOM     21  C   UNL     1      -0.884  -2.366   1.469  0.00  0.00    -0.014 C 
ATOM     22  C   UNL     1      -2.908  -2.381   0.005  0.00  0.00    -0.014 C 
ENDBRANCH  15  20
ENDBRANCH  14  15
ENDBRANCH  13  14
ENDBRANCH   1  13
BRANCH   2  23
ATOM     23  S   UNL     1      -2.348   0.874  -4.552  0.00  0.00    -0.111 S 
BRANCH  23  24
ATOM     24  C   UNL     1      -4.101   0.476  -4.790  0.00  0.00    +0.146 C 
BRANCH  24  25
ATOM     25  C   UNL     1      -4.226  -0.744  -5.666  0.00  0.00    +0.120 A 
ATOM     26  N   UNL     1      -5.470  -1.198  -5.966  0.00  0.00    -0.310 N 
ATOM     27  H   UNL     1      -6.248  -0.736  -5.616  0.00  0.00    +0.170 HD
ATOM     28  C   UNL     1      -5.635  -2.290  -6.748  0.00  0.00    +0.259 A 
ATOM     29  O   UNL     1      -6.745  -2.708  -7.026  0.00  0.00    -0.267 OA
ATOM     30  C   UNL     1      -4.422  -2.952  -7.251  0.00  0.00    +0.066 A 
ATOM     31  C   UNL     1      -4.483  -4.082  -8.064  0.00  0.00    +0.035 A 
ATOM     32  C   UNL     1      -3.314  -4.663  -8.507  0.00  0.00    +0.042 A 
ATOM     33  C   UNL     1      -2.081  -4.131  -8.150  0.00  0.00    +0.022 A 
ATOM     34  C   UNL     1      -2.000  -3.015  -7.348  0.00  0.00    +0.030 A 
ATOM     35  C   UNL     1      -3.171  -2.408  -6.887  0.00  0.00    +0.078 A 
ATOM     36  N   UNL     1      -3.137  -1.304  -6.099  0.00  0.00    -0.233 NA
ATOM     37 CL   UNL     1      -3.382  -6.072  -9.519  0.00  0.00    -0.084 Cl
ENDBRANCH  24  25
ENDBRANCH  23  24
ENDBRANCH   2  23
TORSDOF 8
