REMARK  Name = ZINC33261396
REMARK  12 active torsions:
REMARK  status: ('A' for Active; 'I' for Inactive)
REMARK    1  A    between atoms: C_1  and  C_2
REMARK    2  A    between atoms: C_2  and  O_3
REMARK    3  A    between atoms: O_3  and  C_4
REMARK    4  A    between atoms: C_9  and  C_10
REMARK    5  A    between atoms: C_10  and  N_11
REMARK    6  A    between atoms: C_12  and  C_14
REMARK    7  A    between atoms: C_14  and  C_15
REMARK    8  A    between atoms: C_15  and  C_16
REMARK    9  A    between atoms: C_16  and  N_17
REMARK   10  A    between atoms: C_22  and  C_24
REMARK   11  A    between atoms: N_26  and  C_33
REMARK   12  A    between atoms: C_27  and  N_28
REMARK                            x       y       z     vdW  Elec       q    Type
REMARK                         _______ _______ _______ _____ _____    ______ ____
ROOT
ATOM      1  N   UNL     1      -0.672   3.707   0.029  0.00  0.00    -0.229 N 
ATOM      2  C   UNL     1      -1.050   2.412   0.030  0.00  0.00    +0.280 A 
ATOM      3  O   UNL     1      -2.230   2.110   0.046  0.00  0.00    -0.265 OA
ATOM      4  C   UNL     1      -0.017   1.378   0.010  0.00  0.00    +0.112 A 
ATOM      5  C   UNL     1       1.391   1.815  -0.002  0.00  0.00    +0.123 A 
ATOM      6  C   UNL     1       1.656   3.258   0.004  0.00  0.00    +0.086 A 
ATOM      7  N   UNL     1       0.665   4.096   0.018  0.00  0.00    -0.171 NA
ATOM      8  C   UNL     1       3.075   3.765  -0.007  0.00  0.00    +0.070 C 
ATOM      9  N   UNL     1       2.128   0.731  -0.014  0.00  0.00    -0.162 NA
ATOM     10  N   UNL     1       1.294  -0.394  -0.012  0.00  0.00    -0.215 N 
ATOM     11  C   UNL     1       0.002  -0.004   0.002  0.00  0.00    +0.154 A 
ENDROOT
BRANCH  10  12
ATOM     12  C   UNL     1       1.735  -1.723  -0.024  0.00  0.00    +0.068 A 
ATOM     13  C   UNL     1       1.029  -2.696   0.671  0.00  0.00    +0.028 A 
ATOM     14  C   UNL     1       1.463  -4.007   0.653  0.00  0.00    +0.002 A 
ATOM     15  C   UNL     1       2.606  -4.349  -0.047  0.00  0.00    +0.000 A 
ATOM     16  C   UNL     1       3.314  -3.381  -0.736  0.00  0.00    +0.002 A 
ATOM     17  C   UNL     1       2.882  -2.070  -0.726  0.00  0.00    +0.028 A 
ENDBRANCH  10  12
BRANCH  11  18
ATOM     18  N   UNL     1      -1.108  -0.841   0.008  0.00  0.00    -0.307 N 
ATOM     19  C   UNL     1      -2.208  -0.702   0.808  0.00  0.00    +0.092 A 
ATOM     20  C   UNL     1      -3.067  -1.699   0.520  0.00  0.00    +0.019 A 
ATOM     21  C   UNL     1      -2.477  -2.490  -0.487  0.00  0.00    +0.019 A 
ATOM     22  C   UNL     1      -1.280  -1.944  -0.782  0.00  0.00    +0.092 A 
ENDBRANCH  11  18
BRANCH   1  23
ATOM     23  C   UNL     1      -1.707   4.743   0.045  0.00  0.00    +0.148 C 
BRANCH  23  24
ATOM     24  C   UNL     1      -2.054   5.095   1.493  0.00  0.00    +0.033 C 
BRANCH  24  25
ATOM     25  C   UNL     1      -3.135   6.177   1.510  0.00  0.00    +0.097 C 
BRANCH  25  27
ATOM     26  N   UNL     1      -4.411   7.460   3.196  0.00  0.00    -0.311 N 
ATOM     27  C   UNL     1      -3.477   6.525   2.936  0.00  0.00    +0.213 C 
ATOM     28  O   UNL     1      -2.911   5.962   3.849  0.00  0.00    -0.276 OA
ATOM     29  H   UNL     1      -4.925   7.971   2.368  0.00  0.00    +0.149 HD
BRANCH  26  30
ATOM     30  C   UNL     1      -4.743   7.798   4.583  0.00  0.00    +0.143 C 
BRANCH  30  36
ATOM     31  C   UNL     1      -7.137   8.520   4.401  0.00  0.00    +0.125 A 
ATOM     32  C   UNL     1      -8.116   9.504   4.418  0.00  0.00    +0.046 A 
ATOM     33  C   UNL     1      -7.764  10.822   4.630  0.00  0.00    +0.004 A 
ATOM     34  C   UNL     1      -6.439  11.162   4.827  0.00  0.00    +0.001 A 
ATOM     35  C   UNL     1      -5.462  10.184   4.817  0.00  0.00    +0.009 A 
ATOM     36  C   UNL     1      -5.808   8.864   4.599  0.00  0.00    +0.011 A 
BRANCH  31  37
ATOM     37  O   UNL     1      -7.481   7.222   4.193  0.00  0.00    -0.492 OA
BRANCH  37  39
ATOM     38  C   UNL     1      -9.059   5.439   3.779  0.00  0.00    +0.048 C 
ATOM     39  C   UNL     1      -8.868   6.941   3.997  0.00  0.00    +0.225 C 
ENDBRANCH  37  39
ENDBRANCH  31  37
ENDBRANCH  30  36
ENDBRANCH  26  30
ENDBRANCH  25  27
ENDBRANCH  24  25
ENDBRANCH  23  24
ENDBRANCH   1  23
TORSDOF 10
