REMARK  Name = ZINC50892539
REMARK  2 active torsions:
REMARK  status: ('A' for Active; 'I' for Inactive)
REMARK    1  A    between atoms: C_6  and  C_7
REMARK    2  A    between atoms: C_7  and  C_9
REMARK                            x       y       z     vdW  Elec       q    Type
REMARK                         _______ _______ _______ _____ _____    ______ ____
ROOT
ATOM      1  C   UNL     1      -0.116   1.435   0.015  0.00  0.00    +0.007 A 
ATOM      2  C   UNL     1       1.034   2.202  -0.015  0.00  0.00    +0.028 A 
ATOM      3  C   UNL     1       2.273   1.584  -0.084  0.00  0.00    +0.067 A 
ATOM      4  C   UNL     1       2.354   0.191  -0.122  0.00  0.00    +0.067 A 
ATOM      5  C   UNL     1       1.196  -0.570  -0.093  0.00  0.00    +0.033 A 
ATOM      6  C   UNL     1      -0.035   0.054  -0.023  0.00  0.00    -0.023 A 
ATOM      7  N   UNL     1       3.708  -0.132  -0.188  0.00  0.00    -0.306 N 
ATOM      8  H   UNL     1       4.077  -1.028  -0.227  0.00  0.00    +0.170 HD
ATOM      9  C   UNL     1       4.417   1.013  -0.189  0.00  0.00    +0.325 A 
ATOM     10  O   UNL     1       5.630   1.085  -0.239  0.00  0.00    -0.247 OA
ATOM     11  N   UNL     1       3.579   2.065  -0.127  0.00  0.00    -0.306 N 
ATOM     12  H   UNL     1       3.841   2.999  -0.115  0.00  0.00    +0.170 HD
ENDROOT
BRANCH   6  13
ATOM     13  C   UNL     1      -1.294  -0.772   0.011  0.00  0.00    +0.140 C 
ATOM     14 CL   UNL     1      -2.416  -0.212  -1.285  0.00  0.00    -0.112 Cl
BRANCH  13  15
ATOM     15  C   UNL     1      -1.961  -0.617   1.353  0.00  0.00    -0.025 A 
ATOM     16  C   UNL     1      -2.506   0.600   1.721  0.00  0.00    +0.009 A 
ATOM     17  C   UNL     1      -3.121   0.746   2.947  0.00  0.00    +0.046 A 
ATOM     18  C   UNL     1      -3.198  -0.332   3.826  0.00  0.00    +0.124 A 
ATOM     19  C   UNL     1      -2.641  -1.547   3.448  0.00  0.00    -0.002 A 
ATOM     20  C   UNL     1      -2.035  -1.693   2.220  0.00  0.00    +0.012 A 
ATOM     21  C   UNL     1      -2.854  -2.511   4.600  0.00  0.00    +0.080 C 
ATOM     22  C   UNL     1      -3.225  -1.552   5.755  0.00  0.00    +0.234 C 
ATOM     23  O   UNL     1      -3.762  -0.412   5.062  0.00  0.00    -0.491 OA
ENDBRANCH  13  15
ENDBRANCH   6  13
TORSDOF 2
