REMARK  Name = ZINC67161158
REMARK  7 active torsions:
REMARK  status: ('A' for Active; 'I' for Inactive)
REMARK    1  A    between atoms: C_5  and  C_6
REMARK    2  A    between atoms: C_6  and  N_7
REMARK    3  A    between atoms: C_8  and  C_10
REMARK    4  A    between atoms: C_10  and  C_11
REMARK    5  A    between atoms: C_11  and  C_12
REMARK    6  A    between atoms: C_12  and  C_13
REMARK    7  A    between atoms: C_13  and  C_14
REMARK                            x       y       z     vdW  Elec       q    Type
REMARK                         _______ _______ _______ _____ _____    ______ ____
ROOT
ATOM      1  C   UNL     1      -4.139  -3.414  -3.025  0.00  0.00    +0.009 C 
ENDROOT
BRANCH   1   2
ATOM      2  C   UNL     1      -2.964  -2.435  -3.031  0.00  0.00    +0.096 C 
BRANCH   2   4
ATOM      3  N   UNL     1      -1.544  -1.274  -1.371  0.00  0.00    -0.311 N 
ATOM      4  C   UNL     1      -2.564  -2.121  -1.612  0.00  0.00    +0.213 C 
ATOM      5  O   UNL     1      -3.161  -2.630  -0.688  0.00  0.00    -0.276 OA
ATOM      6  H   UNL     1      -1.067  -0.866  -2.111  0.00  0.00    +0.149 HD
BRANCH   3   7
ATOM      7  C   UNL     1      -1.156  -0.969   0.008  0.00  0.00    +0.146 C 
BRANCH   7  12
ATOM      8  C   UNL     1      -0.016   1.351   0.009  0.00  0.00    +0.014 A 
ATOM      9  C   UNL     1       1.184   2.038   0.002  0.00  0.00    +0.028 A 
ATOM     10  C   UNL     1       2.343   1.335  -0.013  0.00  0.00    +0.078 A 
ATOM     11  S   UNL     1       1.753  -0.350  -0.017  0.00  0.00    -0.080 S 
ATOM     12  C   UNL     1       0.002  -0.004   0.002  0.00  0.00    +0.008 A 
ATOM     13 CL   UNL     1       3.977   1.921  -0.026  0.00  0.00    -0.076 Cl
ENDBRANCH   7  12
ENDBRANCH   3   7
ENDBRANCH   2   4
ENDBRANCH   1   2
BRANCH   1  14
ATOM     14  C   UNL     1      -4.545  -3.733  -4.466  0.00  0.00    +0.002 C 
BRANCH  14  15
ATOM     15  C   UNL     1      -5.721  -4.712  -4.460  0.00  0.00    +0.016 C 
BRANCH  15  16
ATOM     16  C   UNL     1      -6.126  -5.031  -5.900  0.00  0.00    +0.069 C 
ATOM     17  C   UNL     1      -7.305  -5.969  -5.939  0.00  0.00    +0.108 C 
ATOM     18  C   UNL     1      -7.259  -6.770  -7.277  0.00  0.00    +0.105 C 
ATOM     19  C   UNL     1      -5.918  -7.501  -7.266  0.00  0.00    +0.093 C 
ATOM     20  S   UNL     1      -4.839  -6.061  -6.746  0.00  0.00    -0.154 S 
ATOM     21  N   UNL     1      -8.510  -7.485  -7.165  0.00  0.00    -0.294 N 
ATOM     22  C   UNL     1      -9.350  -6.645  -6.489  0.00  0.00    +0.300 C 
ATOM     23  O   UNL     1     -10.554  -6.804  -6.426  0.00  0.00    -0.253 OA
ATOM     24  N   UNL     1      -8.691  -5.605  -5.911  0.00  0.00    -0.294 N 
ATOM     25  H   UNL     1      -8.711  -8.373  -7.498  0.00  0.00    +0.151 HD
ATOM     26  H   UNL     1      -9.080  -4.793  -5.550  0.00  0.00    +0.151 HD
ENDBRANCH  15  16
ENDBRANCH  14  15
ENDBRANCH   1  14
TORSDOF 7
