REMARK  Name = ZINC41001607
REMARK  9 active torsions:
REMARK  status: ('A' for Active; 'I' for Inactive)
REMARK    1  A    between atoms: C_1  and  C_2
REMARK    2  A    between atoms: C_2  and  C_3
REMARK    3  A    between atoms: C_3  and  C_4
REMARK    4  A    between atoms: C_3  and  C_6
REMARK    5  A    between atoms: C_4  and  C_5
REMARK    6  A    between atoms: C_11  and  C_26
REMARK    7  A    between atoms: C_12  and  C_14
REMARK    8  A    between atoms: C_16  and  C_19
REMARK    9  A    between atoms: C_22  and  C_25
REMARK                            x       y       z     vdW  Elec       q    Type
REMARK                         _______ _______ _______ _____ _____    ______ ____
ROOT
ATOM      1  C   UNL     1      -1.691  -2.173  -0.698  0.00  0.00    +0.222 C 
ATOM      2  O   UNL     1      -0.706  -2.874  -0.791  0.00  0.00    -0.275 OA
ATOM      3  N   UNL     1      -2.896  -2.651  -1.066  0.00  0.00    -0.264 N 
ATOM      4  C   UNL     1      -2.997  -3.909  -1.639  0.00  0.00    +0.165 A 
ATOM      5  N   UNL     1      -2.031  -4.771  -1.894  0.00  0.00    -0.229 NA
ATOM      6  C   UNL     1      -2.282  -5.934  -2.445  0.00  0.00    +0.060 A 
ATOM      7  C   UNL     1      -3.599  -6.205  -2.742  0.00  0.00    +0.101 A 
ATOM      8  S   UNL     1      -4.381  -4.705  -2.172  0.00  0.00    -0.047 S 
ATOM      9  C   UNL     1      -1.185  -6.925  -2.738  0.00  0.00    +0.067 C 
ATOM     10  H   UNL     1      -3.693  -2.115  -0.929  0.00  0.00    +0.157 HD
ENDROOT
BRANCH   7  11
ATOM     11  C   UNL     1      -4.194  -7.398  -3.353  0.00  0.00    +0.267 A 
ATOM     12  N   UNL     1      -5.474  -7.578  -3.610  0.00  0.00    -0.187 NA
ATOM     13  C   UNL     1      -5.661  -8.782  -4.170  0.00  0.00    +0.202 A 
ATOM     14  N   UNL     1      -4.503  -9.387  -4.277  0.00  0.00    -0.056 NA
ATOM     15  O   UNL     1      -3.528  -8.497  -3.754  0.00  0.00    -0.332 OA
BRANCH  13  16
ATOM     16  C   UNL     1      -6.968  -9.340  -4.598  0.00  0.00    +0.022 A 
ATOM     17  C   UNL     1      -8.134  -8.595  -4.435  0.00  0.00    +0.012 A 
ATOM     18  C   UNL     1      -9.347  -9.118  -4.836  0.00  0.00    +0.004 A 
ATOM     19  C   UNL     1      -9.406 -10.381  -5.397  0.00  0.00    -0.050 A 
ATOM     20  C   UNL     1      -8.252 -11.126  -5.561  0.00  0.00    +0.004 A 
ATOM     21  C   UNL     1      -7.033 -10.609  -5.169  0.00  0.00    +0.012 A 
ATOM     22  C   UNL     1     -10.733 -10.948  -5.832  0.00  0.00    +0.044 C 
ENDBRANCH  13  16
ENDBRANCH   7  11
BRANCH   1  23
ATOM     23  C   UNL     1      -1.568  -0.766  -0.171  0.00  0.00    +0.075 C 
BRANCH  23  25
ATOM     24  C   UNL     1      -0.285   0.724   1.370  0.00  0.00    +0.004 C 
ATOM     25  C   UNL     1      -0.340  -0.668   0.737  0.00  0.00    +0.009 C 
ENDBRANCH  23  25
BRANCH  23  26
ATOM     26  C   UNL     1      -1.415   0.205  -1.343  0.00  0.00    +0.009 C 
ATOM     27  C   UNL     1      -0.119  -0.104  -2.096  0.00  0.00    +0.004 C 
ENDBRANCH  23  26
ENDBRANCH   1  23
TORSDOF 5
