REMARK  Name = ZINC03047122
REMARK  6 active torsions:
REMARK  status: ('A' for Active; 'I' for Inactive)
REMARK    1  A    between atoms: C_6  and  C_7
REMARK    2  A    between atoms: N_16  and  C_19
REMARK    3  A    between atoms: C_19  and  C_20
REMARK    4  A    between atoms: C_20  and  N_21
REMARK    5  A    between atoms: N_21  and  C_22
REMARK    6  A    between atoms: C_25  and  C_27
REMARK                            x       y       z     vdW  Elec       q    Type
REMARK                         _______ _______ _______ _____ _____    ______ ____
ROOT
ATOM      1  C   UNL     1       1.484   0.301  -6.787  0.00  0.00    +0.105 C 
ATOM      2  N   UNL     1       0.913  -0.823  -6.414  0.00  0.00    -0.248 NA
ATOM      3  C   UNL     1       0.239  -1.002  -5.287  0.00  0.00    +0.122 C 
ATOM      4  C   UNL     1       0.373  -0.171  -4.230  0.00  0.00    +0.055 C 
ATOM      5  C   UNL     1       1.437   0.921  -4.153  0.00  0.00    +0.175 C 
ATOM      6  S   UNL     1       1.444   1.743  -5.767  0.00  0.00    -0.088 S 
ATOM      7  C   UNL     1       0.915   1.810  -3.053  0.00  0.00    +0.240 C 
ATOM      8  O   UNL     1       1.302   2.925  -2.775  0.00  0.00    -0.274 OA
ATOM      9  N   UNL     1      -0.067   1.120  -2.437  0.00  0.00    -0.236 N 
ATOM     10  C   UNL     1      -0.355  -0.042  -3.045  0.00  0.00    +0.252 C 
ATOM     11  O   UNL     1      -1.143  -0.869  -2.622  0.00  0.00    -0.270 OA
ENDROOT
BRANCH   1  17
ATOM     12  C   UNL     1       2.782   1.547  -8.508  0.00  0.00    +0.012 A 
ATOM     13  C   UNL     1       3.431   1.593  -9.724  0.00  0.00    +0.020 A 
ATOM     14  C   UNL     1       3.471   0.471 -10.534  0.00  0.00    +0.041 A 
ATOM     15  C   UNL     1       2.865  -0.707 -10.128  0.00  0.00    +0.020 A 
ATOM     16  C   UNL     1       2.219  -0.768  -8.912  0.00  0.00    +0.012 A 
ATOM     17  C   UNL     1       2.174   0.360  -8.089  0.00  0.00    +0.007 A 
ATOM     18 CL   UNL     1       4.285   0.540 -12.066  0.00  0.00    -0.084 Cl
ENDBRANCH   1  17
BRANCH   9  19
ATOM     19  C   UNL     1      -0.753   1.593  -1.232  0.00  0.00    +0.135 C 
BRANCH  19  20
ATOM     20  C   UNL     1      -0.013   1.086   0.008  0.00  0.00    +0.122 C 
BRANCH  20  21
ATOM     21  N   UNL     1      -0.698   1.558   1.213  0.00  0.00    -0.328 N 
ATOM     22  H   UNL     1      -1.495   2.106   1.135  0.00  0.00    +0.147 HD
BRANCH  21  23
ATOM     23  C   UNL     1      -0.207   1.222   2.470  0.00  0.00    +0.115 A 
ATOM     24  C   UNL     1      -0.860   1.679   3.612  0.00  0.00    +0.079 A 
ATOM     25  C   UNL     1      -0.363   1.332   4.855  0.00  0.00    +0.037 A 
ATOM     26  C   UNL     1       0.781   0.546   4.916  0.00  0.00    +0.072 A 
ATOM     27  C   UNL     1       1.381   0.133   3.744  0.00  0.00    +0.096 A 
ATOM     28 CL   UNL     1      -2.282   2.665   3.476  0.00  0.00    -0.080 Cl
ATOM     29  N   UNL     1       0.917   0.450   2.505  0.00  0.00    -0.348 N 
ATOM     30  H   UNL     1       1.384   0.128   1.649  0.00  0.00    +0.167 HD
BRANCH  26  31
ATOM     31  C   UNL     1       1.362   0.149   6.248  0.00  0.00    +0.419 C 
ATOM     32  F   UNL     1       2.503  -0.634   6.045  0.00  0.00    -0.166 F 
ATOM     33  F   UNL     1       1.708   1.299   6.968  0.00  0.00    -0.166 F 
ATOM     34  F   UNL     1       0.415  -0.585   6.970  0.00  0.00    -0.166 F 
ENDBRANCH  26  31
ENDBRANCH  21  23
ENDBRANCH  20  21
ENDBRANCH  19  20
ENDBRANCH   9  19
TORSDOF 6
