REMARK  Name = ZINC09317487
REMARK  4 active torsions:
REMARK  status: ('A' for Active; 'I' for Inactive)
REMARK    1  A    between atoms: C_4  and  N_7
REMARK    2  A    between atoms: C_13  and  C_16
REMARK    3  A    between atoms: N_18  and  C_19
REMARK    4  A    between atoms: C_19  and  C_20
REMARK                            x       y       z     vdW  Elec       q    Type
REMARK                         _______ _______ _______ _____ _____    ______ ____
ROOT
ATOM      1  N   UNL     1      -5.876   4.173  -8.429  0.00  0.00    -0.269 N 
ATOM      2  C   UNL     1      -4.713   3.499  -8.339  0.00  0.00    +0.310 C 
ATOM      3  O   UNL     1      -4.151   3.120  -9.349  0.00  0.00    -0.252 OA
ATOM      4  N   UNL     1      -4.173   3.245  -7.131  0.00  0.00    -0.248 N 
ATOM      5  C   UNL     1      -2.974   2.550  -7.039  0.00  0.00    +0.166 A 
ATOM      6  N   UNL     1      -2.294   2.207  -5.965  0.00  0.00    -0.220 NA
ATOM      7  C   UNL     1      -1.149   1.532  -6.092  0.00  0.00    +0.135 A 
ATOM      8  C   UNL     1      -0.702   1.214  -7.347  0.00  0.00    +0.081 A 
ATOM      9  S   UNL     1      -1.953   1.887  -8.345  0.00  0.00    -0.060 S 
ATOM     10  H   UNL     1      -6.359   4.417  -7.624  0.00  0.00    +0.156 HD
ATOM     11  H   UNL     1      -4.622   3.547  -6.326  0.00  0.00    +0.158 HD
ENDROOT
BRANCH   1  15
ATOM     12  C   UNL     1      -7.401   5.211 -12.165  0.00  0.00    +0.000 A 
ATOM     13  C   UNL     1      -6.721   4.018 -12.004  0.00  0.00    +0.002 A 
ATOM     14  C   UNL     1      -6.215   3.671 -10.767  0.00  0.00    +0.023 A 
ATOM     15  C   UNL     1      -6.388   4.522  -9.684  0.00  0.00    +0.035 A 
ATOM     16  C   UNL     1      -7.075   5.718  -9.848  0.00  0.00    +0.023 A 
ATOM     17  C   UNL     1      -7.575   6.061 -11.088  0.00  0.00    +0.002 A 
ENDBRANCH   1  15
BRANCH   7  18
ATOM     18  C   UNL     1      -0.376   1.140  -4.902  0.00  0.00    +0.263 C 
ATOM     19  O   UNL     1       0.667   0.526  -5.029  0.00  0.00    -0.269 OA
ATOM     20  N   UNL     1      -0.822   1.462  -3.672  0.00  0.00    -0.310 N 
ATOM     21  H   UNL     1      -1.653   1.952  -3.571  0.00  0.00    +0.149 HD
BRANCH  20  22
ATOM     22  C   UNL     1      -0.053   1.073  -2.488  0.00  0.00    +0.108 C 
BRANCH  22  23
ATOM     23  C   UNL     1      -0.775   1.557  -1.229  0.00  0.00    +0.006 C 
ATOM     24  C   UNL     1      -0.038   1.044   0.010  0.00  0.00    +0.005 C 
ATOM     25  C   UNL     1      -0.760   1.528   1.269  0.00  0.00    +0.000 C 
ATOM     26  C   UNL     1      -0.784   3.058   1.287  0.00  0.00    +0.000 C 
ATOM     27  C   UNL     1      -1.520   3.571   0.048  0.00  0.00    +0.000 C 
ATOM     28  C   UNL     1      -0.798   3.087  -1.211  0.00  0.00    +0.005 C 
ENDBRANCH  22  23
ENDBRANCH  20  22
ENDBRANCH   7  18
TORSDOF 4
