REMARK  Name = ZINC10041281
REMARK  13 active torsions:
REMARK  status: ('A' for Active; 'I' for Inactive)
REMARK    1  A    between atoms: C_1  and  C_2
REMARK    2  A    between atoms: C_2  and  O_3
REMARK    3  A    between atoms: O_3  and  C_4
REMARK    4  A    between atoms: C_4  and  C_6
REMARK    5  A    between atoms: C_9  and  C_12
REMARK    6  A    between atoms: C_15  and  C_17
REMARK    7  A    between atoms: N_18  and  N_19
REMARK    8  A    between atoms: C_20  and  C_22
REMARK    9  A    between atoms: C_22  and  C_24
REMARK   10  A    between atoms: C_22  and  N_27
REMARK   11  A    between atoms: C_24  and  C_25
REMARK   12  A    between atoms: C_24  and  C_26
REMARK   13  A    between atoms: C_28  and  C_30
REMARK                            x       y       z     vdW  Elec       q    Type
REMARK                         _______ _______ _______ _____ _____    ______ ____
ROOT
ATOM      1  N   UNL     1       1.315   2.148   2.674  0.00  0.00    -0.205 N 
ATOM      2  C   UNL     1       0.087   1.626   2.486  0.00  0.00    +0.253 C 
ATOM      3  O   UNL     1      -0.367   0.839   3.290  0.00  0.00    -0.272 OA
ATOM      4  H   UNL     1       1.708   2.720   1.996  0.00  0.00    +0.177 HD
ENDROOT
BRANCH   1   6
ATOM      5  C   UNL     1       3.211   2.369   4.030  0.00  0.00    +0.176 C 
ATOM      6  N   UNL     1       2.025   1.865   3.849  0.00  0.00    -0.185 NA
BRANCH   5  10
ATOM      7  C   UNL     1       4.469   1.253   7.232  0.00  0.00    +0.136 A 
ATOM      8  C   UNL     1       5.531   2.012   6.833  0.00  0.00    +0.050 A 
ATOM      9  C   UNL     1       5.210   2.538   5.576  0.00  0.00    +0.051 A 
ATOM     10  C   UNL     1       3.952   2.073   5.258  0.00  0.00    +0.148 A 
ATOM     11  O   UNL     1       3.521   1.302   6.276  0.00  0.00    -0.454 OA
BRANCH   7  15
ATOM     12  C   UNL     1       4.193  -0.886  10.880  0.00  0.00    +0.059 A 
ATOM     13  C   UNL     1       3.135  -0.924   9.965  0.00  0.00    +0.015 A 
ATOM     14  C   UNL     1       3.224  -0.235   8.790  0.00  0.00    +0.012 A 
ATOM     15  C   UNL     1       4.373   0.509   8.500  0.00  0.00    +0.017 A 
ATOM     16  C   UNL     1       5.433   0.542   9.413  0.00  0.00    +0.012 A 
ATOM     17  C   UNL     1       5.342  -0.143  10.590  0.00  0.00    +0.015 A 
BRANCH  12  18
ATOM     18  C   UNL     1       4.097  -1.631  12.149  0.00  0.00    +0.339 C 
ATOM     19  O   UNL     1       3.099  -2.277  12.400  0.00  0.00    -0.245 OA
BRANCH  18  20
ATOM     20  O   UNL     1       5.116  -1.595  13.030  0.00  0.00    -0.461 OA
BRANCH  20  22
ATOM     21  C   UNL     1       6.202  -2.191  15.126  0.00  0.00    +0.048 C 
ATOM     22  C   UNL     1       4.952  -2.352  14.258  0.00  0.00    +0.229 C 
ENDBRANCH  20  22
ENDBRANCH  18  20
ENDBRANCH  12  18
ENDBRANCH   7  15
ENDBRANCH   5  10
ENDBRANCH   1   6
BRANCH   2  23
ATOM     23  C   UNL     1      -0.722   2.019   1.277  0.00  0.00    +0.163 C 
BRANCH  23  24
ATOM     24  N   UNL     1      -2.148   1.850   1.567  0.00  0.00    -0.300 N 
ATOM     25  C   UNL     1      -3.063   2.572   0.892  0.00  0.00    +0.245 C 
ATOM     26  O   UNL     1      -2.706   3.365   0.042  0.00  0.00    -0.270 OA
ATOM     27  H   UNL     1      -2.433   1.218   2.246  0.00  0.00    +0.150 HD
BRANCH  25  28
ATOM     28  C   UNL     1      -4.502   2.401   1.185  0.00  0.00    +0.037 A 
ATOM     29  C   UNL     1      -4.915   1.488   2.156  0.00  0.00    +0.014 A 
ATOM     30  C   UNL     1      -6.259   1.337   2.430  0.00  0.00    +0.021 A 
ATOM     31  C   UNL     1      -7.197   2.081   1.734  0.00  0.00    +0.041 A 
ATOM     32  C   UNL     1      -6.793   2.984   0.765  0.00  0.00    +0.021 A 
ATOM     33  C   UNL     1      -5.453   3.148   0.487  0.00  0.00    +0.014 A 
ATOM     34 CL   UNL     1      -8.887   1.880   2.078  0.00  0.00    -0.084 Cl
ENDBRANCH  25  28
ENDBRANCH  23  24
BRANCH  23  35
ATOM     35  C   UNL     1      -0.333   1.132   0.093  0.00  0.00    +0.012 C 
ATOM     36  C   UNL     1      -1.052   1.620  -1.167  0.00  0.00    +0.009 C 
ATOM     37  C   UNL     1      -0.740  -0.314   0.384  0.00  0.00    +0.009 C 
ENDBRANCH  23  35
ENDBRANCH   2  23
TORSDOF 10
