REMARK  Name = ZINC02791339
REMARK  7 active torsions:
REMARK  status: ('A' for Active; 'I' for Inactive)
REMARK    1  A    between atoms: C_1  and  C_2
REMARK    2  A    between atoms: C_2  and  O_3
REMARK    3  A    between atoms: O_3  and  C_4
REMARK    4  A    between atoms: C_9  and  N_10
REMARK    5  A    between atoms: C_11  and  C_16
REMARK    6  A    between atoms: C_22  and  C_31
REMARK    7  A    between atoms: C_25  and  C_27
REMARK                            x       y       z     vdW  Elec       q    Type
REMARK                         _______ _______ _______ _____ _____    ______ ____
ROOT
ATOM      1  N   UNL     1       1.954  -1.466  -3.425  0.00  0.00    -0.266 N 
ATOM      2  C   UNL     1       3.229  -0.947  -3.463  0.00  0.00    +0.174 A 
ATOM      3  N   UNL     1       3.305  -0.191  -4.534  0.00  0.00    -0.128 NA
ATOM      4  N   UNL     1       2.183  -0.199  -5.160  0.00  0.00    -0.121 NA
ATOM      5  C   UNL     1       1.321  -0.965  -4.534  0.00  0.00    +0.207 A 
ATOM      6  S   UNL     1      -0.341  -1.286  -5.023  0.00  0.00    -0.009 SA
ENDROOT
BRANCH   2   7
ATOM      7  C   UNL     1       4.307  -1.195  -2.483  0.00  0.00    +0.079 A 
ATOM      8  C   UNL     1       4.227  -2.013  -1.333  0.00  0.00    +0.148 A 
ATOM      9  N   UNL     1       5.384  -1.978  -0.723  0.00  0.00    -0.177 NA
ATOM     10  N   UNL     1       6.249  -1.151  -1.437  0.00  0.00    -0.238 N 
ATOM     11  C   UNL     1       5.581  -0.677  -2.520  0.00  0.00    +0.129 A 
ATOM     12  N   UNL     1       6.163   0.181  -3.447  0.00  0.00    -0.326 N 
ATOM     13  C   UNL     1       7.454   0.782  -3.057  0.00  0.00    +0.071 C 
ATOM     14  C   UNL     1       8.321  -0.306  -2.413  0.00  0.00    +0.058 C 
ATOM     15  C   UNL     1       7.644  -0.817  -1.133  0.00  0.00    +0.214 C 
ATOM     16  C   UNL     1       7.212   1.912  -2.054  0.00  0.00    +0.028 C 
ATOM     17  H   UNL     1       5.745   0.374  -4.301  0.00  0.00    +0.148 HD
BRANCH  15  18
ATOM     18  C   UNL     1       8.376  -2.068  -0.643  0.00  0.00    +0.412 C 
ATOM     19  F   UNL     1       8.339  -3.049  -1.640  0.00  0.00    -0.168 F 
ATOM     20  F   UNL     1       9.706  -1.747  -0.354  0.00  0.00    -0.168 F 
ATOM     21  F   UNL     1       7.751  -2.552   0.511  0.00  0.00    -0.168 F 
ENDBRANCH  15  18
ENDBRANCH   2   7
BRANCH   1  27
ATOM     22  C   UNL     1       0.777  -1.811  -1.336  0.00  0.00    +0.144 A 
ATOM     23  C   UNL     1       0.243  -2.669  -0.388  0.00  0.00    +0.048 A 
ATOM     24  C   UNL     1       0.352  -4.037  -0.555  0.00  0.00    +0.004 A 
ATOM     25  C   UNL     1       0.992  -4.553  -1.667  0.00  0.00    +0.002 A 
ATOM     26  C   UNL     1       1.526  -3.704  -2.617  0.00  0.00    +0.030 A 
ATOM     27  C   UNL     1       1.416  -2.330  -2.459  0.00  0.00    +0.092 A 
BRANCH  22  28
ATOM     28  O   UNL     1       0.671  -0.465  -1.174  0.00  0.00    -0.490 OA
BRANCH  28  30
ATOM     29  C   UNL     1      -0.019   1.526   0.010  0.00  0.00    +0.048 C 
ATOM     30  C   UNL     1       0.002  -0.004   0.002  0.00  0.00    +0.226 C 
ENDBRANCH  28  30
ENDBRANCH  22  28
ENDBRANCH   1  27
TORSDOF 5
