REMARK  Name = ZINC20027250
REMARK  12 active torsions:
REMARK  status: ('A' for Active; 'I' for Inactive)
REMARK    1  A    between atoms: C_1  and  C_2
REMARK    2  A    between atoms: C_2  and  C_3
REMARK    3  A    between atoms: C_2  and  O_4
REMARK    4  A    between atoms: O_4  and  C_5
REMARK    5  A    between atoms: C_6  and  O_32
REMARK    6  A    between atoms: C_8  and  C_12
REMARK    7  A    between atoms: N_17  and  C_31
REMARK    8  A    between atoms: C_21  and  C_29
REMARK    9  A    between atoms: C_22  and  N_28
REMARK   10  A    between atoms: C_23  and  C_24
REMARK   11  A    between atoms: C_23  and  C_26
REMARK   12  A    between atoms: O_32  and  C_33
REMARK                            x       y       z     vdW  Elec       q    Type
REMARK                         _______ _______ _______ _____ _____    ______ ____
ROOT
ATOM      1  C   UNL     1       2.448   4.219  -0.001  0.00  0.00    +0.068 C 
ATOM      2  C   UNL     1       2.564   5.011  -1.305  0.00  0.00    +0.044 C 
ATOM      3  C   UNL     1       2.329   4.138  -2.517  0.00  0.00    +0.093 C 
ATOM      4  N   UNL     1       3.586   3.716  -3.141  0.00  0.00    -0.301 NA
ATOM      5  C   UNL     1       4.358   4.893  -3.576  0.00  0.00    +0.111 C 
ATOM      6  C   UNL     1       4.713   5.689  -2.345  0.00  0.00    -0.007 C 
ATOM      7  C   UNL     1       3.893   5.710  -1.311  0.00  0.00    -0.026 C 
ATOM      8  C   UNL     1       4.299   6.404  -0.063  0.00  0.00    +0.074 C 
ATOM      9  C   UNL     1       3.631   6.142   1.090  0.00  0.00    +0.054 C 
ATOM     10  C   UNL     1       2.472   5.195   1.176  0.00  0.00    +0.188 C 
ATOM     11  C   UNL     1       3.335   2.805  -4.267  0.00  0.00    +0.105 C 
ENDROOT
BRANCH   1  15
ATOM     12  C   UNL     1      -1.229   2.034   0.018  0.00  0.00    +0.180 A 
ATOM     13  C   UNL     1      -0.051   1.419   0.432  0.00  0.00    +0.163 A 
ATOM     14  C   UNL     1       1.138   2.130   0.424  0.00  0.00    +0.053 A 
ATOM     15  C   UNL     1       1.153   3.449   0.009  0.00  0.00    -0.036 A 
ATOM     16  C   UNL     1      -0.017   4.062  -0.398  0.00  0.00    +0.028 A 
ATOM     17  C   UNL     1      -1.208   3.358  -0.392  0.00  0.00    +0.086 A 
ATOM     18 CL   UNL     1      -2.676   4.132  -0.903  0.00  0.00    -0.080 Cl
BRANCH  13  19
ATOM     19  O   UNL     1      -0.067   0.122   0.839  0.00  0.00    -0.491 OA
ATOM     20  C   UNL     1       1.180  -0.446   1.245  0.00  0.00    +0.277 C 
ENDBRANCH  13  19
BRANCH  12  21
ATOM     21  O   UNL     1      -2.398   1.339   0.019  0.00  0.00    -0.484 OA
BRANCH  21  23
ATOM     22  C   UNL     1      -4.150   2.566   1.144  0.00  0.00    +0.051 C 
ATOM     23  C   UNL     1      -3.179   1.386   1.215  0.00  0.00    +0.168 C 
ATOM     24  C   UNL     1      -3.968   0.083   1.360  0.00  0.00    +0.051 C 
ENDBRANCH  21  23
ENDBRANCH  12  21
ENDBRANCH   1  15
BRANCH   9  25
ATOM     25  N   UNL     1       4.036   6.774   2.231  0.00  0.00    -0.358 N 
ATOM     26  H   UNL     1       3.515   6.583   3.181  0.00  0.00    +0.142 HD
ATOM     27  H   UNL     1       4.884   7.475   2.200  0.00  0.00    +0.142 HD
ENDBRANCH   9  25
BRANCH  10  28
ATOM     28  C   UNL     1       1.220   5.969   1.183  0.00  0.00    +0.091 C 
ATOM     29  N   UNL     1       0.253   6.566   1.188  0.00  0.00    -0.194 NA
ENDBRANCH  10  28
BRANCH  10  30
ATOM     30  C   UNL     1       2.568   4.432   2.431  0.00  0.00    +0.091 C 
ATOM     31  N   UNL     1       2.643   3.842   3.399  0.00  0.00    -0.194 NA
ENDBRANCH  10  30
BRANCH   8  32
ATOM     32  C   UNL     1       5.383   7.339  -0.074  0.00  0.00    +0.101 C 
ATOM     33  N   UNL     1       6.243   8.082  -0.083  0.00  0.00    -0.191 NA
ENDBRANCH   8  32
TORSDOF 8
