REMARK  Name = ZINC08133536
REMARK  7 active torsions:
REMARK  status: ('A' for Active; 'I' for Inactive)
REMARK    1  A    between atoms: C_1  and  C_2
REMARK    2  A    between atoms: C_2  and  C_20
REMARK    3  A    between atoms: N_5  and  C_9
REMARK    4  A    between atoms: C_9  and  C_10
REMARK    5  A    between atoms: N_12  and  C_13
REMARK    6  A    between atoms: C_20  and  C_21
REMARK    7  A    between atoms: C_21  and  C_22
REMARK                            x       y       z     vdW  Elec       q    Type
REMARK                         _______ _______ _______ _____ _____    ______ ____
ROOT
ATOM      1  C   UNL     1      -0.013   1.086   0.008  0.00  0.00    +0.041 C 
ATOM      2  C   UNL     1      -0.729   1.579   1.267  0.00  0.00    +0.110 C 
ATOM      3  C   UNL     1      -0.026   1.077   2.512  0.00  0.00    +0.247 C 
ATOM      4  O   UNL     1       1.113   1.312   2.855  0.00  0.00    -0.273 OA
ATOM      5  N   UNL     1      -0.929   0.314   3.158  0.00  0.00    -0.215 N 
ATOM      6  C   UNL     1      -2.094   0.265   2.501  0.00  0.00    +0.310 C 
ATOM      7  O   UNL     1      -3.062  -0.361   2.886  0.00  0.00    -0.252 OA
ATOM      8  N   UNL     1      -2.073   0.985   1.365  0.00  0.00    -0.285 N 
ATOM      9  H   UNL     1      -2.802   1.093   0.734  0.00  0.00    +0.151 HD
ENDROOT
BRANCH   5  10
ATOM     10  C   UNL     1      -0.669  -0.377   4.424  0.00  0.00    +0.213 C 
BRANCH  10  11
ATOM     11  C   UNL     1      -1.033   0.528   5.573  0.00  0.00    +0.231 C 
ATOM     12  O   UNL     1      -1.466   1.640   5.356  0.00  0.00    -0.274 OA
ATOM     13  N   UNL     1      -0.876   0.102   6.842  0.00  0.00    -0.311 N 
ATOM     14  H   UNL     1      -0.529  -0.788   7.015  0.00  0.00    +0.149 HD
BRANCH  13  15
ATOM     15  C   UNL     1      -1.229   0.981   7.959  0.00  0.00    +0.073 C 
ATOM     16  C   UNL     1      -0.059   1.950   8.221  0.00  0.00    +0.022 C 
ATOM     17  C   UNL     1      -0.584   3.141   8.976  0.00  0.00    +0.002 C 
ATOM     18  C   UNL     1      -0.425   2.990  10.501  0.00  0.00    +0.000 C 
ATOM     19  C   UNL     1      -0.769   1.573  11.000  0.00  0.00    +0.000 C 
ATOM     20  C   UNL     1      -1.992   1.008  10.331  0.00  0.00    +0.002 C 
ATOM     21  C   UNL     1      -1.544   0.163   9.121  0.00  0.00    +0.022 C 
ENDBRANCH  13  15
ENDBRANCH  10  11
ENDBRANCH   5  10
BRANCH   2  22
ATOM     22  C   UNL     1      -0.810   3.107   1.274  0.00  0.00    +0.039 C 
BRANCH  22  23
ATOM     23  C   UNL     1      -1.675   3.577   0.103  0.00  0.00    +0.037 C 
BRANCH  23  24
ATOM     24  C   UNL     1      -1.755   5.082   0.110  0.00  0.00    -0.047 A 
ATOM     25  C   UNL     1      -2.767   5.717   0.805  0.00  0.00    +0.003 A 
ATOM     26  C   UNL     1      -2.838   7.098   0.816  0.00  0.00    +0.000 A 
ATOM     27  C   UNL     1      -1.902   7.843   0.123  0.00  0.00    +0.000 A 
ATOM     28  C   UNL     1      -0.893   7.208  -0.577  0.00  0.00    +0.000 A 
ATOM     29  C   UNL     1      -0.819   5.827  -0.583  0.00  0.00    +0.003 A 
ENDBRANCH  23  24
ENDBRANCH  22  23
ENDBRANCH   2  22
TORSDOF 6
