REMARK  Name = ZINC63689269
REMARK  6 active torsions:
REMARK  status: ('A' for Active; 'I' for Inactive)
REMARK    1  A    between atoms: C_1  and  C_2
REMARK    2  A    between atoms: C_6  and  N_11
REMARK    3  A    between atoms: C_12  and  C_14
REMARK    4  A    between atoms: C_19  and  N_20
REMARK    5  A    between atoms: C_21  and  C_23
REMARK    6  A    between atoms: C_25  and  C_26
REMARK                            x       y       z     vdW  Elec       q    Type
REMARK                         _______ _______ _______ _____ _____    ______ ____
ROOT
ATOM      1  C   UNL     1      -1.366  -8.130  -0.240  0.00  0.00    +0.061 A 
ATOM      2  C   UNL     1      -2.760  -8.146  -0.333  0.00  0.00    +0.053 A 
ATOM      3  C   UNL     1      -3.429  -9.350  -0.422  0.00  0.00    +0.124 A 
ATOM      4  C   UNL     1      -2.724 -10.544  -0.420  0.00  0.00    +0.040 A 
ATOM      5  C   UNL     1      -1.347 -10.542  -0.329  0.00  0.00    +0.027 A 
ATOM      6  C   UNL     1      -0.657  -9.340  -0.244  0.00  0.00    +0.046 A 
ATOM      7  F   UNL     1      -4.777  -9.365  -0.512  0.00  0.00    -0.205 F 
ENDROOT
BRANCH   1   9
ATOM      8  N   UNL     1      -1.332  -5.694  -0.033  0.00  0.00    -0.281 N 
ATOM      9  C   UNL     1      -0.644  -6.847  -0.144  0.00  0.00    +0.250 C 
ATOM     10  O   UNL     1       0.572  -6.831  -0.165  0.00  0.00    -0.270 OA
ATOM     11  H   UNL     1      -2.298  -5.711   0.054  0.00  0.00    +0.155 HD
BRANCH   8  17
ATOM     12  C   UNL     1       0.207   1.346  -1.243  0.00  0.00    +0.109 C 
ATOM     13  C   UNL     1       0.150  -0.112  -0.865  0.00  0.00    +0.194 A 
ATOM     14  N   UNL     1      -0.842  -0.908  -1.128  0.00  0.00    -0.213 NA
ATOM     15  C   UNL     1      -0.552  -2.146  -0.642  0.00  0.00    +0.111 A 
ATOM     16  C   UNL     1      -1.233  -3.364  -0.635  0.00  0.00    +0.055 A 
ATOM     17  C   UNL     1      -0.652  -4.470  -0.042  0.00  0.00    +0.036 A 
ATOM     18  C   UNL     1       0.606  -4.371   0.547  0.00  0.00    +0.027 A 
ATOM     19  C   UNL     1       1.285  -3.171   0.545  0.00  0.00    +0.050 A 
ATOM     20  C   UNL     1       0.715  -2.054  -0.046  0.00  0.00    +0.155 A 
ATOM     21  O   UNL     1       1.118  -0.774  -0.213  0.00  0.00    -0.440 OA
ENDBRANCH   8  17
ENDBRANCH   1   9
BRANCH   6  22
ATOM     22  N   UNL     1       0.734  -9.336  -0.158  0.00  0.00    -0.285 N 
ATOM     23  C   UNL     1       1.443 -10.372  -0.649  0.00  0.00    +0.221 C 
ATOM     24  O   UNL     1       0.880 -11.259  -1.255  0.00  0.00    -0.275 OA
ATOM     25  H   UNL     1       1.192  -8.587   0.255  0.00  0.00    +0.155 HD
BRANCH  23  26
ATOM     26  C   UNL     1       2.935 -10.428  -0.444  0.00  0.00    +0.078 C 
ATOM     27  C   UNL     1       3.824 -10.253  -1.677  0.00  0.00    +0.017 C 
ATOM     28  C   UNL     1       3.683 -11.630  -1.025  0.00  0.00    -0.002 C 
ATOM     29  C   UNL     1       4.880 -12.165  -0.238  0.00  0.00    +0.008 C 
ENDBRANCH  23  26
ENDBRANCH   6  22
TORSDOF 4
