REMARK  Name = ZINC16295688
REMARK  9 active torsions:
REMARK  status: ('A' for Active; 'I' for Inactive)
REMARK    1  A    between atoms: C_1  and  C_2
REMARK    2  A    between atoms: C_2  and  C_4
REMARK    3  A    between atoms: C_2  and  S_16
REMARK    4  A    between atoms: N_6  and  C_7
REMARK    5  A    between atoms: C_12  and  C_13
REMARK    6  A    between atoms: C_13  and  C_14
REMARK    7  A    between atoms: C_13  and  C_15
REMARK    8  A    between atoms: S_16  and  C_17
REMARK    9  A    between atoms: N_21  and  C_22
REMARK                            x       y       z     vdW  Elec       q    Type
REMARK                         _______ _______ _______ _____ _____    ______ ____
ROOT
ATOM      1  C   UNL     1      -0.013   1.543   0.028  0.00  0.00    +0.029 C 
ATOM      2  C   UNL     1       0.004   0.013   0.007  0.00  0.00    +0.137 C 
ENDROOT
BRANCH   2   3
ATOM      3  C   UNL     1       0.732  -0.498   1.224  0.00  0.00    +0.230 C 
ATOM      4  O   UNL     1       0.105  -0.892   2.184  0.00  0.00    -0.274 OA
ATOM      5  N   UNL     1       2.079  -0.516   1.244  0.00  0.00    -0.284 N 
ATOM      6  H   UNL     1       2.580  -0.277   0.449  0.00  0.00    +0.155 HD
BRANCH   5   7
ATOM      7  C   UNL     1       2.756  -0.881   2.413  0.00  0.00    +0.037 A 
ATOM      8  C   UNL     1       2.143  -0.726   3.650  0.00  0.00    +0.023 A 
ATOM      9  C   UNL     1       2.814  -1.087   4.801  0.00  0.00    +0.002 A 
ATOM     10  C   UNL     1       4.095  -1.603   4.725  0.00  0.00    +0.000 A 
ATOM     11  C   UNL     1       4.708  -1.758   3.495  0.00  0.00    +0.006 A 
ATOM     12  C   UNL     1       4.040  -1.405   2.339  0.00  0.00    -0.024 A 
BRANCH  12  13
ATOM     13  C   UNL     1       4.707  -1.582   0.999  0.00  0.00    +0.015 C 
ATOM     14  C   UNL     1       6.053  -0.854   0.999  0.00  0.00    +0.012 C 
ATOM     15  C   UNL     1       4.932  -3.071   0.734  0.00  0.00    +0.012 C 
ENDBRANCH  12  13
ENDBRANCH   5   7
ENDBRANCH   2   3
BRANCH   2  16
ATOM     16  S   UNL     1      -1.699  -0.611   0.015  0.00  0.00    -0.072 S 
BRANCH  16  17
ATOM     17  C   UNL     1      -2.363  -0.058  -1.520  0.00  0.00    +0.210 A 
ATOM     18  N   UNL     1      -1.732   0.640  -2.439  0.00  0.00    -0.101 NA
ATOM     19  N   UNL     1      -2.506   0.877  -3.436  0.00  0.00    -0.022 NA
ATOM     20  N   UNL     1      -3.668   0.357  -3.234  0.00  0.00    -0.043 NA
ATOM     21  N   UNL     1      -3.618  -0.277  -1.980  0.00  0.00    -0.217 N 
BRANCH  21  22
ATOM     22  C   UNL     1      -4.694  -1.014  -1.313  0.00  0.00    +0.112 C 
ATOM     23  C   UNL     1      -5.120  -2.196  -2.186  0.00  0.00    +0.027 C 
ATOM     24  C   UNL     1      -6.244  -2.966  -1.489  0.00  0.00    +0.002 C 
ATOM     25  C   UNL     1      -7.439  -2.037  -1.269  0.00  0.00    +0.000 C 
ATOM     26  C   UNL     1      -7.012  -0.855  -0.396  0.00  0.00    +0.002 C 
ATOM     27  C   UNL     1      -5.889  -0.085  -1.093  0.00  0.00    +0.027 C 
ENDBRANCH  21  22
ENDBRANCH  16  17
ENDBRANCH   2  16
TORSDOF 6
