REMARK  Name = ZINC20290926
REMARK  10 active torsions:
REMARK  status: ('A' for Active; 'I' for Inactive)
REMARK    1  A    between atoms: C_1  and  C_2
REMARK    2  A    between atoms: C_2  and  C_4
REMARK    3  A    between atoms: C_7  and  N_10
REMARK    4  A    between atoms: C_11  and  C_13
REMARK    5  A    between atoms: C_13  and  C_14
REMARK    6  A    between atoms: C_14  and  S_15
REMARK    7  A    between atoms: S_15  and  C_16
REMARK    8  A    between atoms: C_19  and  C_27
REMARK    9  A    between atoms: N_20  and  C_21
REMARK   10  A    between atoms: C_31  and  N_33
REMARK                            x       y       z     vdW  Elec       q    Type
REMARK                         _______ _______ _______ _____ _____    ______ ____
ROOT
ATOM      1  C   UNL     1      -6.872  -9.090  -0.524  0.00  0.00    +0.196 A 
ATOM      2  N   UNL     1      -5.636  -9.537  -0.509  0.00  0.00    -0.122 NA
ATOM      3  N   UNL     1      -5.627 -10.818  -0.610  0.00  0.00    -0.128 NA
ATOM      4  C   UNL     1      -6.857 -11.270  -0.697  0.00  0.00    +0.169 A 
ATOM      5  N   UNL     1      -7.694 -10.178  -0.639  0.00  0.00    -0.270 N 
ENDROOT
BRANCH   5   6
ATOM      6  C   UNL     1      -9.095 -10.180  -0.688  0.00  0.00    +0.051 A 
ATOM      7  C   UNL     1      -9.827 -10.767   0.335  0.00  0.00    +0.026 A 
ATOM      8  C   UNL     1     -11.207 -10.767   0.284  0.00  0.00    +0.002 A 
ATOM      9  C   UNL     1     -11.860 -10.184  -0.786  0.00  0.00    +0.000 A 
ATOM     10  C   UNL     1     -11.134  -9.599  -1.808  0.00  0.00    +0.002 A 
ATOM     11  C   UNL     1      -9.754  -9.591  -1.759  0.00  0.00    +0.026 A 
ENDBRANCH   5   6
BRANCH   4  12
ATOM     12  C   UNL     1      -7.265 -12.685  -0.827  0.00  0.00    +0.022 A 
ATOM     13  C   UNL     1      -8.564 -13.006  -1.225  0.00  0.00    +0.012 A 
ATOM     14  C   UNL     1      -8.939 -14.328  -1.344  0.00  0.00    +0.003 A 
ATOM     15  C   UNL     1      -8.031 -15.335  -1.069  0.00  0.00    +0.033 A 
ATOM     16  C   UNL     1      -6.742 -15.024  -0.673  0.00  0.00    +0.127 A 
ATOM     17  C   UNL     1      -6.352 -13.706  -0.557  0.00  0.00    +0.044 A 
BRANCH  16  18
ATOM     18  N   UNL     1      -5.778 -16.108  -0.380  0.00  0.00    +0.056 N 
ATOM     19  O   UNL     1      -6.116 -17.264  -0.487  0.00  0.00    -0.126 OA
ATOM     20  O   UNL     1      -4.651 -15.837  -0.034  0.00  0.00    -0.126 OA
ENDBRANCH  16  18
ENDBRANCH   4  12
BRANCH   1  21
ATOM     21  S   UNL     1      -7.377  -7.406  -0.412  0.00  0.00    -0.085 S 
BRANCH  21  22
ATOM     22  C   UNL     1      -5.818  -6.488  -0.284  0.00  0.00    +0.086 C 
BRANCH  22  23
ATOM     23  C   UNL     1      -6.114  -4.991  -0.178  0.00  0.00    +0.107 C 
BRANCH  23  25
ATOM     24  N   UNL     1      -4.834  -2.885   0.031  0.00  0.00    -0.285 N 
ATOM     25  C   UNL     1      -4.819  -4.228  -0.073  0.00  0.00    +0.218 C 
ATOM     26  O   UNL     1      -3.762  -4.824  -0.081  0.00  0.00    -0.275 OA
ATOM     27  H   UNL     1      -5.678  -2.414   0.115  0.00  0.00    +0.155 HD
BRANCH  24  31
ATOM     28  C   UNL     1      -1.260  -0.754  -0.007  0.00  0.00    +0.017 A 
ATOM     29  C   UNL     1      -1.388  -1.926  -0.763  0.00  0.00    +0.013 A 
ATOM     30  C   UNL     1      -2.567  -2.625  -0.748  0.00  0.00    +0.024 A 
ATOM     31  C   UNL     1      -3.637  -2.171   0.018  0.00  0.00    +0.033 A 
ATOM     32  C   UNL     1      -3.515  -1.006   0.771  0.00  0.00    +0.024 A 
ATOM     33  C   UNL     1      -2.338  -0.304   0.766  0.00  0.00    +0.013 A 
BRANCH  28  35
ATOM     34  C   UNL     1       1.159  -0.489  -0.854  0.00  0.00    +0.091 C 
ATOM     35  C   UNL     1       0.001  -0.003  -0.021  0.00  0.00    +0.160 C 
ATOM     36  O   UNL     1       0.111   1.010   0.639  0.00  0.00    -0.292 OA
ENDBRANCH  28  35
ENDBRANCH  24  31
ENDBRANCH  23  25
ENDBRANCH  22  23
ENDBRANCH  21  22
ENDBRANCH   1  21
TORSDOF 9
