REMARK  Name = ZINC02140430
REMARK  7 active torsions:
REMARK  status: ('A' for Active; 'I' for Inactive)
REMARK    1  A    between atoms: C_3  and  C_10
REMARK    2  A    between atoms: C_5  and  N_7
REMARK    3  A    between atoms: N_12  and  C_13
REMARK    4  A    between atoms: C_13  and  C_15
REMARK    5  A    between atoms: C_13  and  O_19
REMARK    6  A    between atoms: O_19  and  C_20
REMARK    7  A    between atoms: C_20  and  C_21
REMARK                            x       y       z     vdW  Elec       q    Type
REMARK                         _______ _______ _______ _____ _____    ______ ____
ROOT
ATOM      1  C   UNL     1       3.546   1.343   3.648  0.00  0.00    +0.257 C 
ENDROOT
BRANCH   1   4
ATOM      2  C   UNL     1       3.654   3.767   3.422  0.00  0.00    +0.246 C 
ATOM      3  O   UNL     1       3.660   3.625   2.215  0.00  0.00    -0.270 OA
ATOM      4  N   UNL     1       3.598   2.688   4.228  0.00  0.00    -0.283 N 
ATOM      5  H   UNL     1       3.593   2.801   5.191  0.00  0.00    +0.152 HD
BRANCH   2   8
ATOM      6  C   UNL     1       3.750   6.559   5.932  0.00  0.00    +0.003 A 
ATOM      7  C   UNL     1       3.700   5.290   5.393  0.00  0.00    +0.013 A 
ATOM      8  C   UNL     1       3.707   5.124   4.007  0.00  0.00    +0.039 A 
ATOM      9  C   UNL     1       3.771   6.244   3.176  0.00  0.00    +0.045 A 
ATOM     10  C   UNL     1       3.815   7.507   3.728  0.00  0.00    +0.127 A 
ATOM     11  C   UNL     1       3.808   7.665   5.103  0.00  0.00    +0.033 A 
BRANCH  10  12
ATOM     12  N   UNL     1       3.877   8.696   2.848  0.00  0.00    +0.056 N 
ATOM     13  O   UNL     1       3.921   9.812   3.335  0.00  0.00    -0.126 OA
ATOM     14  O   UNL     1       3.884   8.558   1.638  0.00  0.00    -0.126 OA
ENDBRANCH  10  12
ENDBRANCH   2   8
ENDBRANCH   1   4
BRANCH   1  15
ATOM     15  C   UNL     1       4.322   0.373   4.540  0.00  0.00    +0.233 C 
ATOM     16 CL   UNL     1       4.257  -1.282   3.826  0.00  0.00    -0.079 Cl
ATOM     17 CL   UNL     1       6.039   0.909   4.659  0.00  0.00    -0.079 Cl
ATOM     18 CL   UNL     1       3.585   0.347   6.185  0.00  0.00    -0.079 Cl
ENDBRANCH   1  15
BRANCH   1  19
ATOM     19  O   UNL     1       2.184   0.919   3.553  0.00  0.00    -0.354 OA
BRANCH  19  20
ATOM     20  C   UNL     1       1.454   1.540   2.494  0.00  0.00    +0.164 C 
BRANCH  20  21
ATOM     21  C   UNL     1       0.018   1.013   2.487  0.00  0.00    +0.001 C 
ATOM     22  C   UNL     1      -0.688   1.445   3.774  0.00  0.00    +0.002 C 
ATOM     23  C   UNL     1      -2.137   0.949   3.729  0.00  0.00    -0.018 C 
ATOM     24  C   UNL     1      -2.822   1.540   2.497  0.00  0.00    -0.078 C 
ATOM     25  C   UNL     1      -0.727   1.578   1.271  0.00  0.00    -0.063 C 
ATOM     26  C   UNL     1      -0.013   1.086   0.008  0.00  0.00    -0.015 C 
ATOM     27  C   UNL     1      -0.749   1.591  -1.234  0.00  0.00    -0.003 C 
ATOM     28  C   UNL     1      -2.197   1.092  -1.182  0.00  0.00    -0.019 C 
ATOM     29  C   UNL     1      -2.852   1.609   0.098  0.00  0.00    -0.078 C 
ATOM     30  N   UNL     1      -2.130   1.094   1.274  0.00  0.00    +0.382 N 
ATOM     31  H   UNL     1      -2.127   0.068   1.243  0.00  0.00    -0.081 HD
ENDBRANCH  20  21
ENDBRANCH  19  20
ENDBRANCH   1  19
TORSDOF 7
