REMARK  Name = ZINC49749996
REMARK  8 active torsions:
REMARK  status: ('A' for Active; 'I' for Inactive)
REMARK    1  A    between atoms: C_1  and  C_2
REMARK    2  A    between atoms: C_2  and  C_3
REMARK    3  A    between atoms: C_11  and  S_12
REMARK    4  A    between atoms: S_12  and  C_13
REMARK    5  A    between atoms: C_13  and  C_14
REMARK    6  A    between atoms: N_16  and  C_17
REMARK    7  A    between atoms: C_19  and  N_24
REMARK    8  A    between atoms: C_22  and  O_23
REMARK                            x       y       z     vdW  Elec       q    Type
REMARK                         _______ _______ _______ _____ _____    ______ ____
ROOT
ATOM      1  C   UNL     1      -2.050  -2.116   7.791  0.00  0.00    +0.228 C 
ATOM      2  O   UNL     1      -3.019  -1.757   7.156  0.00  0.00    -0.275 OA
ATOM      3  N   UNL     1      -2.188  -2.489   9.079  0.00  0.00    -0.282 N 
ATOM      4  H   UNL     1      -1.426  -2.837   9.568  0.00  0.00    +0.155 HD
ENDROOT
BRANCH   3   5
ATOM      5  C   UNL     1      -3.433  -2.374   9.712  0.00  0.00    +0.078 A 
ATOM      6  C   UNL     1      -4.601  -2.586   8.994  0.00  0.00    +0.059 A 
ATOM      7  C   UNL     1      -5.827  -2.472   9.620  0.00  0.00    +0.128 A 
ATOM      8  C   UNL     1      -5.894  -2.146  10.962  0.00  0.00    +0.036 A 
ATOM      9  C   UNL     1      -4.735  -1.932  11.684  0.00  0.00    +0.049 A 
ATOM     10  C   UNL     1      -3.501  -2.051  11.065  0.00  0.00    +0.138 A 
BRANCH   7  11
ATOM     11  N   UNL     1      -7.072  -2.698   8.852  0.00  0.00    +0.056 N 
ATOM     12  O   UNL     1      -7.016  -2.983   7.679  0.00  0.00    -0.126 OA
ATOM     13  O   UNL     1      -8.146  -2.598   9.399  0.00  0.00    -0.126 OA
ENDBRANCH   7  11
BRANCH  10  14
ATOM     14  O   UNL     1      -2.360  -1.847  11.776  0.00  0.00    -0.505 OA
ATOM     15  H   UNL     1      -2.055  -0.930  11.775  0.00  0.00    +0.292 HD
ENDBRANCH  10  14
ENDBRANCH   3   5
BRANCH   1  16
ATOM     16  C   UNL     1      -0.691  -2.145   7.140  0.00  0.00    +0.171 C 
BRANCH  16  17
ATOM     17  S   UNL     1      -0.834  -1.592   5.419  0.00  0.00    -0.096 S 
BRANCH  17  26
ATOM     18  C   UNL     1       0.718  -0.558   1.204  0.00  0.00    -0.008 A 
ATOM     19  C   UNL     1       0.214  -0.845   2.414  0.00  0.00    +0.024 A 
ATOM     20  C   UNL     1       1.104  -1.316   3.460  0.00  0.00    +0.040 A 
ATOM     21  C   UNL     1       2.460  -1.428   3.080  0.00  0.00    +0.113 A 
ATOM     22  S   UNL     1       2.456  -0.914   1.383  0.00  0.00    -0.074 S 
ATOM     23  N   UNL     1       3.379  -1.843   3.929  0.00  0.00    -0.228 NA
ATOM     24  C   UNL     1       3.050  -2.168   5.164  0.00  0.00    +0.223 A 
ATOM     25  N   UNL     1       1.802  -2.088   5.588  0.00  0.00    -0.229 NA
ATOM     26  C   UNL     1       0.816  -1.681   4.804  0.00  0.00    +0.109 A 
BRANCH  18  28
ATOM     27  C   UNL     1      -0.023   1.470  -0.015  0.00  0.00    +0.009 C 
ATOM     28  C   UNL     1      -0.012  -0.060  -0.016  0.00  0.00    +0.039 C 
ENDBRANCH  18  28
ENDBRANCH  17  26
ENDBRANCH  16  17
ENDBRANCH   1  16
TORSDOF 7
