REMARK  Name = ZINC39624105
REMARK  8 active torsions:
REMARK  status: ('A' for Active; 'I' for Inactive)
REMARK    1  A    between atoms: C_1  and  C_2
REMARK    2  A    between atoms: C_2  and  C_3
REMARK    3  A    between atoms: C_3  and  C_4
REMARK    4  A    between atoms: C_4  and  N_5
REMARK    5  A    between atoms: C_6  and  C_8
REMARK    6  A    between atoms: C_19  and  C_21
REMARK    7  A    between atoms: C_24  and  O_28
REMARK    8  A    between atoms: O_28  and  C_29
REMARK                            x       y       z     vdW  Elec       q    Type
REMARK                         _______ _______ _______ _____ _____    ______ ____
ROOT
ATOM      1  C   UNL     1      -5.112  -4.399   0.045  0.00  0.00    +0.100 C 
ATOM      2  C   UNL     1      -5.568  -3.799  -1.304  0.00  0.00    +0.121 C 
ATOM      3  N   UNL     1      -5.369  -4.892  -2.285  0.00  0.00    -0.296 N 
ATOM      4  C   UNL     1      -5.788  -6.117  -1.563  0.00  0.00    +0.115 C 
ATOM      5  C   UNL     1      -5.262  -5.920  -0.128  0.00  0.00    -0.004 C 
ATOM      6  C   UNL     1      -6.264  -6.470   0.883  0.00  0.00    -0.010 C 
ATOM      7  C   UNL     1      -6.352  -7.991   0.731  0.00  0.00    -0.082 C 
ATOM      8  N   UNL     1      -5.027  -8.585   0.951  0.00  0.00    +0.379 N 
ATOM      9  C   UNL     1      -4.093  -8.121  -0.081  0.00  0.00    -0.082 C 
ATOM     10  C   UNL     1      -3.909  -6.606   0.036  0.00  0.00    -0.010 C 
ATOM     11  C   UNL     1      -4.911  -4.794  -3.549  0.00  0.00    +0.247 C 
ATOM     12  O   UNL     1      -4.486  -3.732  -3.961  0.00  0.00    -0.270 OA
ATOM     13  H   UNL     1      -4.685  -8.311   1.860  0.00  0.00    -0.086 HD
ATOM     14  H   UNL     1      -5.100  -9.590   0.911  0.00  0.00    -0.086 HD
ENDROOT
BRANCH  11  15
ATOM     15  C   UNL     1      -4.924  -5.976  -4.433  0.00  0.00    +0.040 A 
ATOM     16  C   UNL     1      -5.778  -7.048  -4.156  0.00  0.00    +0.036 A 
ATOM     17  C   UNL     1      -5.788  -8.150  -4.984  0.00  0.00    +0.085 A 
ATOM     18  C   UNL     1      -4.949  -8.197  -6.092  0.00  0.00    +0.157 A 
ATOM     19  C   UNL     1      -4.098  -7.133  -6.370  0.00  0.00    +0.085 A 
ATOM     20  C   UNL     1      -4.088  -6.025  -5.551  0.00  0.00    +0.036 A 
ATOM     21 CL   UNL     1      -3.053  -7.198  -7.755  0.00  0.00    -0.080 Cl
ATOM     22 CL   UNL     1      -6.848  -9.481  -4.641  0.00  0.00    -0.080 Cl
BRANCH  18  23
ATOM     23  O   UNL     1      -4.961  -9.285  -6.904  0.00  0.00    -0.492 OA
ATOM     24  C   UNL     1      -5.875  -9.265  -8.002  0.00  0.00    +0.277 C 
ENDBRANCH  18  23
ENDBRANCH  11  15
BRANCH   1  26
ATOM     25  N   UNL     1      -3.213  -4.027   1.586  0.00  0.00    -0.315 N 
ATOM     26  C   UNL     1      -3.674  -4.041   0.319  0.00  0.00    +0.218 C 
ATOM     27  O   UNL     1      -2.932  -3.765  -0.600  0.00  0.00    -0.275 OA
ATOM     28  H   UNL     1      -3.807  -4.247   2.321  0.00  0.00    +0.149 HD
BRANCH  25  29
ATOM     29  C   UNL     1      -1.815  -3.679   1.852  0.00  0.00    +0.104 C 
BRANCH  29  30
ATOM     30  C   UNL     1      -1.553  -3.738   3.358  0.00  0.00    +0.018 C 
BRANCH  30  32
ATOM     31  C   UNL     1       0.169  -3.434   5.143  0.00  0.00    +0.004 C 
ATOM     32  C   UNL     1      -0.093  -3.375   3.637  0.00  0.00    -0.002 C 
ENDBRANCH  30  32
ENDBRANCH  29  30
ENDBRANCH  25  29
ENDBRANCH   1  26
TORSDOF 6
