REMARK  Name = ZINC08549123
REMARK  5 active torsions:
REMARK  status: ('A' for Active; 'I' for Inactive)
REMARK    1  A    between atoms: C_1  and  C_2
REMARK    2  A    between atoms: C_4  and  C_13
REMARK    3  A    between atoms: C_9  and  C_12
REMARK    4  A    between atoms: C_14  and  C_24
REMARK    5  A    between atoms: N_16  and  C_18
REMARK                            x       y       z     vdW  Elec       q    Type
REMARK                         _______ _______ _______ _____ _____    ______ ____
ROOT
ATOM      1  C   UNL     1       3.693  -0.716  -0.067  0.00  0.00    +0.103 A 
ATOM      2  C   UNL     1       3.989  -1.991   0.599  0.00  0.00    +0.060 A 
ATOM      3  C   UNL     1       5.305  -2.291   0.294  0.00  0.00    +0.126 A 
ATOM      4  N   UNL     1       5.785  -1.301  -0.476  0.00  0.00    -0.239 N 
ATOM      5  N   UNL     1       4.788  -0.344  -0.689  0.00  0.00    -0.166 NA
ENDROOT
BRANCH   1   9
ATOM      6  C   UNL     1      -1.295  -0.771   0.019  0.00  0.00    +0.047 C 
ATOM      7  C   UNL     1       0.002  -0.004   0.002  0.00  0.00    -0.008 A 
ATOM      8  C   UNL     1       1.199  -0.685  -0.021  0.00  0.00    +0.017 A 
ATOM      9  C   UNL     1       2.404   0.016  -0.037  0.00  0.00    +0.004 A 
ATOM     10  C   UNL     1       2.389   1.411  -0.025  0.00  0.00    +0.017 A 
ATOM     11  C   UNL     1       1.189   2.082   0.002  0.00  0.00    -0.001 A 
ATOM     12  C   UNL     1      -0.017   1.390   0.010  0.00  0.00    +0.127 A 
ATOM     13  O   UNL     1      -1.075   2.246   0.014  0.00  0.00    -0.488 OA
ATOM     14  C   UNL     1      -0.636   3.540   0.460  0.00  0.00    +0.175 C 
ATOM     15  C   UNL     1       0.852   3.561   0.038  0.00  0.00    +0.083 C 
ATOM     16  C   UNL     1      -0.770   3.664   1.979  0.00  0.00    +0.052 C 
ENDBRANCH   1   9
BRANCH   4  17
ATOM     17  C   UNL     1       7.087  -1.236  -0.988  0.00  0.00    +0.065 A 
ATOM     18  C   UNL     1       7.997  -2.246  -0.705  0.00  0.00    +0.028 A 
ATOM     19  C   UNL     1       9.278  -2.182  -1.216  0.00  0.00    +0.002 A 
ATOM     20  C   UNL     1       9.659  -1.109  -2.000  0.00  0.00    +0.000 A 
ATOM     21  C   UNL     1       8.757  -0.099  -2.279  0.00  0.00    +0.002 A 
ATOM     22  C   UNL     1       7.472  -0.160  -1.776  0.00  0.00    +0.028 A 
ENDBRANCH   4  17
BRANCH   2  23
ATOM     23  C   UNL     1       3.073  -2.787   1.419  0.00  0.00    +0.262 C 
ATOM     24  O   UNL     1       1.937  -2.405   1.604  0.00  0.00    -0.296 OA
ENDBRANCH   2  23
TORSDOF 3
