REMARK  Name = ZINC32125296
REMARK  5 active torsions:
REMARK  status: ('A' for Active; 'I' for Inactive)
REMARK    1  A    between atoms: C_1  and  O_2
REMARK    2  A    between atoms: O_2  and  C_3
REMARK    3  A    between atoms: C_4  and  C_11
REMARK    4  A    between atoms: N_13  and  C_14
REMARK    5  A    between atoms: C_14  and  N_16
REMARK                            x       y       z     vdW  Elec       q    Type
REMARK                         _______ _______ _______ _____ _____    ______ ____
ROOT
ATOM      1  C   UNL     1      -1.262  -0.763   0.011  0.00  0.00    +0.253 C 
ATOM      2  O   UNL     1      -1.242  -1.978   0.004  0.00  0.00    -0.270 OA
ATOM      3  N   UNL     1      -2.441  -0.109   0.026  0.00  0.00    -0.262 N 
ATOM      4  H   UNL     1      -2.459   0.991   0.032  0.00  0.00    +0.157 HD
ENDROOT
BRANCH   1   6
ATOM      5  C   UNL     1       1.230  -0.680  -0.013  0.00  0.00    +0.150 A 
ATOM      6  C   UNL     1       0.002  -0.004   0.002  0.00  0.00    +0.081 A 
ATOM      7  C   UNL     1      -0.017   1.393   0.010  0.00  0.00    +0.036 A 
ATOM      8  C   UNL     1       1.169   2.097   0.002  0.00  0.00    +0.043 A 
ATOM      9  C   UNL     1       2.381   1.425  -0.013  0.00  0.00    +0.043 A 
ATOM     10  C   UNL     1       2.414   0.043  -0.021  0.00  0.00    +0.085 A 
ATOM     11 CL   UNL     1       3.938  -0.788  -0.039  0.00  0.00    -0.080 Cl
ATOM     12 CL   UNL     1       1.144   3.833   0.011  0.00  0.00    -0.083 Cl
BRANCH   5  14
ATOM     13  C   UNL     1       1.262  -2.679  -1.297  0.00  0.00    +0.277 C 
ATOM     14  O   UNL     1       1.260  -2.037  -0.021  0.00  0.00    -0.493 OA
ENDBRANCH   5  14
ENDBRANCH   1   6
BRANCH   3  15
ATOM     15  C   UNL     1      -3.596  -0.802   0.034  0.00  0.00    +0.163 C 
ATOM     16  S   UNL     1      -3.568  -2.514   0.024  0.00  0.00    -0.016 S 
BRANCH  15  17
ATOM     17  N   UNL     1      -4.775  -0.148   0.049  0.00  0.00    -0.169 NA
ATOM     18  C   UNL     1      -5.962  -0.860   0.057  0.00  0.00    +0.163 A 
ATOM     19  N   UNL     1      -7.194  -0.407   0.071  0.00  0.00    -0.335 N 
ATOM     20  C   UNL     1      -8.269  -1.226   0.078  0.00  0.00    +0.055 A 
ATOM     21  C   UNL     1      -9.637  -0.870   0.093  0.00  0.00    +0.029 A 
ATOM     22  C   UNL     1     -10.612  -1.833   0.098  0.00  0.00    +0.040 A 
ATOM     23  C   UNL     1     -10.296  -3.186   0.087  0.00  0.00    +0.125 A 
ATOM     24  C   UNL     1      -8.965  -3.570   0.072  0.00  0.00    +0.055 A 
ATOM     25  C   UNL     1      -7.983  -2.610   0.067  0.00  0.00    +0.041 A 
ATOM     26  S   UNL     1      -6.207  -2.631   0.042  0.00  0.00    -0.052 S 
ATOM     27  F   UNL     1     -11.275  -4.116   0.092  0.00  0.00    -0.205 F 
ATOM     28  H   UNL     1      -7.381   0.677   0.079  0.00  0.00    +0.168 HD
ENDBRANCH  15  17
ENDBRANCH   3  15
TORSDOF 4
