REMARK  Name = ZINC34757784
REMARK  9 active torsions:
REMARK  status: ('A' for Active; 'I' for Inactive)
REMARK    1  A    between atoms: C_1  and  C_2
REMARK    2  A    between atoms: C_2  and  N_3
REMARK    3  A    between atoms: N_3  and  C_4
REMARK    4  A    between atoms: C_4  and  C_5
REMARK    5  A    between atoms: C_6  and  C_8
REMARK    6  A    between atoms: C_8  and  S_9
REMARK    7  A    between atoms: S_9  and  C_10
REMARK    8  A    between atoms: N_25  and  C_28
REMARK    9  A    between atoms: C_28  and  C_29
REMARK                            x       y       z     vdW  Elec       q    Type
REMARK                         _______ _______ _______ _____ _____    ______ ____
ROOT
ATOM      1  C   UNL     1       5.211  -2.126   3.450  0.00  0.00    +0.191 A 
ATOM      2  N   UNL     1       6.519  -2.351   3.513  0.00  0.00    -0.206 NA
ATOM      3  C   UNL     1       7.131  -2.622   4.654  0.00  0.00    +0.134 A 
ATOM      4  C   UNL     1       6.367  -2.676   5.854  0.00  0.00    +0.051 A 
ATOM      5  C   UNL     1       6.835  -2.958   7.222  0.00  0.00    -0.025 A 
ATOM      6  C   UNL     1       5.908  -2.951   8.193  0.00  0.00    -0.004 A 
ATOM      7  S   UNL     1       4.378  -2.574   7.370  0.00  0.00    -0.073 S 
ATOM      8  C   UNL     1       4.991  -2.428   5.713  0.00  0.00    +0.115 A 
ATOM      9  N   UNL     1       4.453  -2.159   4.538  0.00  0.00    -0.214 NA
ATOM     10  C   UNL     1       6.498  -3.256   9.544  0.00  0.00    +0.043 C 
ATOM     11  C   UNL     1       7.874  -3.884   9.233  0.00  0.00    +0.010 C 
ATOM     12  C   UNL     1       8.193  -3.272   7.855  0.00  0.00    +0.037 C 
ATOM     13  N   UNL     1       8.494  -2.851   4.681  0.00  0.00    -0.318 N 
ATOM     14  C   UNL     1       9.041  -4.193   4.424  0.00  0.00    +0.088 C 
ATOM     15  C   UNL     1      10.140  -4.074   3.363  0.00  0.00    -0.059 C 
ATOM     16  N   UNL     1      11.136  -3.087   3.798  0.00  0.00    +0.387 N 
ATOM     17  C   UNL     1      10.519  -1.757   3.878  0.00  0.00    -0.059 C 
ATOM     18  C   UNL     1       9.439  -1.759   4.960  0.00  0.00    +0.088 C 
ATOM     19  H   UNL     1      11.491  -3.347   4.706  0.00  0.00    -0.081 HD
ENDROOT
BRANCH   1  20
ATOM     20  S   UNL     1       4.470  -1.771   1.892  0.00  0.00    -0.077 S 
BRANCH  20  21
ATOM     21  C   UNL     1       2.715  -1.532   2.284  0.00  0.00    +0.173 C 
BRANCH  21  23
ATOM     22  N   UNL     1       0.627  -1.000   1.070  0.00  0.00    -0.301 N 
ATOM     23  C   UNL     1       1.956  -1.217   1.021  0.00  0.00    +0.226 C 
ATOM     24  O   UNL     1       2.542  -1.159  -0.040  0.00  0.00    -0.275 OA
BRANCH  22  26
ATOM     25  C   UNL     1      -0.130   0.821  -0.378  0.00  0.00    +0.024 C 
ATOM     26  C   UNL     1      -0.111  -0.694  -0.158  0.00  0.00    +0.104 C 
ENDBRANCH  22  26
BRANCH  22  27
ATOM     27  C   UNL     1      -0.080  -1.069   2.351  0.00  0.00    +0.104 C 
ATOM     28  C   UNL     1      -0.564  -2.501   2.589  0.00  0.00    +0.024 C 
ENDBRANCH  22  27
ENDBRANCH  21  23
ENDBRANCH  20  21
ENDBRANCH   1  20
BRANCH  16  29
ATOM     29  C   UNL     1      12.244  -3.054   2.835  0.00  0.00    +0.018 C 
BRANCH  29  30
ATOM     30  C   UNL     1      13.323  -2.133   3.342  0.00  0.00    +0.194 C 
ATOM     31  O   UNL     1      13.183  -1.560   4.402  0.00  0.00    -0.278 OA
ATOM     32  N   UNL     1      14.444  -1.945   2.618  0.00  0.00    -0.331 N 
ATOM     33  H   UNL     1      14.556  -2.403   1.770  0.00  0.00    +0.145 HD
ATOM     34  H   UNL     1      15.139  -1.352   2.944  0.00  0.00    +0.145 HD
ENDBRANCH  29  30
ENDBRANCH  16  29
TORSDOF 7
