REMARK  Name = ZINC48247252
REMARK  9 active torsions:
REMARK  status: ('A' for Active; 'I' for Inactive)
REMARK    1  A    between atoms: C_1  and  C_2
REMARK    2  A    between atoms: N_7  and  C_9
REMARK    3  A    between atoms: C_9  and  C_11
REMARK    4  A    between atoms: C_9  and  C_12
REMARK    5  A    between atoms: C_12  and  N_13
REMARK    6  A    between atoms: N_16  and  C_17
REMARK    7  A    between atoms: C_17  and  C_19
REMARK    8  A    between atoms: C_17  and  C_26
REMARK    9  A    between atoms: N_30  and  C_31
REMARK                            x       y       z     vdW  Elec       q    Type
REMARK                         _______ _______ _______ _____ _____    ______ ____
ROOT
ATOM      1  N   UNL     1       3.065  -0.566   2.179  0.00  0.00    -0.301 N 
ATOM      2  C   UNL     1       4.245   0.042   1.946  0.00  0.00    +0.300 C 
ATOM      3  O   UNL     1       5.250  -0.623   1.785  0.00  0.00    -0.253 OA
ATOM      4  N   UNL     1       4.311   1.387   1.890  0.00  0.00    -0.286 N 
ATOM      5  H   UNL     1       2.263  -0.035   2.308  0.00  0.00    +0.150 HD
ATOM      6  H   UNL     1       3.509   1.917   2.019  0.00  0.00    +0.151 HD
ENDROOT
BRANCH   1   7
ATOM      7  C   UNL     1       2.993  -2.028   2.239  0.00  0.00    +0.090 C 
BRANCH   7   8
ATOM      8  C   UNL     1       1.532  -2.462   2.378  0.00  0.00    -0.054 C 
ATOM      9  C   UNL     1       1.446  -3.988   2.322  0.00  0.00    -0.012 C 
BRANCH   8  15
ATOM     10  C   UNL     1      -2.991  -1.831   0.615  0.00  0.00    +0.005 C 
ATOM     11  C   UNL     1      -1.510  -1.518   0.393  0.00  0.00    -0.031 C 
ATOM     12  C   UNL     1      -1.072  -2.058  -0.971  0.00  0.00    -0.001 C 
ATOM     13  C   UNL     1       0.429  -1.810  -1.150  0.00  0.00    -0.018 C 
ATOM     14  C   UNL     1       1.190  -2.464   0.005  0.00  0.00    -0.078 C 
ATOM     15  N   UNL     1       0.745  -1.886   1.279  0.00  0.00    +0.383 N 
ATOM     16  C   UNL     1      -0.677  -2.182   1.492  0.00  0.00    -0.075 C 
ATOM     17  H   UNL     1       0.879  -0.887   1.259  0.00  0.00    -0.081 HD
ENDBRANCH   8  15
ENDBRANCH   7   8
ENDBRANCH   1   7
BRANCH   4  18
ATOM     18  C   UNL     1       5.594   2.047   1.637  0.00  0.00    +0.171 C 
BRANCH  18  19
ATOM     19  C   UNL     1       5.348   3.404   1.027  0.00  0.00    -0.020 A 
ATOM     20  C   UNL     1       4.313   4.193   1.492  0.00  0.00    +0.009 A 
ATOM     21  C   UNL     1       4.088   5.437   0.934  0.00  0.00    +0.038 A 
ATOM     22  C   UNL     1       4.899   5.893  -0.091  0.00  0.00    +0.123 A 
ATOM     23  C   UNL     1       5.936   5.101  -0.556  0.00  0.00    +0.038 A 
ATOM     24  C   UNL     1       6.162   3.860   0.007  0.00  0.00    +0.009 A 
ATOM     25  F   UNL     1       4.679   7.108  -0.638  0.00  0.00    -0.205 F 
ENDBRANCH  18  19
BRANCH  18  26
ATOM     26  C   UNL     1       6.342   2.208   2.935  0.00  0.00    +0.134 A 
ATOM     27  N   UNL     1       5.829   2.622   4.061  0.00  0.00    -0.238 NA
ATOM     28  C   UNL     1       6.785   2.640   5.002  0.00  0.00    +0.130 A 
ATOM     29  C   UNL     1       7.934   2.222   4.437  0.00  0.00    +0.106 A 
ATOM     30  N   UNL     1       7.652   1.942   3.127  0.00  0.00    -0.336 N 
ATOM     31  C   UNL     1       8.595   1.450   2.120  0.00  0.00    +0.150 C 
ENDBRANCH  18  26
ENDBRANCH   4  18
TORSDOF 6
