REMARK  Name = ZINC41124176
REMARK  9 active torsions:
REMARK  status: ('A' for Active; 'I' for Inactive)
REMARK    1  A    between atoms: C_1  and  C_2
REMARK    2  A    between atoms: C_2  and  C_3
REMARK    3  A    between atoms: C_2  and  C_4
REMARK    4  A    between atoms: C_2  and  C_5
REMARK    5  A    between atoms: C_5  and  C_7
REMARK    6  A    between atoms: C_5  and  N_22
REMARK    7  A    between atoms: C_9  and  C_12
REMARK    8  A    between atoms: C_15  and  S_18
REMARK    9  A    between atoms: S_18  and  C_21
REMARK                            x       y       z     vdW  Elec       q    Type
REMARK                         _______ _______ _______ _____ _____    ______ ____
ROOT
ATOM      1  C   UNL     1       2.132   0.024  -1.268  0.00  0.00    +0.158 A 
ATOM      2  N   UNL     1       2.583   1.021  -2.032  0.00  0.00    -0.194 NA
ATOM      3  C   UNL     1       3.860   1.225  -1.796  0.00  0.00    +0.258 A 
ATOM      4  O   UNL     1       4.255   0.345  -0.859  0.00  0.00    -0.333 OA
ATOM      5  N   UNL     1       3.108  -0.422  -0.528  0.00  0.00    -0.063 NA
ENDROOT
BRANCH   3   6
ATOM      6  C   UNL     1       4.712   2.242  -2.447  0.00  0.00    +0.040 A 
ATOM      7  C   UNL     1       4.171   3.100  -3.406  0.00  0.00    +0.015 A 
ATOM      8  C   UNL     1       4.972   4.048  -4.009  0.00  0.00    +0.027 A 
ATOM      9  C   UNL     1       6.308   4.148  -3.667  0.00  0.00    +0.088 A 
ATOM     10  C   UNL     1       6.851   3.300  -2.718  0.00  0.00    +0.027 A 
ATOM     11  C   UNL     1       6.060   2.353  -2.102  0.00  0.00    +0.015 A 
BRANCH   9  12
ATOM     12  S   UNL     1       7.324   5.361  -4.443  0.00  0.00    -0.006 S 
ATOM     13  O   UNL     1       8.641   4.831  -4.371  0.00  0.00    -0.170 OA
ATOM     14  O   UNL     1       6.707   5.600  -5.700  0.00  0.00    -0.170 OA
ATOM     15  C   UNL     1       7.184   6.831  -3.389  0.00  0.00    +0.200 C 
ENDBRANCH   9  12
ENDBRANCH   3   6
BRANCH   1  16
ATOM     16  C   UNL     1       0.718  -0.497  -1.257  0.00  0.00    +0.003 C 
BRANCH  16  18
ATOM     17  C   UNL     1      -0.019   1.526   0.010  0.00  0.00    +0.009 C 
ATOM     18  C   UNL     1       0.002  -0.004   0.002  0.00  0.00    -0.044 C 
ATOM     19  C   UNL     1       0.742  -0.511   1.242  0.00  0.00    +0.009 C 
ATOM     20  C   UNL     1      -1.433  -0.534   0.013  0.00  0.00    +0.009 C 
ENDBRANCH  16  18
BRANCH  16  21
ATOM     21  N   UNL     1       0.738  -1.966  -1.265  0.00  0.00    +0.385 N 
ATOM     22  H   UNL     1      -0.208  -2.316  -1.258  0.00  0.00    -0.089 HD
ATOM     23  H   UNL     1       1.210  -2.292  -2.095  0.00  0.00    -0.089 HD
ATOM     24  H   UNL     1       1.226  -2.301  -0.447  0.00  0.00    -0.089 HD
ENDBRANCH  16  21
ENDBRANCH   1  16
TORSDOF 5
