REMARK  Name = ZINC58111296
REMARK  5 active torsions:
REMARK  status: ('A' for Active; 'I' for Inactive)
REMARK    1  A    between atoms: C_1  and  C_2
REMARK    2  A    between atoms: C_6  and  C_9
REMARK    3  A    between atoms: C_9  and  C_11
REMARK    4  A    between atoms: C_9  and  O_17
REMARK    5  A    between atoms: C_18  and  C_23
REMARK                            x       y       z     vdW  Elec       q    Type
REMARK                         _______ _______ _______ _____ _____    ______ ____
ROOT
ATOM      1  C   UNL     1      -0.018   1.503   0.010  0.00  0.00    +0.047 C 
ATOM      2  C   UNL     1       0.002  -0.004   0.002  0.00  0.00    -0.010 A 
ATOM      3  C   UNL     1       0.006  -0.693  -1.209  0.00  0.00    +0.042 A 
ATOM      4  C   UNL     1       0.025  -2.082  -1.193  0.00  0.00    -0.014 A 
ATOM      5  C   UNL     1       0.039  -2.773  -0.003  0.00  0.00    +0.013 A 
ATOM      6  C   UNL     1       0.035  -2.084   1.197  0.00  0.00    +0.000 A 
ATOM      7  C   UNL     1       0.023  -0.699   1.194  0.00  0.00    +0.051 A 
ATOM      8 CL   UNL     1       0.026   0.167   2.699  0.00  0.00    -0.083 Cl
ATOM      9  C   UNL     1       0.024  -2.524  -2.639  0.00  0.00    +0.104 C 
ATOM     10  C   UNL     1       0.003  -1.227  -3.420  0.00  0.00    +0.224 C 
ATOM     11  O   UNL     1      -0.004  -1.114  -4.627  0.00  0.00    -0.275 OA
ATOM     12  N   UNL     1      -0.006  -0.226  -2.524  0.00  0.00    -0.284 N 
ATOM     13  C   UNL     1      -1.222  -3.357  -2.944  0.00  0.00    +0.022 C 
ATOM     14  H   UNL     1      -0.021   0.714  -2.764  0.00  0.00    +0.155 HD
ENDROOT
BRANCH   6  15
ATOM     15  C   UNL     1       0.051  -2.837   2.502  0.00  0.00    +0.149 C 
BRANCH  15  16
ATOM     16  C   UNL     1       1.492  -2.964   3.000  0.00  0.00    +0.022 C 
ATOM     17  C   UNL     1       2.325  -3.721   1.964  0.00  0.00    +0.006 C 
ATOM     18  C   UNL     1       3.766  -3.848   2.463  0.00  0.00    +0.000 C 
ATOM     19  C   UNL     1       3.781  -4.613   3.788  0.00  0.00    +0.000 C 
ATOM     20  C   UNL     1       2.948  -3.856   4.824  0.00  0.00    +0.000 C 
ATOM     21  C   UNL     1       1.507  -3.729   4.325  0.00  0.00    +0.006 C 
ENDBRANCH  15  16
BRANCH  15  22
ATOM     22  O   UNL     1      -0.502  -4.140   2.306  0.00  0.00    -0.387 OA
ATOM     23  H   UNL     1      -0.023  -4.678   1.661  0.00  0.00    +0.210 HD
ENDBRANCH  15  22
ENDBRANCH   6  15
TORSDOF 3
