REMARK  Name = ZINC31632328
REMARK  9 active torsions:
REMARK  status: ('A' for Active; 'I' for Inactive)
REMARK    1  A    between atoms: C_1  and  C_2
REMARK    2  A    between atoms: C_5  and  C_8
REMARK    3  A    between atoms: C_8  and  C_32
REMARK    4  A    between atoms: N_11  and  C_15
REMARK    5  A    between atoms: C_15  and  C_16
REMARK    6  A    between atoms: N_18  and  C_19
REMARK    7  A    between atoms: C_20  and  C_31
REMARK    8  A    between atoms: N_22  and  C_25
REMARK    9  A    between atoms: C_23  and  C_24
REMARK                            x       y       z     vdW  Elec       q    Type
REMARK                         _______ _______ _______ _____ _____    ______ ____
ROOT
ATOM      1  C   UNL     1       1.576  -2.008   0.096  0.00  0.00    +0.214 C 
ENDROOT
BRANCH   1   5
ATOM      2  C   UNL     1       0.322   1.486   0.225  0.00  0.00    +0.135 C 
ATOM      3  C   UNL     1       0.104  -0.004   0.051  0.00  0.00    +0.251 C 
ATOM      4  O   UNL     1      -0.945  -0.571  -0.167  0.00  0.00    -0.272 OA
ATOM      5  N   UNL     1       1.320  -0.569   0.191  0.00  0.00    -0.215 N 
ATOM      6  C   UNL     1       2.266   0.348   0.427  0.00  0.00    +0.310 C 
ATOM      7  O   UNL     1       3.441   0.082   0.588  0.00  0.00    -0.252 OA
ATOM      8  N   UNL     1       1.771   1.599   0.466  0.00  0.00    -0.281 N 
ATOM      9  C   UNL     1      -0.466   2.007   1.429  0.00  0.00    +0.047 C 
ATOM     10  H   UNL     1       2.225   2.587   0.630  0.00  0.00    +0.152 HD
BRANCH   2  15
ATOM     11  C   UNL     1      -1.171   4.332  -4.577  0.00  0.00    +0.044 C 
ATOM     12  C   UNL     1      -0.782   3.589  -3.325  0.00  0.00    -0.050 A 
ATOM     13  C   UNL     1       0.215   4.089  -2.507  0.00  0.00    +0.004 A 
ATOM     14  C   UNL     1       0.572   3.408  -1.358  0.00  0.00    +0.006 A 
ATOM     15  C   UNL     1      -0.068   2.228  -1.027  0.00  0.00    -0.015 A 
ATOM     16  C   UNL     1      -1.060   1.726  -1.848  0.00  0.00    +0.006 A 
ATOM     17  C   UNL     1      -1.421   2.409  -2.994  0.00  0.00    +0.004 A 
ENDBRANCH   2  15
ENDBRANCH   1   5
BRANCH   1  18
ATOM     18  C   UNL     1       1.885  -2.370  -1.334  0.00  0.00    +0.235 C 
ATOM     19  O   UNL     1       1.892  -1.510  -2.189  0.00  0.00    -0.274 OA
ATOM     20  N   UNL     1       2.154  -3.649  -1.662  0.00  0.00    -0.281 N 
ATOM     21  H   UNL     1       2.246  -4.411  -0.874  0.00  0.00    +0.155 HD
BRANCH  20  22
ATOM     22  C   UNL     1       2.318  -4.010  -3.012  0.00  0.00    +0.078 A 
ATOM     23  C   UNL     1       1.686  -3.408  -4.111  0.00  0.00    +0.082 A 
ATOM     24  N   UNL     1       2.088  -4.011  -5.200  0.00  0.00    -0.170 NA
ATOM     25  N   UNL     1       2.985  -5.024  -4.838  0.00  0.00    -0.235 N 
ATOM     26  C   UNL     1       3.112  -5.005  -3.483  0.00  0.00    +0.063 A 
ATOM     27  C   UNL     1       3.976  -5.922  -2.657  0.00  0.00    +0.068 C 
ATOM     28  C   UNL     1       0.711  -2.260  -4.047  0.00  0.00    +0.069 C 
BRANCH  25  29
ATOM     29  C   UNL     1       3.636  -5.902  -5.716  0.00  0.00    +0.066 A 
ATOM     30  C   UNL     1       4.164  -5.428  -6.909  0.00  0.00    +0.028 A 
ATOM     31  C   UNL     1       4.811  -6.295  -7.769  0.00  0.00    +0.002 A 
ATOM     32  C   UNL     1       4.921  -7.635  -7.448  0.00  0.00    +0.000 A 
ATOM     33  C   UNL     1       4.392  -8.111  -6.263  0.00  0.00    +0.002 A 
ATOM     34  C   UNL     1       3.749  -7.248  -5.396  0.00  0.00    +0.028 A 
ENDBRANCH  25  29
ENDBRANCH  20  22
ENDBRANCH   1  18
TORSDOF 5
