REMARK  Name = ZINC52539897
REMARK  6 active torsions:
REMARK  status: ('A' for Active; 'I' for Inactive)
REMARK    1  A    between atoms: C_1  and  C_2
REMARK    2  A    between atoms: C_8  and  N_10
REMARK    3  A    between atoms: N_10  and  C_11
REMARK    4  A    between atoms: C_11  and  N_13
REMARK    5  A    between atoms: N_13  and  N_14
REMARK    6  A    between atoms: C_15  and  C_17
REMARK                            x       y       z     vdW  Elec       q    Type
REMARK                         _______ _______ _______ _____ _____    ______ ____
ROOT
ATOM      1  N   UNL     1       4.059   0.594   2.379  0.00  0.00    -0.246 N 
ATOM      2  H   UNL     1       4.548   0.689   3.211  0.00  0.00    +0.172 HD
ENDROOT
BRANCH   1   3
ATOM      3  N   UNL     1       4.668   0.942   1.166  0.00  0.00    -0.231 N 
ATOM      4  C   UNL     1       5.933   1.409   1.156  0.00  0.00    +0.263 C 
ATOM      5  O   UNL     1       6.545   1.528   2.200  0.00  0.00    -0.269 OA
ATOM      6  H   UNL     1       4.180   0.848   0.333  0.00  0.00    +0.173 HD
BRANCH   4   7
ATOM      7  C   UNL     1       6.575   1.776  -0.122  0.00  0.00    +0.073 A 
ATOM      8  C   UNL     1       5.872   1.646  -1.322  0.00  0.00    +0.017 A 
ATOM      9  C   UNL     1       6.477   1.990  -2.512  0.00  0.00    +0.016 A 
ATOM     10  C   UNL     1       7.779   2.464  -2.521  0.00  0.00    +0.021 A 
ATOM     11  C   UNL     1       8.482   2.596  -1.337  0.00  0.00    +0.054 A 
ATOM     12  C   UNL     1       7.887   2.260  -0.135  0.00  0.00    +0.137 A 
ATOM     13  F   UNL     1       8.572   2.394   1.021  0.00  0.00    -0.205 F 
ATOM     14 BR   UNL     1       8.599   2.932  -4.160  0.00  0.00    -0.050 Br
ENDBRANCH   4   7
ENDBRANCH   1   3
BRANCH   1  15
ATOM     15  C   UNL     1       2.795   0.128   2.388  0.00  0.00    +0.147 C 
ATOM     16  S   UNL     1       2.051  -0.298   3.870  0.00  0.00    -0.017 S 
BRANCH  15  17
ATOM     17  N   UNL     1       2.116  -0.004   1.231  0.00  0.00    -0.322 N 
ATOM     18  H   UNL     1       2.538   0.237   0.392  0.00  0.00    +0.148 HD
BRANCH  17  25
ATOM     19  C   UNL     1      -0.019   1.526   0.010  0.00  0.00    +0.009 C 
ATOM     20  C   UNL     1       0.002  -0.004   0.002  0.00  0.00    +0.006 C 
ATOM     21  C   UNL     1      -1.433  -0.534   0.013  0.00  0.00    +0.005 C 
ATOM     22  C   UNL     1      -1.413  -2.063   0.004  0.00  0.00    +0.000 C 
ATOM     23  C   UNL     1      -0.673  -2.570   1.244  0.00  0.00    +0.002 C 
ATOM     24  C   UNL     1       0.763  -2.041   1.233  0.00  0.00    +0.022 C 
ATOM     25  C   UNL     1       0.742  -0.511   1.242  0.00  0.00    +0.075 C 
ENDBRANCH  17  25
ENDBRANCH  15  17
ENDBRANCH   1  15
TORSDOF 5
