REMARK  Name = ZINC40981535
REMARK  12 active torsions:
REMARK  status: ('A' for Active; 'I' for Inactive)
REMARK    1  A    between atoms: C_1  and  C_2
REMARK    2  A    between atoms: C_2  and  C_3
REMARK    3  A    between atoms: C_3  and  S_4
REMARK    4  A    between atoms: S_4  and  C_5
REMARK    5  A    between atoms: C_10  and  C_20
REMARK    6  A    between atoms: C_12  and  C_16
REMARK    7  A    between atoms: C_13  and  C_15
REMARK    8  A    between atoms: C_16  and  O_18
REMARK    9  A    between atoms: O_18  and  C_19
REMARK   10  A    between atoms: C_23  and  O_26
REMARK   11  A    between atoms: O_26  and  C_27
REMARK   12  A    between atoms: C_27  and  C_28
REMARK                            x       y       z     vdW  Elec       q    Type
REMARK                         _______ _______ _______ _____ _____    ______ ____
ROOT
ATOM      1  C   UNL     1      -3.197  -2.600  -0.409  0.00  0.00    +0.210 A 
ATOM      2  N   UNL     1      -4.279  -1.813  -0.328  0.00  0.00    -0.187 NA
ATOM      3  C   UNL     1      -5.341  -2.549  -0.142  0.00  0.00    +0.219 A 
ATOM      4  N   UNL     1      -4.953  -3.847  -0.105  0.00  0.00    -0.220 N 
ATOM      5  N   UNL     1      -3.570  -3.856  -0.281  0.00  0.00    -0.141 NA
ATOM      6  C   UNL     1      -5.878  -4.962   0.078  0.00  0.00    +0.179 C 
ATOM      7  C   UNL     1      -7.220  -4.434   0.508  0.00  0.00    +0.082 C 
ATOM      8  C   UNL     1      -7.548  -3.134   0.453  0.00  0.00    +0.020 C 
ATOM      9  N   UNL     1      -6.670  -2.178   0.007  0.00  0.00    -0.287 N 
ATOM     10  C   UNL     1      -8.924  -2.710   0.896  0.00  0.00    +0.061 C 
ATOM     11  H   UNL     1      -6.968  -1.277  -0.197  0.00  0.00    +0.155 HD
ENDROOT
BRANCH   6  12
ATOM     12  C   UNL     1      -6.025  -5.712  -1.220  0.00  0.00    -0.018 A 
ATOM     13  C   UNL     1      -6.499  -5.060  -2.344  0.00  0.00    +0.009 A 
ATOM     14  C   UNL     1      -6.635  -5.745  -3.536  0.00  0.00    +0.046 A 
ATOM     15  C   UNL     1      -6.296  -7.089  -3.605  0.00  0.00    +0.121 A 
ATOM     16  C   UNL     1      -5.820  -7.741  -2.476  0.00  0.00    +0.046 A 
ATOM     17  C   UNL     1      -5.681  -7.050  -1.288  0.00  0.00    +0.009 A 
BRANCH  15  18
ATOM     18  O   UNL     1      -6.429  -7.765  -4.776  0.00  0.00    -0.487 OA
BRANCH  18  19
ATOM     19  C   UNL     1      -6.061  -9.146  -4.773  0.00  0.00    +0.266 C 
BRANCH  19  20
ATOM     20  C   UNL     1      -6.275  -9.725  -6.148  0.00  0.00    +0.008 A 
ATOM     21  C   UNL     1      -6.755  -8.925  -7.168  0.00  0.00    +0.010 A 
ATOM     22  C   UNL     1      -6.952  -9.456  -8.429  0.00  0.00    +0.020 A 
ATOM     23  C   UNL     1      -6.667 -10.789  -8.671  0.00  0.00    +0.042 A 
ATOM     24  C   UNL     1      -6.186 -11.589  -7.651  0.00  0.00    +0.040 A 
ATOM     25  C   UNL     1      -5.986 -11.056  -6.390  0.00  0.00    +0.049 A 
ATOM     26 CL   UNL     1      -5.376 -12.059  -5.111  0.00  0.00    -0.083 Cl
ATOM     27 CL   UNL     1      -6.915 -11.455 -10.255  0.00  0.00    -0.083 Cl
ENDBRANCH  19  20
ENDBRANCH  18  19
ENDBRANCH  15  18
ENDBRANCH   6  12
BRANCH   7  28
ATOM     28  C   UNL     1      -8.181  -5.350   0.992  0.00  0.00    +0.339 C 
ATOM     29  O   UNL     1      -8.126  -5.738   2.144  0.00  0.00    -0.245 OA
BRANCH  28  30
ATOM     30  O   UNL     1      -9.160  -5.796   0.176  0.00  0.00    -0.465 OA
ATOM     31  C   UNL     1     -10.097  -6.721   0.732  0.00  0.00    +0.280 C 
ENDBRANCH  28  30
ENDBRANCH   7  28
BRANCH   1  32
ATOM     32  S   UNL     1      -1.543  -2.045  -0.656  0.00  0.00    -0.084 S 
BRANCH  32  33
ATOM     33  C   UNL     1      -1.697  -0.240  -0.753  0.00  0.00    +0.077 C 
BRANCH  33  35
ATOM     34  C   UNL     1      -0.444   1.901  -1.050  0.00  0.00    +0.004 C 
ATOM     35  C   UNL     1      -0.314   0.379  -0.969  0.00  0.00    +0.008 C 
ENDBRANCH  33  35
ENDBRANCH  32  33
ENDBRANCH   1  32
TORSDOF 9
