REMARK  Name = ZINC13518348
REMARK  3 active torsions:
REMARK  status: ('A' for Active; 'I' for Inactive)
REMARK    1  A    between atoms: C_4  and  C_7
REMARK    2  A    between atoms: N_10  and  C_12
REMARK    3  A    between atoms: C_22  and  C_24
REMARK                            x       y       z     vdW  Elec       q    Type
REMARK                         _______ _______ _______ _____ _____    ______ ____
ROOT
ATOM      1  C   UNL     1       3.699  -0.689  -0.037  0.00  0.00    +0.099 A 
ATOM      2  C   UNL     1       4.001  -1.852   0.675  0.00  0.00    +0.029 A 
ATOM      3  C   UNL     1       5.290  -2.202   0.384  0.00  0.00    +0.133 A 
ATOM      4  N   UNL     1       5.783  -1.283  -0.474  0.00  0.00    -0.217 N 
ATOM      5  N   UNL     1       4.768  -0.348  -0.734  0.00  0.00    -0.164 NA
ATOM      6  N   UNL     1       5.885  -3.341   0.927  0.00  0.00    -0.270 N 
ATOM      7  C   UNL     1       5.099  -4.211   1.597  0.00  0.00    +0.219 C 
ATOM      8  O   UNL     1       5.620  -5.102   2.234  0.00  0.00    -0.275 OA
ATOM      9  C   UNL     1       3.600  -4.109   1.579  0.00  0.00    +0.109 C 
ATOM     10  C   UNL     1       3.142  -2.648   1.624  0.00  0.00    +0.070 C 
ATOM     11  H   UNL     1       6.836  -3.503   0.827  0.00  0.00    +0.156 HD
ENDROOT
BRANCH   1  15
ATOM     12  C   UNL     1      -0.017   1.379   0.010  0.00  0.00    +0.000 A 
ATOM     13  C   UNL     1       1.169   2.091   0.057  0.00  0.00    +0.001 A 
ATOM     14  C   UNL     1       2.377   1.425   0.042  0.00  0.00    +0.010 A 
ATOM     15  C   UNL     1       2.402   0.033  -0.021  0.00  0.00    +0.002 A 
ATOM     16  C   UNL     1       1.205  -0.679  -0.068  0.00  0.00    +0.010 A 
ATOM     17  C   UNL     1       0.002  -0.003  -0.052  0.00  0.00    +0.001 A 
ENDBRANCH   1  15
BRANCH   4  18
ATOM     18  C   UNL     1       7.075  -1.269  -1.014  0.00  0.00    +0.067 A 
ATOM     19  C   UNL     1       8.151  -1.709  -0.255  0.00  0.00    +0.028 A 
ATOM     20  C   UNL     1       9.425  -1.694  -0.790  0.00  0.00    +0.002 A 
ATOM     21  C   UNL     1       9.628  -1.242  -2.081  0.00  0.00    +0.000 A 
ATOM     22  C   UNL     1       8.558  -0.803  -2.840  0.00  0.00    +0.002 A 
ATOM     23  C   UNL     1       7.282  -0.821  -2.312  0.00  0.00    +0.028 A 
ENDBRANCH   4  18
BRANCH  10  24
ATOM     24  C   UNL     1       3.297  -2.111   3.023  0.00  0.00    -0.002 A 
ATOM     25  C   UNL     1       2.353  -1.599   3.851  0.00  0.00    +0.012 A 
ATOM     26  C   UNL     1       2.729  -1.161   5.107  0.00  0.00    +0.008 A 
ATOM     27  C   UNL     1       4.031  -1.257   5.474  0.00  0.00    +0.045 A 
ATOM     28  S   UNL     1       4.771  -1.990   4.024  0.00  0.00    -0.101 S 
ENDBRANCH  10  24
TORSDOF 3
