REMARK  Name = ZINC39503338
REMARK  6 active torsions:
REMARK  status: ('A' for Active; 'I' for Inactive)
REMARK    1  A    between atoms: C_4  and  C_7
REMARK    2  A    between atoms: C_7  and  C_8
REMARK    3  A    between atoms: C_14  and  C_17
REMARK    4  A    between atoms: C_22  and  O_23
REMARK    5  A    between atoms: N_24  and  C_26
REMARK    6  A    between atoms: C_31  and  O_32
REMARK                            x       y       z     vdW  Elec       q    Type
REMARK                         _______ _______ _______ _____ _____    ______ ____
ROOT
ATOM      1  C   UNL     1       4.302  -0.876   1.496  0.00  0.00    +0.013 C 
ATOM      2  C   UNL     1       5.541  -1.802   1.355  0.00  0.00    +0.031 C 
ATOM      3  C   UNL     1       5.488  -2.639   2.644  0.00  0.00    +0.036 C 
ATOM      4  C   UNL     1       6.461  -2.075   3.686  0.00  0.00    +0.026 C 
ATOM      5  C   UNL     1       7.470  -3.202   3.995  0.00  0.00    +0.010 C 
ATOM      6  C   UNL     1       6.716  -4.501   3.618  0.00  0.00    +0.025 C 
ATOM      7  C   UNL     1       5.924  -4.085   2.353  0.00  0.00    +0.034 C 
ATOM      8  N   UNL     1       4.112  -2.607   3.145  0.00  0.00    -0.321 N 
ATOM      9  C   UNL     1       3.293  -1.809   2.212  0.00  0.00    +0.109 C 
ENDROOT
BRANCH   6  10
ATOM     10  C   UNL     1       7.688  -5.610   3.304  0.00  0.00    -0.003 A 
ATOM     11  C   UNL     1       8.619  -5.448   2.296  0.00  0.00    +0.007 A 
ATOM     12  C   UNL     1       9.510  -6.464   2.006  0.00  0.00    +0.001 A 
ATOM     13  C   UNL     1       9.472  -7.645   2.724  0.00  0.00    +0.004 A 
ATOM     14  C   UNL     1       8.544  -7.812   3.733  0.00  0.00    +0.046 A 
ATOM     15  C   UNL     1       7.652  -6.791   4.029  0.00  0.00    +0.120 A 
BRANCH  15  16
ATOM     16  O   UNL     1       6.741  -6.951   5.025  0.00  0.00    -0.506 OA
ATOM     17  H   UNL     1       5.903  -7.335   4.734  0.00  0.00    +0.292 HD
ENDBRANCH  15  16
ENDBRANCH   6  10
BRANCH   8  18
ATOM     18  C   UNL     1       3.652  -3.228   4.312  0.00  0.00    +0.072 A 
ATOM     19  C   UNL     1       3.292  -4.567   4.292  0.00  0.00    +0.027 A 
ATOM     20  C   UNL     1       2.838  -5.178   5.446  0.00  0.00    +0.002 A 
ATOM     21  C   UNL     1       2.742  -4.457   6.622  0.00  0.00    +0.004 A 
ATOM     22  C   UNL     1       3.099  -3.121   6.649  0.00  0.00    +0.047 A 
ATOM     23  C   UNL     1       3.560  -2.503   5.499  0.00  0.00    +0.138 A 
BRANCH  23  24
ATOM     24  O   UNL     1       3.917  -1.191   5.526  0.00  0.00    -0.505 OA
ATOM     25  H   UNL     1       3.178  -0.580   5.405  0.00  0.00    +0.292 HD
ENDBRANCH  23  24
ENDBRANCH   8  18
BRANCH   1  26
ATOM     26  C   UNL     1       3.777  -0.450   0.124  0.00  0.00    +0.040 C 
BRANCH  26  30
ATOM     27  C   UNL     1       0.458   2.192   0.624  0.00  0.00    +0.000 A 
ATOM     28  C   UNL     1       1.741   2.701   0.550  0.00  0.00    +0.000 A 
ATOM     29  C   UNL     1       2.815   1.846   0.388  0.00  0.00    +0.003 A 
ATOM     30  C   UNL     1       2.606   0.482   0.301  0.00  0.00    -0.047 A 
ATOM     31  C   UNL     1       1.323  -0.027   0.377  0.00  0.00    +0.003 A 
ATOM     32  C   UNL     1       0.249   0.828   0.537  0.00  0.00    +0.000 A 
ENDBRANCH  26  30
ENDBRANCH   1  26
TORSDOF 6
