REMARK  Name = ZINC36759248
REMARK  6 active torsions:
REMARK  status: ('A' for Active; 'I' for Inactive)
REMARK    1  A    between atoms: C_8  and  C_10
REMARK    2  A    between atoms: C_13  and  C_16
REMARK    3  A    between atoms: C_21  and  C_23
REMARK    4  A    between atoms: C_23  and  N_24
REMARK    5  A    between atoms: N_24  and  C_25
REMARK    6  A    between atoms: C_28  and  C_31
REMARK                            x       y       z     vdW  Elec       q    Type
REMARK                         _______ _______ _______ _____ _____    ______ ____
ROOT
ATOM      1  C   UNL     1       3.795  -3.322  -0.053  0.00  0.00    +0.104 C 
ATOM      2  N   UNL     1       3.344  -4.532  -0.061  0.00  0.00    -0.178 NA
ATOM      3  N   UNL     1       4.338  -5.508  -0.075  0.00  0.00    -0.181 N 
ATOM      4  C   UNL     1       5.654  -4.849  -0.076  0.00  0.00    +0.173 C 
ATOM      5  C   UNL     1       5.307  -3.347  -0.068  0.00  0.00    +0.093 C 
ATOM      6  C   UNL     1       4.129  -6.840  -0.085  0.00  0.00    +0.252 C 
ATOM      7  O   UNL     1       5.073  -7.602  -0.096  0.00  0.00    -0.272 OA
ENDROOT
BRANCH   1  15
ATOM      8  C   UNL     1      -0.017   1.363   0.009  0.00  0.00    +0.001 A 
ATOM      9  C   UNL     1       1.171   2.082   0.002  0.00  0.00    +0.004 A 
ATOM     10  C   UNL     1       2.387   1.433  -0.013  0.00  0.00    +0.047 A 
ATOM     11  C   UNL     1       2.431   0.044  -0.021  0.00  0.00    +0.136 A 
ATOM     12  C   UNL     1       1.224  -0.680  -0.013  0.00  0.00    +0.021 A 
ATOM     13  C   UNL     1       0.002  -0.004   0.002  0.00  0.00    +0.011 A 
ATOM     14  C   UNL     1       1.609  -2.091  -0.025  0.00  0.00    +0.059 A 
ATOM     15  C   UNL     1       2.968  -2.111  -0.038  0.00  0.00    +0.152 A 
ATOM     16  O   UNL     1       3.442  -0.848  -0.036  0.00  0.00    -0.454 OA
ENDBRANCH   1  15
BRANCH   4  17
ATOM     17  C   UNL     1       6.425  -5.206  -1.321  0.00  0.00    +0.128 A 
ATOM     18  C   UNL     1       7.746  -5.449  -1.385  0.00  0.00    +0.046 A 
ATOM     19  C   UNL     1       8.043  -5.742  -2.736  0.00  0.00    +0.041 A 
ATOM     20  C   UNL     1       6.886  -5.660  -3.416  0.00  0.00    +0.195 A 
ATOM     21  O   UNL     1       5.908  -5.341  -2.553  0.00  0.00    -0.466 OA
ENDBRANCH   4  17
BRANCH   6  22
ATOM     22  C   UNL     1       2.723  -7.381  -0.082  0.00  0.00    +0.199 C 
BRANCH  22  23
ATOM     23  N   UNL     1       2.764  -8.846  -0.094  0.00  0.00    -0.335 N 
ATOM     24  H   UNL     1       3.617  -9.307  -0.102  0.00  0.00    +0.147 HD
BRANCH  23  25
ATOM     25  C   UNL     1       1.578  -9.575  -0.094  0.00  0.00    +0.028 A 
ATOM     26  C   UNL     1       0.355  -8.912  -0.088  0.00  0.00    +0.024 A 
ATOM     27  C   UNL     1      -0.819  -9.630  -0.088  0.00  0.00    +0.020 A 
ATOM     28  C   UNL     1      -0.782 -11.027  -0.094  0.00  0.00    +0.052 A 
ATOM     29  C   UNL     1       0.448 -11.691  -0.100  0.00  0.00    +0.020 A 
ATOM     30  C   UNL     1       1.619 -10.966  -0.106  0.00  0.00    +0.024 A 
BRANCH  28  31
ATOM     31  C   UNL     1      -2.002 -11.778  -0.094  0.00  0.00    +0.099 C 
ATOM     32  N   UNL     1      -2.970 -12.373  -0.093  0.00  0.00    -0.191 NA
ENDBRANCH  28  31
ENDBRANCH  23  25
ENDBRANCH  22  23
ENDBRANCH   6  22
TORSDOF 6
