REMARK  Name = ZINC67298342
REMARK  4 active torsions:
REMARK  status: ('A' for Active; 'I' for Inactive)
REMARK    1  A    between atoms: C_5  and  C_7
REMARK    2  A    between atoms: C_13  and  C_15
REMARK    3  A    between atoms: C_20  and  S_21
REMARK    4  A    between atoms: S_21  and  C_22
REMARK                            x       y       z     vdW  Elec       q    Type
REMARK                         _______ _______ _______ _____ _____    ______ ____
ROOT
ATOM      1  C   UNL     1       1.268  -2.146  -0.023  0.00  0.00    +0.098 A 
ATOM      2  C   UNL     1       2.466  -2.807  -0.034  0.00  0.00    +0.078 A 
ATOM      3  S   UNL     1       1.907  -4.505  -0.041  0.00  0.00    -0.060 S 
ATOM      4  C   UNL     1       0.153  -4.164  -0.029  0.00  0.00    +0.165 A 
ATOM      5  N   UNL     1       0.141  -2.844  -0.015  0.00  0.00    -0.223 NA
ATOM      6  N   UNL     1      -0.915  -5.051  -0.029  0.00  0.00    -0.261 N 
ATOM      7  C   UNL     1      -0.687  -6.380  -0.038  0.00  0.00    +0.252 C 
ATOM      8  O   UNL     1       0.454  -6.801  -0.046  0.00  0.00    -0.270 OA
ATOM      9  H   UNL     1      -1.825  -4.715  -0.022  0.00  0.00    +0.157 HD
ENDROOT
BRANCH   1  14
ATOM     10  C   UNL     1      -0.017   1.379   0.010  0.00  0.00    +0.004 A 
ATOM     11  C   UNL     1       1.194   2.059   0.002  0.00  0.00    +0.020 A 
ATOM     12  C   UNL     1       2.375   1.341  -0.013  0.00  0.00    +0.111 A 
ATOM     13  N   UNL     1       2.365   0.023  -0.021  0.00  0.00    -0.253 NA
ATOM     14  C   UNL     1       1.230  -0.665  -0.014  0.00  0.00    +0.090 A 
ATOM     15  C   UNL     1       0.002  -0.004   0.002  0.00  0.00    +0.030 A 
ENDBRANCH   1  14
BRANCH   7  16
ATOM     16  C   UNL     1      -1.820  -7.322  -0.037  0.00  0.00    +0.069 A 
ATOM     17  C   UNL     1      -3.138  -6.851  -0.034  0.00  0.00    +0.017 A 
ATOM     18  C   UNL     1      -4.167  -7.776  -0.033  0.00  0.00    +0.020 A 
ATOM     19  C   UNL     1      -3.868  -9.128  -0.037  0.00  0.00    +0.112 A 
ATOM     20  N   UNL     1      -2.620  -9.552  -0.040  0.00  0.00    -0.248 NA
ATOM     21  C   UNL     1      -1.597  -8.710  -0.047  0.00  0.00    +0.117 A 
BRANCH  21  22
ATOM     22  S   UNL     1       0.051  -9.333  -0.060  0.00  0.00    +0.005 S 
BRANCH  22  23
ATOM     23  C   UNL     1      -0.161 -11.134  -0.069  0.00  0.00    +0.449 C 
ATOM     24  F   UNL     1      -0.877 -11.514  -1.209  0.00  0.00    -0.160 F 
ATOM     25  F   UNL     1       1.095 -11.752  -0.080  0.00  0.00    -0.160 F 
ATOM     26  F   UNL     1      -0.864 -11.527   1.075  0.00  0.00    -0.160 F 
ENDBRANCH  22  23
ENDBRANCH  21  22
ENDBRANCH   7  16
TORSDOF 4
