REMARK  Name = ZINC08859978
REMARK  10 active torsions:
REMARK  status: ('A' for Active; 'I' for Inactive)
REMARK    1  A    between atoms: C_1  and  C_2
REMARK    2  A    between atoms: C_4  and  C_32
REMARK    3  A    between atoms: C_5  and  C_31
REMARK    4  A    between atoms: C_6  and  S_9
REMARK    5  A    between atoms: C_7  and  C_8
REMARK    6  A    between atoms: S_9  and  N_12
REMARK    7  A    between atoms: N_12  and  C_13
REMARK    8  A    between atoms: C_15  and  S_24
REMARK    9  A    between atoms: C_16  and  O_23
REMARK   10  A    between atoms: S_24  and  C_25
REMARK                            x       y       z     vdW  Elec       q    Type
REMARK                         _______ _______ _______ _____ _____    ______ ____
ROOT
ATOM      1  C   UNL     1       2.524  -2.568   3.842  0.00  0.00    +0.057 A 
ATOM      2  C   UNL     1       2.044  -1.478   4.533  0.00  0.00    +0.044 A 
ATOM      3  C   UNL     1       2.834  -0.340   4.710  0.00  0.00    +0.059 A 
ATOM      4  C   UNL     1       4.116  -0.283   4.196  0.00  0.00    +0.138 A 
ATOM      5  C   UNL     1       4.632  -1.382   3.486  0.00  0.00    +0.026 A 
ATOM      6  C   UNL     1       3.831  -2.539   3.311  0.00  0.00    +0.008 A 
ATOM      7  C   UNL     1       4.352  -3.636   2.606  0.00  0.00    +0.010 A 
ATOM      8  C   UNL     1       5.617  -3.578   2.106  0.00  0.00    +0.001 A 
ATOM      9  C   UNL     1       6.406  -2.443   2.282  0.00  0.00    +0.001 A 
ATOM     10  C   UNL     1       5.931  -1.356   2.950  0.00  0.00    +0.012 A 
ENDROOT
BRANCH   1  11
ATOM     11  N   UNL     1       1.723  -3.699   3.672  0.00  0.00    -0.216 N 
ATOM     12  H   UNL     1       2.119  -4.584   3.709  0.00  0.00    +0.174 HD
BRANCH  11  13
ATOM     13  S   UNL     1       0.097  -3.530   3.408  0.00  0.00    +0.073 S 
ATOM     14  O   UNL     1      -0.402  -2.710   4.456  0.00  0.00    -0.150 OA
ATOM     15  O   UNL     1      -0.410  -4.833   3.153  0.00  0.00    -0.150 OA
BRANCH  13  21
ATOM     16  C   UNL     1       0.493  -3.078  -1.784  0.00  0.00    +0.044 C 
ATOM     17  C   UNL     1       0.107  -2.460  -0.464  0.00  0.00    -0.045 A 
ATOM     18  C   UNL     1      -0.398  -1.173  -0.425  0.00  0.00    +0.007 A 
ATOM     19  C   UNL     1      -0.751  -0.607   0.786  0.00  0.00    -0.045 A 
ATOM     20  C   UNL     1      -0.600  -1.327   1.956  0.00  0.00    -0.021 A 
ATOM     21  C   UNL     1      -0.096  -2.613   1.916  0.00  0.00    +0.115 A 
ATOM     22  C   UNL     1       0.253  -3.181   0.706  0.00  0.00    -0.021 A 
ATOM     23  C   UNL     1       0.798  -4.586   0.662  0.00  0.00    +0.046 C 
ATOM     24  C   UNL     1      -0.985  -0.708   3.276  0.00  0.00    +0.046 C 
ATOM     25  C   UNL     1      -1.300   0.796   0.829  0.00  0.00    +0.044 C 
ENDBRANCH  13  21
ENDBRANCH  11  13
ENDBRANCH   1  11
BRANCH   4  26
ATOM     26  O   UNL     1       4.876   0.832   4.376  0.00  0.00    -0.505 OA
ATOM     27  H   UNL     1       5.412   0.817   5.180  0.00  0.00    +0.292 HD
ENDBRANCH   4  26
BRANCH   3  28
ATOM     28  S   UNL     1       2.190   1.039   5.599  0.00  0.00    -0.047 S 
BRANCH  28  29
ATOM     29  C   UNL     1       2.900   0.881   7.204  0.00  0.00    +0.189 A 
ATOM     30  H   UNL     1       2.025   2.418   8.303  0.00  0.00    +0.191 HD
ATOM     31  N   UNL     1       3.786  -0.019   7.574  0.00  0.00    -0.209 NA
ATOM     32  C   UNL     1       4.099   0.160   8.858  0.00  0.00    +0.245 A 
ATOM     33  N   UNL     1       3.421   1.173   9.327  0.00  0.00    -0.160 NA
ATOM     34  N   UNL     1       2.636   1.666   8.271  0.00  0.00    -0.254 N 
ENDBRANCH  28  29
ENDBRANCH   3  28
TORSDOF 6
