REMARK  Name = ZINC67417970
REMARK  8 active torsions:
REMARK  status: ('A' for Active; 'I' for Inactive)
REMARK    1  A    between atoms: C_1  and  C_2
REMARK    2  A    between atoms: C_2  and  C_3
REMARK    3  A    between atoms: C_3  and  C_5
REMARK    4  A    between atoms: C_3  and  N_15
REMARK    5  A    between atoms: N_18  and  C_19
REMARK    6  A    between atoms: C_19  and  C_20
REMARK    7  A    between atoms: C_19  and  C_21
REMARK    8  A    between atoms: C_19  and  C_22
REMARK                            x       y       z     vdW  Elec       q    Type
REMARK                         _______ _______ _______ _____ _____    ______ ____
ROOT
ATOM      1  N   UNL     1      -0.105  -0.090  -2.402  0.00  0.00    -0.290 N 
ATOM      2  C   UNL     1       0.053   1.134  -2.943  0.00  0.00    +0.301 C 
ATOM      3  O   UNL     1       0.785   1.945  -2.409  0.00  0.00    -0.253 OA
ATOM      4  N   UNL     1      -0.600   1.460  -4.076  0.00  0.00    -0.290 N 
ATOM      5  H   UNL     1      -0.689  -0.737  -2.828  0.00  0.00    +0.151 HD
ATOM      6  H   UNL     1      -1.184   0.813  -4.502  0.00  0.00    +0.151 HD
ENDROOT
BRANCH   4   7
ATOM      7  C   UNL     1      -0.428   2.791  -4.664  0.00  0.00    +0.056 C 
ATOM      8  C   UNL     1      -0.904   3.852  -3.670  0.00  0.00    +0.036 C 
ATOM      9  C   UNL     1       1.050   3.019  -4.986  0.00  0.00    +0.036 C 
BRANCH   7  10
ATOM     10  C   UNL     1      -1.239   2.889  -5.931  0.00  0.00    -0.021 A 
ATOM     11  C   UNL     1      -1.656   4.125  -6.389  0.00  0.00    +0.009 A 
ATOM     12  C   UNL     1      -2.400   4.218  -7.550  0.00  0.00    +0.050 A 
ATOM     13  C   UNL     1      -2.731   3.072  -8.257  0.00  0.00    +0.162 A 
ATOM     14  C   UNL     1      -2.310   1.830  -7.798  0.00  0.00    +0.162 A 
ATOM     15  C   UNL     1      -1.560   1.744  -6.635  0.00  0.00    +0.055 A 
ATOM     16  O   UNL     1      -2.617   0.694  -8.481  0.00  0.00    -0.485 OA
ATOM     17  C   UNL     1      -3.678   0.785  -9.439  0.00  0.00    +0.270 C 
ATOM     18  C   UNL     1      -3.460   2.052 -10.277  0.00  0.00    +0.270 C 
ATOM     19  O   UNL     1      -3.469   3.180  -9.396  0.00  0.00    -0.485 OA
ENDBRANCH   7  10
ENDBRANCH   4   7
BRANCH   1  20
ATOM     20  C   UNL     1       0.606  -0.444  -1.171  0.00  0.00    +0.140 C 
BRANCH  20  21
ATOM     21  C   UNL     1       0.777  -1.940  -1.102  0.00  0.00    +0.129 A 
ATOM     22  N   UNL     1       0.428  -2.810  -2.087  0.00  0.00    -0.340 N 
ATOM     23  H   UNL     1       0.033  -2.582  -2.943  0.00  0.00    +0.167 HD
ATOM     24  C   UNL     1       0.742  -4.080  -1.644  0.00  0.00    +0.066 A 
ATOM     25  C   UNL     1       0.623  -5.351  -2.189  0.00  0.00    +0.028 A 
ATOM     26  C   UNL     1       1.043  -6.446  -1.464  0.00  0.00    +0.002 A 
ATOM     27  C   UNL     1       1.581  -6.286  -0.195  0.00  0.00    +0.002 A 
ATOM     28  C   UNL     1       1.705  -5.043   0.357  0.00  0.00    +0.030 A 
ATOM     29  C   UNL     1       1.287  -3.918  -0.359  0.00  0.00    +0.089 A 
ATOM     30  N   UNL     1       1.284  -2.586  -0.093  0.00  0.00    -0.231 NA
ENDBRANCH  20  21
BRANCH  20  32
ATOM     31  C   UNL     1      -0.269   1.562   0.035  0.00  0.00    +0.006 C 
ATOM     32  C   UNL     1      -0.201   0.033   0.038  0.00  0.00    +0.027 C 
ENDBRANCH  20  32
ENDBRANCH   1  20
TORSDOF 5
