REMARK  Name = ZINC36595355
REMARK  13 active torsions:
REMARK  status: ('A' for Active; 'I' for Inactive)
REMARK    1  A    between atoms: C_1  and  C_2
REMARK    2  A    between atoms: C_5  and  C_7
REMARK    3  A    between atoms: C_7  and  N_8
REMARK    4  A    between atoms: N_8  and  C_9
REMARK    5  A    between atoms: C_9  and  C_11
REMARK    6  A    between atoms: C_9  and  C_21
REMARK    7  A    between atoms: C_13  and  N_18
REMARK    8  A    between atoms: N_23  and  C_24
REMARK    9  A    between atoms: C_24  and  C_25
REMARK   10  A    between atoms: C_24  and  C_26
REMARK   11  A    between atoms: C_24  and  C_27
REMARK   12  A    between atoms: C_28  and  C_30
REMARK   13  A    between atoms: C_35  and  O_36
REMARK                            x       y       z     vdW  Elec       q    Type
REMARK                         _______ _______ _______ _____ _____    ______ ____
ROOT
ATOM      1  C   UNL     1      -0.263  -5.158  -3.936  0.00  0.00    +0.194 C 
ENDROOT
BRANCH   1   2
ATOM      2  C   UNL     1       0.445  -6.488  -3.947  0.00  0.00    +0.002 A 
ATOM      3  C   UNL     1       0.505  -7.249  -2.795  0.00  0.00    +0.040 A 
ATOM      4  C   UNL     1       1.155  -8.469  -2.804  0.00  0.00    +0.127 A 
ATOM      5  C   UNL     1       1.746  -8.929  -3.966  0.00  0.00    +0.034 A 
ATOM      6  C   UNL     1       1.686  -8.169  -5.120  0.00  0.00    +0.022 A 
ATOM      7  C   UNL     1       1.030  -6.951  -5.112  0.00  0.00    +0.047 A 
ATOM      8 CL   UNL     1       0.949  -6.000  -6.562  0.00  0.00    -0.083 Cl
BRANCH   4   9
ATOM      9  N   UNL     1       1.219  -9.282  -1.569  0.00  0.00    +0.056 N 
ATOM     10  O   UNL     1       0.703  -8.880  -0.553  0.00  0.00    -0.126 OA
ATOM     11  O   UNL     1       1.787 -10.349  -1.578  0.00  0.00    -0.126 OA
ENDBRANCH   4   9
ENDBRANCH   1   2
BRANCH   1  12
ATOM     12  C   UNL     1      -1.744  -5.376  -4.111  0.00  0.00    +0.239 C 
ATOM     13  O   UNL     1      -2.517  -5.004  -3.253  0.00  0.00    -0.273 OA
ATOM     14  N   UNL     1      -2.209  -5.984  -5.220  0.00  0.00    -0.309 N 
ATOM     15  H   UNL     1      -1.591  -6.281  -5.906  0.00  0.00    +0.149 HD
BRANCH  14  16
ATOM     16  C   UNL     1      -3.649  -6.195  -5.390  0.00  0.00    +0.026 C 
ATOM     17  C   UNL     1      -4.368  -4.845  -5.379  0.00  0.00    +0.031 C 
ATOM     18  C   UNL     1      -3.907  -6.900  -6.723  0.00  0.00    +0.031 C 
ATOM     19  C   UNL     1      -4.176  -7.063  -4.245  0.00  0.00    +0.031 C 
ENDBRANCH  14  16
ENDBRANCH   1  12
BRANCH   1  20
ATOM     20  N   UNL     1      -0.016  -4.483  -2.660  0.00  0.00    -0.274 N 
ATOM     21  C   UNL     1      -0.237  -5.134  -1.500  0.00  0.00    +0.251 C 
ATOM     22  O   UNL     1       0.471  -4.915  -0.536  0.00  0.00    -0.270 OA
BRANCH  21  23
ATOM     23  C   UNL     1      -1.337  -6.112  -1.401  0.00  0.00    +0.078 A 
ATOM     24  C   UNL     1      -1.658  -6.921  -2.493  0.00  0.00    +0.017 A 
ATOM     25  C   UNL     1      -2.686  -7.833  -2.394  0.00  0.00    +0.001 A 
ATOM     26  C   UNL     1      -3.404  -7.952  -1.215  0.00  0.00    +0.004 A 
ATOM     27  C   UNL     1      -3.096  -7.159  -0.127  0.00  0.00    +0.046 A 
ATOM     28  C   UNL     1      -2.061  -6.239  -0.208  0.00  0.00    +0.129 A 
BRANCH  28  29
ATOM     29  O   UNL     1      -1.754  -5.463   0.862  0.00  0.00    -0.506 OA
ATOM     30  H   UNL     1      -2.236  -4.625   0.890  0.00  0.00    +0.292 HD
ENDBRANCH  28  29
ENDBRANCH  21  23
BRANCH  20  31
ATOM     31  C   UNL     1       0.471  -3.102  -2.643  0.00  0.00    +0.183 C 
BRANCH  31  36
ATOM     32  C   UNL     1      -3.089  -0.220  -4.755  0.00  0.00    +0.086 C 
ATOM     33  C   UNL     1      -2.241  -0.903  -3.714  0.00  0.00    +0.102 A 
ATOM     34  C   UNL     1      -2.381  -0.782  -2.381  0.00  0.00    +0.045 A 
ATOM     35  C   UNL     1      -1.383  -1.591  -1.790  0.00  0.00    +0.046 A 
ATOM     36  C   UNL     1      -0.693  -2.157  -2.796  0.00  0.00    +0.122 A 
ATOM     37  O   UNL     1      -1.221  -1.742  -3.959  0.00  0.00    -0.463 OA
ENDBRANCH  31  36
ENDBRANCH  20  31
ENDBRANCH   1  20
TORSDOF 9
