REMARK  Name = ZINC09237994
REMARK  6 active torsions:
REMARK  status: ('A' for Active; 'I' for Inactive)
REMARK    1  A    between atoms: C_1  and  O_2
REMARK    2  A    between atoms: O_2  and  C_3
REMARK    3  A    between atoms: C_6  and  C_9
REMARK    4  A    between atoms: C_11  and  C_26
REMARK    5  A    between atoms: C_17  and  C_20
REMARK    6  A    between atoms: N_28  and  C_29
REMARK                            x       y       z     vdW  Elec       q    Type
REMARK                         _______ _______ _______ _____ _____    ______ ____
ROOT
ATOM      1  C   UNL     1       3.243   5.774  -0.383  0.00  0.00    +0.140 C 
ATOM      2  C   UNL     1       4.497   6.149  -1.183  0.00  0.00    +0.166 C 
ATOM      3  S   UNL     1       5.921   5.331  -0.402  0.00  0.00    -0.069 S 
ATOM      4  C   UNL     1       5.187   3.743  -0.161  0.00  0.00    +0.210 A 
ATOM      5  N   UNL     1       5.778   2.624   0.162  0.00  0.00    -0.121 NA
ATOM      6  N   UNL     1       4.902   1.685   0.266  0.00  0.00    -0.127 NA
ATOM      7  C   UNL     1       3.704   2.156   0.000  0.00  0.00    +0.182 A 
ATOM      8  N   UNL     1       3.850   3.492  -0.285  0.00  0.00    -0.221 N 
ATOM      9  N   UNL     1       2.879   4.378  -0.628  0.00  0.00    -0.272 N 
ATOM     10  H   UNL     1       2.587   4.242  -1.584  0.00  0.00    +0.167 HD
ENDROOT
BRANCH   1  14
ATOM     11  C   UNL     1       0.008   8.305  -1.562  0.00  0.00    +0.120 A 
ATOM     12  C   UNL     1       0.711   8.573  -0.396  0.00  0.00    +0.046 A 
ATOM     13  C   UNL     1       1.756   7.753  -0.017  0.00  0.00    +0.009 A 
ATOM     14  C   UNL     1       2.102   6.666  -0.799  0.00  0.00    -0.024 A 
ATOM     15  C   UNL     1       1.407   6.400  -1.964  0.00  0.00    +0.009 A 
ATOM     16  C   UNL     1       0.357   7.214  -2.344  0.00  0.00    +0.046 A 
BRANCH  11  18
ATOM     17  C   UNL     1      -1.700   8.774  -3.149  0.00  0.00    +0.277 C 
ATOM     18  O   UNL     1      -1.021   9.110  -1.937  0.00  0.00    -0.495 OA
ENDBRANCH  11  18
ENDBRANCH   1  14
BRANCH   7  19
ATOM     19  C   UNL     1       2.437   1.394   0.012  0.00  0.00    +0.021 A 
ATOM     20  C   UNL     1       1.214   2.067   0.028  0.00  0.00    +0.011 A 
ATOM     21  C   UNL     1       0.036   1.349   0.039  0.00  0.00    +0.001 A 
ATOM     22  C   UNL     1       0.064  -0.034   0.036  0.00  0.00    +0.000 A 
ATOM     23  C   UNL     1       1.273  -0.707   0.022  0.00  0.00    +0.001 A 
ATOM     24  C   UNL     1       2.459  -0.002   0.010  0.00  0.00    +0.011 A 
ENDBRANCH   7  19
BRANCH   2  25
ATOM     25  C   UNL     1       4.691   7.643  -1.158  0.00  0.00    +0.233 C 
ATOM     26  O   UNL     1       4.369   8.281  -0.178  0.00  0.00    -0.274 OA
ATOM     27  N   UNL     1       5.224   8.271  -2.225  0.00  0.00    -0.283 N 
ATOM     28  H   UNL     1       5.542   7.756  -2.983  0.00  0.00    +0.155 HD
BRANCH  27  29
ATOM     29  C   UNL     1       5.318   9.668  -2.240  0.00  0.00    +0.052 A 
ATOM     30  C   UNL     1       5.572  10.361  -1.064  0.00  0.00    +0.025 A 
ATOM     31  C   UNL     1       5.668  11.739  -1.083  0.00  0.00    +0.002 A 
ATOM     32  C   UNL     1       5.502  12.429  -2.270  0.00  0.00    +0.002 A 
ATOM     33  C   UNL     1       5.244  11.743  -3.442  0.00  0.00    +0.022 A 
ATOM     34  C   UNL     1       5.151  10.364  -3.431  0.00  0.00    +0.062 A 
ATOM     35 CL   UNL     1       4.827   9.503  -4.904  0.00  0.00    -0.082 Cl
ENDBRANCH  27  29
ENDBRANCH   2  25
TORSDOF 5
