REMARK  Name = ZINC15924436
REMARK  7 active torsions:
REMARK  status: ('A' for Active; 'I' for Inactive)
REMARK    1  A    between atoms: C_1  and  N_2
REMARK    2  A    between atoms: N_2  and  C_3
REMARK    3  A    between atoms: N_2  and  C_16
REMARK    4  A    between atoms: C_3  and  C_4
REMARK    5  A    between atoms: C_16  and  C_17
REMARK    6  A    between atoms: N_19  and  C_20
REMARK    7  A    between atoms: C_21  and  C_30
REMARK                            x       y       z     vdW  Elec       q    Type
REMARK                         _______ _______ _______ _____ _____    ______ ____
ROOT
ATOM      1  C   UNL     1       0.600  -0.516  -1.239  0.00  0.00    +0.181 C 
ENDROOT
BRANCH   1   2
ATOM      2  C   UNL     1      -0.286  -0.163  -2.406  0.00  0.00    +0.232 C 
ATOM      3  O   UNL     1      -1.314   0.454  -2.222  0.00  0.00    -0.274 OA
ATOM      4  N   UNL     1       0.064  -0.533  -3.653  0.00  0.00    -0.278 N 
ATOM      5  H   UNL     1       0.886  -1.026  -3.800  0.00  0.00    +0.155 HD
BRANCH   4   6
ATOM      6  C   UNL     1      -0.752  -0.207  -4.728  0.00  0.00    +0.090 A 
ATOM      7  C   UNL     1      -0.558  -0.506  -6.065  0.00  0.00    +0.084 A 
ATOM      8  C   UNL     1      -1.568  -0.049  -7.008  0.00  0.00    -0.018 A 
ATOM      9  C   UNL     1      -2.585   0.628  -6.434  0.00  0.00    -0.004 A 
ATOM     10  S   UNL     1      -2.205   0.632  -4.704  0.00  0.00    -0.077 S 
ATOM     11  C   UNL     1      -3.768   1.248  -7.110  0.00  0.00    +0.043 C 
ATOM     12  C   UNL     1      -4.395   0.223  -8.065  0.00  0.00    +0.005 C 
ATOM     13  C   UNL     1      -3.726   0.356  -9.430  0.00  0.00    +0.001 C 
ATOM     14  C   UNL     1      -2.261   0.757  -9.262  0.00  0.00    +0.005 C 
ATOM     15  C   UNL     1      -1.496  -0.322  -8.503  0.00  0.00    +0.037 C 
BRANCH   7  16
ATOM     16  C   UNL     1       0.593  -1.237  -6.504  0.00  0.00    +0.102 C 
ATOM     17  N   UNL     1       1.506  -1.816  -6.852  0.00  0.00    -0.191 NA
ENDBRANCH   7  16
ENDBRANCH   4   6
ENDBRANCH   1   2
BRANCH   1  19
ATOM     18  C   UNL     1      -0.018   1.465   0.010  0.00  0.00    +0.105 C 
ATOM     19  N   UNL     1       0.002  -0.004   0.002  0.00  0.00    -0.290 NA
BRANCH  19  20
ATOM     20  C   UNL     1       0.706  -0.527   1.180  0.00  0.00    +0.158 C 
BRANCH  20  21
ATOM     21  C   UNL     1      -0.073  -0.186   2.424  0.00  0.00    +0.124 A 
ATOM     22  N   UNL     1      -1.182   0.476   2.293  0.00  0.00    -0.232 NA
ATOM     23  H   UNL     1       1.250  -1.089   3.659  0.00  0.00    +0.170 HD
ATOM     24  C   UNL     1      -1.937   0.819   3.368  0.00  0.00    +0.078 A 
ATOM     25  C   UNL     1      -3.129   1.532   3.228  0.00  0.00    +0.028 A 
ATOM     26  C   UNL     1      -3.864   1.858   4.346  0.00  0.00    +0.002 A 
ATOM     27  C   UNL     1      -3.433   1.487   5.613  0.00  0.00    +0.001 A 
ATOM     28  C   UNL     1      -2.260   0.783   5.776  0.00  0.00    +0.015 A 
ATOM     29  C   UNL     1      -1.503   0.442   4.658  0.00  0.00    +0.065 A 
ATOM     30  C   UNL     1      -0.243  -0.308   4.771  0.00  0.00    +0.259 A 
ATOM     31  O   UNL     1       0.188  -0.662   5.853  0.00  0.00    -0.267 OA
ATOM     32  N   UNL     1       0.417  -0.593   3.624  0.00  0.00    -0.309 N 
ENDBRANCH  20  21
ENDBRANCH  19  20
ENDBRANCH   1  19
TORSDOF 6
