REMARK  Name = ZINC19627968
REMARK  6 active torsions:
REMARK  status: ('A' for Active; 'I' for Inactive)
REMARK    1  A    between atoms: C_2  and  C_3
REMARK    2  A    between atoms: C_3  and  N_4
REMARK    3  A    between atoms: C_7  and  C_10
REMARK    4  A    between atoms: C_16  and  C_18
REMARK    5  A    between atoms: C_18  and  N_19
REMARK    6  A    between atoms: C_28  and  C_30
REMARK                            x       y       z     vdW  Elec       q    Type
REMARK                         _______ _______ _______ _____ _____    ______ ____
ROOT
ATOM      1  N   UNL     1      -3.859  -3.969  -1.652  0.00  0.00    -0.245 N 
ATOM      2  C   UNL     1      -4.258  -4.217  -2.959  0.00  0.00    +0.168 A 
ATOM      3  N   UNL     1      -3.697  -3.833  -4.091  0.00  0.00    -0.224 NA
ATOM      4  C   UNL     1      -4.217  -4.163  -5.263  0.00  0.00    +0.080 A 
ATOM      5  C   UNL     1      -5.356  -4.917  -5.303  0.00  0.00    +0.076 A 
ATOM      6  S   UNL     1      -5.662  -5.148  -3.557  0.00  0.00    -0.060 S 
ATOM      7  C   UNL     1      -2.752  -3.240  -1.412  0.00  0.00    +0.243 C 
ATOM      8  O   UNL     1      -2.103  -2.800  -2.337  0.00  0.00    -0.273 OA
ENDROOT
BRANCH   4   9
ATOM      9  C   UNL     1      -3.569  -3.719  -6.521  0.00  0.00    +0.001 A 
ATOM     10  C   UNL     1      -4.116  -4.074  -7.753  0.00  0.00    +0.010 A 
ATOM     11  C   UNL     1      -3.512  -3.653  -8.920  0.00  0.00    +0.001 A 
ATOM     12  C   UNL     1      -2.359  -2.890  -8.870  0.00  0.00    +0.000 A 
ATOM     13  C   UNL     1      -1.808  -2.540  -7.650  0.00  0.00    +0.001 A 
ATOM     14  C   UNL     1      -2.407  -2.950  -6.476  0.00  0.00    +0.010 A 
ENDBRANCH   4   9
BRANCH   1  15
ATOM     15  C   UNL     1      -4.643  -4.500  -0.534  0.00  0.00    +0.142 C 
BRANCH  15  17
ATOM     16  C   UNL     1      -6.956  -3.852  -0.098  0.00  0.00    +0.005 C 
ATOM     17  C   UNL     1      -5.695  -3.498  -0.136  0.00  0.00    -0.015 C 
ENDBRANCH  15  17
ENDBRANCH   1  15
BRANCH   7  18
ATOM     18  C   UNL     1      -2.320  -2.970   0.007  0.00  0.00    +0.243 C 
BRANCH  18  19
ATOM     19  N   UNL     1      -1.098  -2.162   0.000  0.00  0.00    -0.219 N 
ATOM     20  C   UNL     1      -1.221  -0.819   0.009  0.00  0.00    +0.275 A 
ATOM     21  O   UNL     1      -2.319  -0.294   0.022  0.00  0.00    -0.266 OA
ATOM     22  C   UNL     1       0.002  -0.004   0.002  0.00  0.00    +0.050 A 
ATOM     23  C   UNL     1      -0.017   1.387   0.010  0.00  0.00    +0.014 A 
ATOM     24  C   UNL     1       1.176   2.079   0.002  0.00  0.00    +0.001 A 
ATOM     25  C   UNL     1       2.389   1.403  -0.013  0.00  0.00    +0.001 A 
ATOM     26  C   UNL     1       2.428   0.024  -0.021  0.00  0.00    +0.011 A 
ATOM     27  C   UNL     1       1.237  -0.693  -0.013  0.00  0.00    +0.020 A 
ATOM     28  C   UNL     1       1.192  -2.164  -0.021  0.00  0.00    +0.153 A 
ATOM     29  N   UNL     1       0.029  -2.768  -0.014  0.00  0.00    -0.162 NA
BRANCH  28  30
ATOM     30  C   UNL     1       2.442  -2.949  -0.038  0.00  0.00    +0.262 C 
ATOM     31  O   UNL     1       3.517  -2.381  -0.045  0.00  0.00    -0.269 OA
ATOM     32  N   UNL     1       2.392  -4.296  -0.045  0.00  0.00    -0.324 N 
ATOM     33  H   UNL     1       3.323  -4.881  -0.058  0.00  0.00    +0.145 HD
ATOM     34  H   UNL     1       1.419  -4.810  -0.039  0.00  0.00    +0.145 HD
ENDBRANCH  28  30
ENDBRANCH  18  19
ENDBRANCH   7  18
TORSDOF 6
