REMARK  Name = ZINC22859994
REMARK  9 active torsions:
REMARK  status: ('A' for Active; 'I' for Inactive)
REMARK    1  A    between atoms: C_1  and  C_2
REMARK    2  A    between atoms: C_5  and  N_9
REMARK    3  A    between atoms: C_6  and  C_8
REMARK    4  A    between atoms: C_10  and  C_12
REMARK    5  A    between atoms: C_12  and  S_13
REMARK    6  A    between atoms: S_13  and  C_14
REMARK    7  A    between atoms: C_17  and  C_25
REMARK    8  A    between atoms: N_18  and  C_19
REMARK    9  A    between atoms: C_25  and  N_26
REMARK                            x       y       z     vdW  Elec       q    Type
REMARK                         _______ _______ _______ _____ _____    ______ ____
ROOT
ATOM      1  C   UNL     1       0.158   0.934   2.735  0.00  0.00    +0.197 A 
ATOM      2  N   UNL     1       1.220   0.190   2.533  0.00  0.00    -0.122 NA
ATOM      3  N   UNL     1       1.728  -0.163   3.659  0.00  0.00    -0.135 NA
ATOM      4  C   UNL     1       1.023   0.322   4.641  0.00  0.00    +0.122 A 
ATOM      5  N   UNL     1      -0.004   1.040   4.089  0.00  0.00    -0.276 N 
ENDROOT
BRANCH   5   6
ATOM      6  C   UNL     1      -1.013   1.737   4.770  0.00  0.00    +0.050 A 
ATOM      7  C   UNL     1      -0.690   2.831   5.562  0.00  0.00    +0.026 A 
ATOM      8  C   UNL     1      -1.685   3.519   6.227  0.00  0.00    +0.002 A 
ATOM      9  C   UNL     1      -3.002   3.112   6.115  0.00  0.00    +0.000 A 
ATOM     10  C   UNL     1      -3.327   2.020   5.332  0.00  0.00    +0.002 A 
ATOM     11  C   UNL     1      -2.336   1.332   4.659  0.00  0.00    +0.026 A 
ENDBRANCH   5   6
BRANCH   1  12
ATOM     12  S   UNL     1      -0.869   1.655   1.497  0.00  0.00    -0.076 S 
BRANCH  12  13
ATOM     13  C   UNL     1      -0.021   1.073   0.008  0.00  0.00    +0.173 C 
BRANCH  13  15
ATOM     14  N   UNL     1      -0.288   1.272  -2.443  0.00  0.00    -0.285 N 
ATOM     15  C   UNL     1      -0.743   1.582  -1.213  0.00  0.00    +0.227 C 
ATOM     16  O   UNL     1      -1.734   2.271  -1.088  0.00  0.00    -0.275 OA
ATOM     17  H   UNL     1       0.659   0.725  -2.558  0.00  0.00    +0.155 HD
BRANCH  14  22
ATOM     18  C   UNL     1      -3.261   2.789  -7.031  0.00  0.00    +0.044 C 
ATOM     19  C   UNL     1      -2.471   2.386  -5.812  0.00  0.00    -0.050 A 
ATOM     20  C   UNL     1      -3.112   2.222  -4.598  0.00  0.00    +0.005 A 
ATOM     21  C   UNL     1      -2.392   1.853  -3.479  0.00  0.00    +0.024 A 
ATOM     22  C   UNL     1      -1.022   1.646  -3.575  0.00  0.00    +0.036 A 
ATOM     23  C   UNL     1      -0.380   1.818  -4.794  0.00  0.00    -0.029 A 
ATOM     24  C   UNL     1      -1.107   2.182  -5.910  0.00  0.00    +0.008 A 
ATOM     25  C   UNL     1       1.108   1.602  -4.900  0.00  0.00    +0.045 C 
ENDBRANCH  14  22
ENDBRANCH  13  15
ENDBRANCH  12  13
ENDBRANCH   1  12
BRANCH   4  26
ATOM     26  C   UNL     1       1.289   0.129   6.112  0.00  0.00    -0.001 C 
BRANCH  26  27
ATOM     27  N   UNL     1       0.584  -1.071   6.583  0.00  0.00    +0.384 N 
ATOM     28  C   UNL     1      -0.871  -0.891   6.507  0.00  0.00    -0.078 C 
ATOM     29  C   UNL     1      -1.569  -2.205   6.865  0.00  0.00    -0.019 C 
ATOM     30  C   UNL     1      -1.162  -2.623   8.281  0.00  0.00    -0.004 C 
ATOM     31  C   UNL     1       0.362  -2.757   8.347  0.00  0.00    -0.019 C 
ATOM     32  C   UNL     1       1.004  -1.427   7.945  0.00  0.00    -0.078 C 
ATOM     33  H   UNL     1       0.854  -1.906   5.920  0.00  0.00    -0.081 HD
ENDBRANCH  26  27
ENDBRANCH   4  26
TORSDOF 7
