REMARK  Name = ZINC65168212
REMARK  5 active torsions:
REMARK  status: ('A' for Active; 'I' for Inactive)
REMARK    1  A    between atoms: C_1  and  C_2
REMARK    2  A    between atoms: C_2  and  C_3
REMARK    3  A    between atoms: C_2  and  C_4
REMARK    4  A    between atoms: C_8  and  C_10
REMARK    5  A    between atoms: C_16  and  C_18
REMARK                            x       y       z     vdW  Elec       q    Type
REMARK                         _______ _______ _______ _____ _____    ______ ____
ROOT
ATOM      1  C   UNL     1      -1.709  -2.715   1.278  0.00  0.00    +0.013 C 
ATOM      2  C   UNL     1      -3.120  -2.349   1.743  0.00  0.00    +0.024 C 
ATOM      3  C   UNL     1      -3.372  -2.960   3.125  0.00  0.00    +0.108 C 
ATOM      4  N   UNL     1      -3.114  -4.405   3.058  0.00  0.00    -0.300 N 
ATOM      5  C   UNL     1      -1.820  -4.868   2.539  0.00  0.00    +0.108 C 
ATOM      6  C   UNL     1      -1.585  -4.236   1.164  0.00  0.00    +0.024 C 
ATOM      7  C   UNL     1      -4.047  -5.288   3.465  0.00  0.00    +0.242 C 
ATOM      8  O   UNL     1      -5.111  -4.893   3.892  0.00  0.00    -0.273 OA
ENDROOT
BRANCH   7   9
ATOM      9  C   UNL     1      -3.767  -6.767   3.390  0.00  0.00    +0.190 C 
ATOM     10  C   UNL     1      -2.597  -7.122   4.280  0.00  0.00    +0.016 C 
ATOM     11  C   UNL     1      -3.074  -7.995   5.196  0.00  0.00    -0.004 A 
ATOM     12  C   UNL     1      -2.445  -8.700   6.319  0.00  0.00    +0.010 A 
ATOM     13  C   UNL     1      -3.197  -9.531   7.077  0.00  0.00    +0.001 A 
ATOM     14  C   UNL     1      -4.559  -9.734   6.817  0.00  0.00    +0.002 A 
ATOM     15  C   UNL     1      -5.207  -9.122   5.803  0.00  0.00    +0.026 A 
ATOM     16  C   UNL     1      -4.514  -8.228   4.942  0.00  0.00    +0.043 A 
ATOM     17  N   UNL     1      -4.912  -7.525   3.908  0.00  0.00    -0.370 N 
ATOM     18  H   UNL     1      -5.812  -7.509   3.545  0.00  0.00    +0.161 HD
ENDBRANCH   7   9
BRANCH   1  23
ATOM     19  C   UNL     1      -1.433  -0.534   0.013  0.00  0.00    +0.099 C 
ATOM     20  C   UNL     1      -2.178  -0.073  -1.226  0.00  0.00    +0.213 C 
ATOM     21  O   UNL     1      -2.492  -1.174  -1.955  0.00  0.00    -0.391 OA
ATOM     22  N   UNL     1      -2.581  -2.312  -1.019  0.00  0.00    -0.150 NA
ATOM     23  C   UNL     1      -1.441  -2.078  -0.087  0.00  0.00    +0.108 C 
ATOM     24  N   UNL     1      -2.462   1.148  -1.532  0.00  0.00    -0.269 NA
ATOM     25  H   UNL     1      -2.476  -3.190  -1.506  0.00  0.00    +0.167 HD
ATOM     26  H   UNL     1      -2.944   1.343  -2.351  0.00  0.00    +0.190 HD
BRANCH  19  28
ATOM     27  C   UNL     1      -0.019   1.526   0.010  0.00  0.00    +0.008 C 
ATOM     28  C   UNL     1       0.002  -0.004   0.002  0.00  0.00    -0.004 C 
ATOM     29  C   UNL     1       0.742  -0.511   1.242  0.00  0.00    +0.008 C 
ENDBRANCH  19  28
ENDBRANCH   1  23
TORSDOF 3
