REMARK  Name = ZINC00662819
REMARK  9 active torsions:
REMARK  status: ('A' for Active; 'I' for Inactive)
REMARK    1  A    between atoms: C_1  and  C_2
REMARK    2  A    between atoms: C_2  and  C_3
REMARK    3  A    between atoms: C_2  and  C_4
REMARK    4  A    between atoms: C_2  and  C_5
REMARK    5  A    between atoms: C_9  and  C_12
REMARK    6  A    between atoms: C_12  and  C_13
REMARK    7  A    between atoms: C_12  and  C_14
REMARK    8  A    between atoms: C_12  and  C_15
REMARK    9  A    between atoms: C_16  and  C_26
REMARK                            x       y       z     vdW  Elec       q    Type
REMARK                         _______ _______ _______ _____ _____    ______ ____
ROOT
ATOM      1  C   UNL     1      -3.651   1.167  -2.458  0.00  0.00    +0.003 C 
ATOM      2  C   UNL     1      -2.531   1.059  -1.757  0.00  0.00    +0.014 C 
ATOM      3  C   UNL     1      -2.462   1.296  -0.279  0.00  0.00    +0.111 C 
ATOM      4  C   UNL     1      -3.656   2.034   0.244  0.00  0.00    +0.014 C 
ATOM      5  C   UNL     1      -4.790   2.154  -0.433  0.00  0.00    +0.003 C 
ATOM      6  C   UNL     1      -4.901   1.550  -1.774  0.00  0.00    +0.186 C 
ATOM      7  O   UNL     1      -5.985   1.374  -2.299  0.00  0.00    -0.287 OA
ATOM      8  C   UNL     1      -2.343  -0.054   0.447  0.00  0.00    +0.227 C 
ATOM      9  O   UNL     1      -1.157  -0.715  -0.000  0.00  0.00    -0.480 OA
ATOM     10  C   UNL     1       0.002  -0.004   0.002  0.00  0.00    +0.142 A 
ATOM     11  C   UNL     1       1.217  -0.672  -0.008  0.00  0.00    +0.047 A 
ATOM     12  C   UNL     1       2.400   0.044  -0.014  0.00  0.00    +0.004 A 
ATOM     13  C   UNL     1       2.379   1.426  -0.010  0.00  0.00    +0.002 A 
ATOM     14  C   UNL     1       1.172   2.100   0.002  0.00  0.00    +0.026 A 
ATOM     15  C   UNL     1      -0.017   1.388   0.010  0.00  0.00    +0.070 A 
ATOM     16  N   UNL     1      -1.244   2.069   0.031  0.00  0.00    -0.325 N 
ATOM     17  H   UNL     1      -1.290   3.014   0.241  0.00  0.00    +0.147 HD
ENDROOT
BRANCH   1  19
ATOM     18  C   UNL     1      -2.233   0.525  -4.388  0.00  0.00    +0.015 C 
ATOM     19  C   UNL     1      -3.647   0.900  -3.941  0.00  0.00    -0.009 C 
ATOM     20  C   UNL     1      -4.603  -0.253  -4.254  0.00  0.00    +0.015 C 
ATOM     21  C   UNL     1      -4.102   2.157  -4.686  0.00  0.00    +0.015 C 
ENDBRANCH   1  19
BRANCH   5  22
ATOM     22  C   UNL     1      -5.955   2.900   0.162  0.00  0.00    -0.009 C 
ATOM     23  C   UNL     1      -5.573   3.420   1.550  0.00  0.00    +0.015 C 
ATOM     24  C   UNL     1      -6.321   4.080  -0.741  0.00  0.00    +0.015 C 
ATOM     25  C   UNL     1      -7.155   1.959   0.283  0.00  0.00    +0.015 C 
ENDBRANCH   5  22
BRANCH   8  26
ATOM     26  C   UNL     1      -2.264   0.174   1.934  0.00  0.00    +0.012 C 
ATOM     27  C   UNL     1      -3.166  -0.350   2.726  0.00  0.00    +0.007 C 
ENDBRANCH   8  26
TORSDOF 3
