REMARK  Name = ZINC43477845
REMARK  3 active torsions:
REMARK  status: ('A' for Active; 'I' for Inactive)
REMARK    1  A    between atoms: C_6  and  C_10
REMARK    2  A    between atoms: C_10  and  N_11
REMARK    3  A    between atoms: C_18  and  C_20
REMARK                            x       y       z     vdW  Elec       q    Type
REMARK                         _______ _______ _______ _____ _____    ______ ____
ROOT
ATOM      1  N   UNL     1       3.802  -3.882   1.317  0.00  0.00    -0.294 N 
ATOM      2  C   UNL     1       4.454  -5.038   1.549  0.00  0.00    +0.303 C 
ATOM      3  O   UNL     1       4.913  -5.674   0.619  0.00  0.00    -0.253 OA
ATOM      4  N   UNL     1       4.598  -5.490   2.810  0.00  0.00    -0.278 N 
ATOM      5  C   UNL     1       4.089  -4.826   4.024  0.00  0.00    +0.110 C 
ATOM      6  C   UNL     1       4.995  -5.343   5.169  0.00  0.00    +0.021 C 
ATOM      7  C   UNL     1       5.224  -6.817   4.743  0.00  0.00    +0.029 C 
ATOM      8  C   UNL     1       5.284  -6.729   3.204  0.00  0.00    +0.114 C 
ATOM      9  H   UNL     1       3.436  -3.375   2.058  0.00  0.00    +0.151 HD
ENDROOT
BRANCH   8  10
ATOM     10  C   UNL     1       4.587  -7.917   2.592  0.00  0.00    +0.010 A 
ATOM     11  C   UNL     1       5.124  -9.050   2.078  0.00  0.00    +0.013 A 
ATOM     12  C   UNL     1       4.281 -10.018   1.564  0.00  0.00    +0.008 A 
ATOM     13  C   UNL     1       2.942  -9.806   1.591  0.00  0.00    +0.045 A 
ATOM     14  S   UNL     1       2.839  -8.200   2.365  0.00  0.00    -0.100 S 
ENDBRANCH   8  10
BRANCH   1  15
ATOM     15  C   UNL     1       3.645  -3.391  -0.054  0.00  0.00    +0.162 C 
BRANCH  15  21
ATOM     16  C   UNL     1      -0.016   1.356   0.009  0.00  0.00    +0.005 A 
ATOM     17  C   UNL     1       1.194   2.068   0.002  0.00  0.00    +0.018 A 
ATOM     18  C   UNL     1       2.372   1.409  -0.013  0.00  0.00    +0.092 A 
ATOM     19  N   UNL     1       2.405   0.045  -0.021  0.00  0.00    -0.306 N 
ATOM     20  C   UNL     1       3.434  -0.856  -0.037  0.00  0.00    +0.117 A 
ATOM     21  C   UNL     1       2.885  -2.090  -0.039  0.00  0.00    +0.077 A 
ATOM     22  N   UNL     1       1.556  -1.965  -0.025  0.00  0.00    -0.231 NA
ATOM     23  C   UNL     1       1.240  -0.678  -0.014  0.00  0.00    +0.138 A 
ATOM     24  C   UNL     1       0.002  -0.004   0.002  0.00  0.00    +0.047 A 
ENDBRANCH  15  21
ENDBRANCH   1  15
TORSDOF 3
