REMARK  Name = ZINC09209065
REMARK  9 active torsions:
REMARK  status: ('A' for Active; 'I' for Inactive)
REMARK    1  A    between atoms: C_1  and  O_2
REMARK    2  A    between atoms: O_2  and  C_3
REMARK    3  A    between atoms: C_6  and  N_11
REMARK    4  A    between atoms: C_7  and  O_9
REMARK    5  A    between atoms: O_9  and  C_10
REMARK    6  A    between atoms: C_14  and  C_17
REMARK    7  A    between atoms: N_19  and  C_20
REMARK    8  A    between atoms: C_20  and  C_21
REMARK    9  A    between atoms: C_21  and  C_22
REMARK                            x       y       z     vdW  Elec       q    Type
REMARK                         _______ _______ _______ _____ _____    ______ ____
ROOT
ATOM      1  N   UNL     1      -0.011   0.966   0.007  0.00  0.00    -0.291 N 
ATOM      2  C   UNL     1       1.277   1.471  -0.048  0.00  0.00    +0.163 A 
ATOM      3  N   UNL     1       2.426   0.830   0.037  0.00  0.00    -0.220 NA
ATOM      4  C   UNL     1       3.588   1.483  -0.038  0.00  0.00    +0.135 A 
ATOM      5  C   UNL     1       3.578   2.845  -0.206  0.00  0.00    +0.081 A 
ATOM      6  S   UNL     1       1.819   3.160  -0.262  0.00  0.00    -0.060 S 
ATOM      7  H   UNL     1      -0.157   0.032   0.225  0.00  0.00    +0.154 HD
ENDROOT
BRANCH   1  11
ATOM      8  C   UNL     1      -3.265   3.461  -0.777  0.00  0.00    +0.124 A 
ATOM      9  C   UNL     1      -2.050   3.683  -1.408  0.00  0.00    +0.047 A 
ATOM     10  C   UNL     1      -0.971   2.860  -1.145  0.00  0.00    +0.030 A 
ATOM     11  C   UNL     1      -1.104   1.804  -0.256  0.00  0.00    +0.075 A 
ATOM     12  C   UNL     1      -2.324   1.579   0.379  0.00  0.00    +0.145 A 
ATOM     13  C   UNL     1      -3.402   2.409   0.116  0.00  0.00    +0.093 A 
BRANCH   8  15
ATOM     14  C   UNL     1      -4.111   5.339  -1.964  0.00  0.00    +0.277 C 
ATOM     15  O   UNL     1      -4.323   4.276  -1.034  0.00  0.00    -0.495 OA
ENDBRANCH   8  15
BRANCH  12  16
ATOM     16  O   UNL     1      -2.456   0.547   1.254  0.00  0.00    -0.493 OA
ATOM     17  C   UNL     1      -3.736   0.376   1.867  0.00  0.00    +0.277 C 
ENDBRANCH  12  16
ENDBRANCH   1  11
BRANCH   4  18
ATOM     18  C   UNL     1       4.862   0.752   0.060  0.00  0.00    +0.263 C 
ATOM     19  O   UNL     1       5.916   1.356  -0.009  0.00  0.00    -0.269 OA
ATOM     20  N   UNL     1       4.861  -0.586   0.225  0.00  0.00    -0.310 N 
ATOM     21  H   UNL     1       4.021  -1.067   0.280  0.00  0.00    +0.149 HD
BRANCH  20  22
ATOM     22  C   UNL     1       6.129  -1.313   0.322  0.00  0.00    +0.109 C 
BRANCH  22  23
ATOM     23  C   UNL     1       5.848  -2.805   0.505  0.00  0.00    +0.049 C 
BRANCH  23  24
ATOM     24  C   UNL     1       7.153  -3.553   0.605  0.00  0.00    -0.072 C 
ATOM     25  C   UNL     1       7.622  -3.800   1.786  0.00  0.00    -0.028 C 
ATOM     26  C   UNL     1       8.911  -4.525   2.044  0.00  0.00    +0.027 C 
ATOM     27  C   UNL     1       9.352  -5.280   0.788  0.00  0.00    +0.004 C 
ATOM     28  C   UNL     1       9.293  -4.315  -0.403  0.00  0.00    +0.005 C 
ATOM     29  C   UNL     1       7.824  -3.971  -0.671  0.00  0.00    +0.030 C 
ENDBRANCH  23  24
ENDBRANCH  22  23
ENDBRANCH  20  22
ENDBRANCH   4  18
TORSDOF 7
