REMARK  Name = ZINC04663671
REMARK  5 active torsions:
REMARK  status: ('A' for Active; 'I' for Inactive)
REMARK    1  A    between atoms: C_1  and  C_2
REMARK    2  A    between atoms: C_11  and  S_15
REMARK    3  A    between atoms: S_15  and  C_16
REMARK    4  A    between atoms: C_16  and  C_17
REMARK    5  A    between atoms: C_16  and  C_18
REMARK                            x       y       z     vdW  Elec       q    Type
REMARK                         _______ _______ _______ _____ _____    ______ ____
ROOT
ATOM      1  C   UNL     1      -0.892  -3.890  -0.712  0.00  0.00    +0.008 C 
ATOM      2  C   UNL     1      -1.990  -2.832  -0.838  0.00  0.00    -0.009 C 
ATOM      3  C   UNL     1      -3.238  -3.300  -0.084  0.00  0.00    +0.009 C 
ATOM      4  C   UNL     1      -4.403  -2.363  -0.432  0.00  0.00    +0.043 C 
ATOM      5  C   UNL     1      -3.928  -0.948  -0.299  0.00  0.00    -0.004 A 
ATOM      6  C   UNL     1      -2.652  -0.519  -0.214  0.00  0.00    -0.024 A 
ATOM      7  C   UNL     1      -2.444   0.925  -0.088  0.00  0.00    +0.051 A 
ATOM      8  C   UNL     1      -1.218   1.641   0.017  0.00  0.00    +0.129 A 
ATOM      9  N   UNL     1      -1.246   2.958   0.129  0.00  0.00    -0.207 NA
ATOM     10  C   UNL     1      -2.385   3.642   0.137  0.00  0.00    +0.191 A 
ATOM     11  N   UNL     1      -3.557   3.027   0.042  0.00  0.00    -0.215 NA
ATOM     12  C   UNL     1      -3.611   1.714  -0.068  0.00  0.00    +0.115 A 
ATOM     13  S   UNL     1      -4.916   0.522  -0.217  0.00  0.00    -0.073 S 
ATOM     14  N   UNL     1      -0.011   0.966   0.007  0.00  0.00    -0.343 N 
ATOM     15  C   UNL     1      -1.493  -1.511  -0.250  0.00  0.00    +0.040 C 
ATOM     16  H   UNL     1       0.814   1.449  -0.156  0.00  0.00    +0.144 HD
ATOM     17  H   UNL     1       0.011   0.009   0.168  0.00  0.00    +0.144 HD
ENDROOT
BRANCH  10  18
ATOM     18  S   UNL     1      -2.339   5.397   0.283  0.00  0.00    -0.083 S 
BRANCH  18  19
ATOM     19  C   UNL     1      -0.550   5.658   0.372  0.00  0.00    +0.048 C 
ATOM     20  C   UNL     1       0.093   5.237  -0.951  0.00  0.00    +0.019 C 
ATOM     21  C   UNL     1      -0.262   7.138   0.630  0.00  0.00    +0.019 C 
ENDBRANCH  18  19
ENDBRANCH  10  18
TORSDOF 2
