REMARK  Name = ZINC09469945
REMARK  7 active torsions:
REMARK  status: ('A' for Active; 'I' for Inactive)
REMARK    1  A    between atoms: C_1  and  C_2
REMARK    2  A    between atoms: C_2  and  C_4
REMARK    3  A    between atoms: C_8  and  N_10
REMARK    4  A    between atoms: N_10  and  C_11
REMARK    5  A    between atoms: C_11  and  C_12
REMARK    6  A    between atoms: C_15  and  C_29
REMARK    7  A    between atoms: C_18  and  C_20
REMARK                            x       y       z     vdW  Elec       q    Type
REMARK                         _______ _______ _______ _____ _____    ______ ____
ROOT
ATOM      1  C   UNL     1       3.960   5.879  -0.006  0.00  0.00    +0.252 C 
ATOM      2  O   UNL     1       3.891   7.090   0.002  0.00  0.00    -0.272 OA
ATOM      3  N   UNL     1       2.833   5.140   0.002  0.00  0.00    -0.181 N 
ATOM      4  C   UNL     1       1.461   5.671   0.019  0.00  0.00    +0.173 C 
ATOM      5  C   UNL     1       0.582   4.405   0.015  0.00  0.00    +0.093 C 
ATOM      6  C   UNL     1       1.579   3.268   0.005  0.00  0.00    +0.104 C 
ATOM      7  N   UNL     1       2.778   3.747  -0.005  0.00  0.00    -0.178 NA
ENDROOT
BRANCH   6   8
ATOM      8  C   UNL     1       1.237   1.842   0.000  0.00  0.00    +0.152 A 
ATOM      9  C   UNL     1       2.136   0.822  -0.014  0.00  0.00    +0.059 A 
ATOM     10  C   UNL     1       1.349  -0.411  -0.013  0.00  0.00    +0.021 A 
ATOM     11  C   UNL     1       1.669  -1.770  -0.024  0.00  0.00    +0.011 A 
ATOM     12  C   UNL     1       0.669  -2.703  -0.019  0.00  0.00    +0.001 A 
ATOM     13  C   UNL     1      -0.660  -2.306  -0.004  0.00  0.00    +0.004 A 
ATOM     14  C   UNL     1      -0.997  -0.969   0.006  0.00  0.00    +0.047 A 
ATOM     15  C   UNL     1       0.002  -0.004   0.002  0.00  0.00    +0.136 A 
ATOM     16  O   UNL     1      -0.016   1.344   0.009  0.00  0.00    -0.454 OA
ENDBRANCH   6   8
BRANCH   4  17
ATOM     17  C   UNL     1       1.224   6.487   1.264  0.00  0.00    +0.128 A 
ATOM     18  C   UNL     1       0.513   7.626   1.334  0.00  0.00    +0.046 A 
ATOM     19  C   UNL     1       0.550   8.050   2.682  0.00  0.00    +0.041 A 
ATOM     20  C   UNL     1       1.282   7.144   3.356  0.00  0.00    +0.195 A 
ATOM     21  O   UNL     1       1.683   6.197   2.492  0.00  0.00    -0.466 OA
ENDBRANCH   4  17
BRANCH   1  22
ATOM     22  C   UNL     1       5.306   5.202  -0.023  0.00  0.00    +0.199 C 
BRANCH  22  23
ATOM     23  N   UNL     1       6.363   6.216  -0.028  0.00  0.00    -0.335 N 
ATOM     24  H   UNL     1       6.132   7.158  -0.021  0.00  0.00    +0.147 HD
BRANCH  23  29
ATOM     25  C   UNL     1      10.045   6.391  -0.066  0.00  0.00    +0.019 A 
ATOM     26  C   UNL     1      10.367   5.029  -0.076  0.00  0.00    +0.011 A 
ATOM     27  C   UNL     1       9.362   4.084  -0.070  0.00  0.00    +0.002 A 
ATOM     28  C   UNL     1       8.036   4.476  -0.054  0.00  0.00    +0.023 A 
ATOM     29  C   UNL     1       7.705   5.826  -0.044  0.00  0.00    +0.028 A 
ATOM     30  C   UNL     1       8.705   6.786  -0.055  0.00  0.00    +0.034 A 
BRANCH  25  32
ATOM     31  C   UNL     1      12.558   6.973  -0.090  0.00  0.00    +0.091 C 
ATOM     32  C   UNL     1      11.114   7.402  -0.073  0.00  0.00    +0.160 C 
ATOM     33  O   UNL     1      10.832   8.582  -0.064  0.00  0.00    -0.292 OA
ENDBRANCH  25  32
ENDBRANCH  23  29
ENDBRANCH  22  23
ENDBRANCH   1  22
TORSDOF 6
