REMARK  Name = ZINC10383699
REMARK  10 active torsions:
REMARK  status: ('A' for Active; 'I' for Inactive)
REMARK    1  A    between atoms: C_1  and  C_2
REMARK    2  A    between atoms: C_2  and  O_3
REMARK    3  A    between atoms: O_3  and  C_4
REMARK    4  A    between atoms: C_4  and  C_6
REMARK    5  A    between atoms: C_10  and  N_24
REMARK    6  A    between atoms: N_14  and  C_16
REMARK    7  A    between atoms: C_19  and  C_23
REMARK    8  A    between atoms: C_20  and  C_22
REMARK    9  A    between atoms: C_25  and  C_27
REMARK   10  A    between atoms: C_27  and  C_28
REMARK                            x       y       z     vdW  Elec       q    Type
REMARK                         _______ _______ _______ _____ _____    ______ ____
ROOT
ATOM      1  C   UNL     1       4.615   4.246  -0.133  0.00  0.00    +0.177 A 
ATOM      2  C   UNL     1       5.955   3.598  -0.040  0.00  0.00    +0.030 A 
ATOM      3  C   UNL     1       7.170   4.229  -0.041  0.00  0.00    +0.058 A 
ATOM      4  S   UNL     1       8.342   2.901   0.093  0.00  0.00    -0.080 S 
ATOM      5  C   UNL     1       7.259   1.557   0.148  0.00  0.00    +0.085 A 
ATOM      6  C   UNL     1       5.991   2.136   0.063  0.00  0.00    +0.079 A 
ATOM      7  C   UNL     1       4.735   1.445   0.072  0.00  0.00    +0.282 A 
ATOM      8  O   UNL     1       4.715   0.230   0.161  0.00  0.00    -0.265 OA
ATOM      9  N   UNL     1       3.584   2.123  -0.021  0.00  0.00    -0.195 N 
ATOM     10  N   UNL     1       3.537   3.512  -0.120  0.00  0.00    -0.156 NA
ENDROOT
BRANCH   9  11
ATOM     11  C   UNL     1       2.381   1.409  -0.013  0.00  0.00    +0.070 A 
ATOM     12  C   UNL     1       2.216   0.314  -0.853  0.00  0.00    +0.028 A 
ATOM     13  C   UNL     1       1.028  -0.389  -0.843  0.00  0.00    +0.006 A 
ATOM     14  C   UNL     1       0.002  -0.004   0.002  0.00  0.00    -0.047 A 
ATOM     15  C   UNL     1       0.163   1.084   0.839  0.00  0.00    -0.046 A 
ATOM     16  C   UNL     1       1.349   1.792   0.834  0.00  0.00    +0.031 A 
ATOM     17  C   UNL     1      -0.959   1.503   1.753  0.00  0.00    +0.044 C 
ATOM     18  C   UNL     1      -1.294  -0.773   0.010  0.00  0.00    +0.044 C 
ENDBRANCH   9  11
BRANCH   5  19
ATOM     19  N   UNL     1       7.576   0.209   0.254  0.00  0.00    -0.279 N 
ATOM     20  C   UNL     1       8.866  -0.176   0.325  0.00  0.00    +0.222 C 
ATOM     21  O   UNL     1       9.749   0.655   0.298  0.00  0.00    -0.275 OA
ATOM     22  H   UNL     1       6.870  -0.455   0.275  0.00  0.00    +0.155 HD
BRANCH  20  23
ATOM     23  C   UNL     1       9.210  -1.639   0.439  0.00  0.00    +0.138 C 
BRANCH  23  24
ATOM     24  C   UNL     1      10.707  -1.799   0.502  0.00  0.00    -0.001 A 
ATOM     25  C   UNL     1      11.519  -1.811   1.588  0.00  0.00    +0.011 A 
ATOM     26  C   UNL     1      12.879  -1.978   1.405  0.00  0.00    +0.008 A 
ATOM     27  C   UNL     1      13.362  -2.113   0.146  0.00  0.00    +0.045 A 
ATOM     28  S   UNL     1      11.872  -2.015  -0.833  0.00  0.00    -0.101 S 
ENDBRANCH  23  24
ENDBRANCH  20  23
ENDBRANCH   5  19
BRANCH   1  29
ATOM     29  C   UNL     1       4.510   5.712  -0.239  0.00  0.00    +0.360 C 
ATOM     30  O   UNL     1       5.515   6.395  -0.251  0.00  0.00    -0.243 OA
BRANCH  29  31
ATOM     31  O   UNL     1       3.298   6.297  -0.324  0.00  0.00    -0.460 OA
BRANCH  31  33
ATOM     32  C   UNL     1       1.819   8.222  -0.511  0.00  0.00    +0.048 C 
ATOM     33  C   UNL     1       3.270   7.745  -0.426  0.00  0.00    +0.229 C 
ENDBRANCH  31  33
ENDBRANCH  29  31
ENDBRANCH   1  29
TORSDOF 7
