REMARK  Name = ZINC40171692
REMARK  10 active torsions:
REMARK  status: ('A' for Active; 'I' for Inactive)
REMARK    1  A    between atoms: C_1  and  C_2
REMARK    2  A    between atoms: C_4  and  C_31
REMARK    3  A    between atoms: C_6  and  S_8
REMARK    4  A    between atoms: S_8  and  C_9
REMARK    5  A    between atoms: C_9  and  C_11
REMARK    6  A    between atoms: C_9  and  C_12
REMARK    7  A    between atoms: N_14  and  C_15
REMARK    8  A    between atoms: C_18  and  S_21
REMARK    9  A    between atoms: S_21  and  N_24
REMARK   10  A    between atoms: N_24  and  C_25
REMARK                            x       y       z     vdW  Elec       q    Type
REMARK                         _______ _______ _______ _____ _____    ______ ____
ROOT
ATOM      1  C   UNL     1      -0.069  -2.101   5.344  0.00  0.00    +0.230 C 
ATOM      2  O   UNL     1       0.305  -3.237   5.544  0.00  0.00    -0.274 OA
ATOM      3  N   UNL     1      -0.588  -1.375   6.354  0.00  0.00    -0.285 N 
ATOM      4  H   UNL     1      -0.825  -0.445   6.211  0.00  0.00    +0.155 HD
ENDROOT
BRANCH   3   5
ATOM      5  C   UNL     1      -0.787  -1.962   7.608  0.00  0.00    +0.034 A 
ATOM      6  C   UNL     1      -1.882  -1.599   8.381  0.00  0.00    +0.025 A 
ATOM      7  C   UNL     1      -2.075  -2.181   9.619  0.00  0.00    +0.030 A 
ATOM      8  C   UNL     1      -1.179  -3.124  10.088  0.00  0.00    +0.105 A 
ATOM      9  C   UNL     1      -0.087  -3.487   9.321  0.00  0.00    +0.030 A 
ATOM     10  C   UNL     1       0.108  -2.913   8.080  0.00  0.00    +0.025 A 
BRANCH   8  11
ATOM     11  S   UNL     1      -1.429  -3.864  11.668  0.00  0.00    +0.059 S 
ATOM     12  O   UNL     1      -0.156  -4.313  12.112  0.00  0.00    -0.153 OA
ATOM     13  O   UNL     1      -2.221  -2.955  12.421  0.00  0.00    -0.153 OA
BRANCH  11  14
ATOM     14  N   UNL     1      -2.353  -5.217  11.434  0.00  0.00    -0.187 NA
ATOM     15  H   UNL     1      -3.247  -5.265  11.809  0.00  0.00    +0.148 HD
BRANCH  14  16
ATOM     16  C   UNL     1      -1.822  -6.343  10.661  0.00  0.00    +0.077 C 
ATOM     17  C   UNL     1      -2.280  -6.223   9.206  0.00  0.00    +0.020 C 
ATOM     18  C   UNL     1      -1.725  -7.399   8.399  0.00  0.00    +0.002 C 
ATOM     19  C   UNL     1      -2.241  -8.712   8.990  0.00  0.00    +0.000 C 
ATOM     20  C   UNL     1      -1.784  -8.831  10.445  0.00  0.00    +0.002 C 
ATOM     21  C   UNL     1      -2.338  -7.656  11.252  0.00  0.00    +0.020 C 
ENDBRANCH  14  16
ENDBRANCH  11  14
ENDBRANCH   8  11
ENDBRANCH   3   5
BRANCH   1  22
ATOM     22  C   UNL     1       0.048  -1.500   3.967  0.00  0.00    +0.136 C 
ATOM     23  C   UNL     1       1.350  -0.702   3.867  0.00  0.00    +0.029 C 
BRANCH  22  24
ATOM     24  S   UNL     1       0.056  -2.826   2.728  0.00  0.00    -0.093 S 
BRANCH  24  30
ATOM     25  C   UNL     1       0.018   1.516   0.020  0.00  0.00    +0.088 C 
ATOM     26  C   UNL     1       0.029   0.010   0.008  0.00  0.00    +0.128 A 
ATOM     27  N   UNL     1       0.032  -0.619  -1.149  0.00  0.00    -0.232 NA
ATOM     28  C   UNL     1       0.042  -1.952  -1.204  0.00  0.00    +0.076 A 
ATOM     29  C   UNL     1       0.050  -2.676  -0.015  0.00  0.00    +0.063 A 
ATOM     30  C   UNL     1       0.047  -1.970   1.188  0.00  0.00    +0.102 A 
ATOM     31  N   UNL     1       0.042  -0.639   1.155  0.00  0.00    -0.226 NA
BRANCH  28  32
ATOM     32  C   UNL     1       0.044  -2.652  -2.512  0.00  0.00    +0.000 A 
ATOM     33  C   UNL     1       0.049  -4.045  -2.560  0.00  0.00    +0.010 A 
ATOM     34  C   UNL     1       0.051  -4.691  -3.779  0.00  0.00    +0.001 A 
ATOM     35  C   UNL     1       0.049  -3.958  -4.953  0.00  0.00    +0.000 A 
ATOM     36  C   UNL     1       0.044  -2.576  -4.911  0.00  0.00    +0.001 A 
ATOM     37  C   UNL     1       0.036  -1.919  -3.697  0.00  0.00    +0.010 A 
ENDBRANCH  28  32
ENDBRANCH  24  30
ENDBRANCH  22  24
ENDBRANCH   1  22
TORSDOF 8
