REMARK  Name = ZINC12455887
REMARK  12 active torsions:
REMARK  status: ('A' for Active; 'I' for Inactive)
REMARK    1  A    between atoms: C_1  and  C_2
REMARK    2  A    between atoms: C_9  and  O_13
REMARK    3  A    between atoms: O_13  and  C_14
REMARK    4  A    between atoms: C_15  and  C_16
REMARK    5  A    between atoms: C_15  and  N_60
REMARK    6  A    between atoms: N_18  and  C_19
REMARK    7  A    between atoms: C_19  and  C_20
REMARK    8  A    between atoms: C_20  and  C_21
REMARK    9  A    between atoms: C_24  and  O_29
REMARK   10  A    between atoms: C_25  and  O_27
REMARK   11  A    between atoms: O_27  and  C_28
REMARK   12  A    between atoms: O_29  and  C_30
REMARK                            x       y       z     vdW  Elec       q    Type
REMARK                         _______ _______ _______ _____ _____    ______ ____
ROOT
ATOM      1  C   UNL     1       1.112   7.737   2.643  0.00  0.00    +0.019 C 
ENDROOT
BRANCH   1  13
ATOM      2  C   UNL     1       3.727   8.733   6.630  0.00  0.00    +0.050 C 
ATOM      3  C   UNL     1       2.319   8.841   6.041  0.00  0.00    +0.154 C 
ATOM      4  C   UNL     1       2.265   8.074   4.737  0.00  0.00    -0.033 C 
ATOM      5  C   UNL     1      -0.115   7.560   4.721  0.00  0.00    -0.038 C 
ATOM      6  C   UNL     1      -0.662   8.505   5.773  0.00  0.00    -0.022 A 
ATOM      7  C   UNL     1      -1.931   9.030   5.639  0.00  0.00    +0.009 A 
ATOM      8  C   UNL     1      -2.442   9.851   6.628  0.00  0.00    +0.046 A 
ATOM      9  C   UNL     1      -1.679  10.145   7.749  0.00  0.00    +0.124 A 
ATOM     10  C   UNL     1      -0.400   9.626   7.876  0.00  0.00    +0.091 A 
ATOM     11  C   UNL     1       0.111   8.810   6.877  0.00  0.00    +0.126 A 
ATOM     12  O   UNL     1       1.374   8.313   6.980  0.00  0.00    -0.491 OA
ATOM     13  N   UNL     1       0.988   8.255   4.015  0.00  0.00    +0.391 N 
ATOM     14  H   UNL     1       0.772   9.258   3.973  0.00  0.00    -0.081 HD
BRANCH   9  15
ATOM     15  O   UNL     1      -2.187  10.944   8.725  0.00  0.00    -0.495 OA
ATOM     16  C   UNL     1      -3.511  11.444   8.530  0.00  0.00    +0.277 C 
ENDBRANCH   9  15
ENDBRANCH   1  13
BRANCH   1  17
ATOM     17  C   UNL     1       1.306   6.242   2.644  0.00  0.00    +0.196 C 
ATOM     18  O   UNL     1       1.442   5.650   3.694  0.00  0.00    -0.278 OA
ATOM     19  N   UNL     1       1.327   5.564   1.480  0.00  0.00    -0.317 N 
ATOM     20  H   UNL     1       1.218   6.038   0.641  0.00  0.00    +0.149 HD
BRANCH  19  21
ATOM     21  C   UNL     1       1.516   4.112   1.482  0.00  0.00    +0.109 C 
BRANCH  21  22
ATOM     22  C   UNL     1       1.501   3.594   0.042  0.00  0.00    +0.054 C 
BRANCH  22  23
ATOM     23  C   UNL     1       1.695   2.099   0.043  0.00  0.00    -0.042 A 
ATOM     24  C   UNL     1       2.970   1.569  -0.023  0.00  0.00    +0.007 A 
ATOM     25  C   UNL     1       3.153   0.199  -0.022  0.00  0.00    +0.049 A 
ATOM     26  C   UNL     1       2.057  -0.646   0.046  0.00  0.00    +0.161 A 
ATOM     27  C   UNL     1       0.774  -0.113   0.113  0.00  0.00    +0.162 A 
ATOM     28  C   UNL     1       0.598   1.262   0.112  0.00  0.00    +0.053 A 
BRANCH  27  29
ATOM     29  O   UNL     1      -0.305  -0.938   0.181  0.00  0.00    -0.491 OA
ATOM     30  C   UNL     1      -1.591  -0.320   0.248  0.00  0.00    +0.277 C 
ENDBRANCH  27  29
BRANCH  26  31
ATOM     31  O   UNL     1       2.236  -1.994   0.047  0.00  0.00    -0.491 OA
ATOM     32  C   UNL     1       3.581  -2.471  -0.024  0.00  0.00    +0.277 C 
ENDBRANCH  26  31
ENDBRANCH  22  23
ENDBRANCH  21  22
ENDBRANCH  19  21
ENDBRANCH   1  17
TORSDOF 8
