REMARK  Name = ZINC24962690
REMARK  12 active torsions:
REMARK  status: ('A' for Active; 'I' for Inactive)
REMARK    1  A    between atoms: C_1  and  C_2
REMARK    2  A    between atoms: C_2  and  N_3
REMARK    3  A    between atoms: N_3  and  C_4
REMARK    4  A    between atoms: N_3  and  S_6
REMARK    5  A    between atoms: C_4  and  C_5
REMARK    6  A    between atoms: S_6  and  C_9
REMARK    7  A    between atoms: C_12  and  C_14
REMARK    8  A    between atoms: C_14  and  N_15
REMARK    9  A    between atoms: C_16  and  C_18
REMARK   10  A    between atoms: N_23  and  C_25
REMARK   11  A    between atoms: C_29  and  C_32
REMARK   12  A    between atoms: C_30  and  C_31
REMARK                            x       y       z     vdW  Elec       q    Type
REMARK                         _______ _______ _______ _____ _____    ______ ____
ROOT
ATOM      1  N   UNL     1       2.835  -1.937   1.345  0.00  0.00    -0.310 N 
ATOM      2  C   UNL     1       3.534  -3.066   1.579  0.00  0.00    +0.218 C 
ATOM      3  O   UNL     1       3.938  -3.731   0.649  0.00  0.00    -0.275 OA
ATOM      4  H   UNL     1       2.467  -1.333   2.188  0.00  0.00    +0.149 HD
ENDROOT
BRANCH   2   5
ATOM      5  C   UNL     1       3.812  -3.501   2.994  0.00  0.00    +0.101 C 
ATOM      6  C   UNL     1       4.779  -2.519   3.695  0.00  0.00    +0.110 C 
ATOM      7  C   UNL     1       5.650  -3.408   4.555  0.00  0.00    +0.221 C 
ATOM      8  O   UNL     1       6.348  -3.021   5.470  0.00  0.00    -0.275 OA
ATOM      9  N   UNL     1       5.540  -4.687   4.159  0.00  0.00    -0.270 N 
ATOM     10  C   UNL     1       4.623  -4.815   3.019  0.00  0.00    +0.127 C 
BRANCH   9  11
ATOM     11  C   UNL     1       6.212  -5.760   4.755  0.00  0.00    +0.039 A 
ATOM     12  C   UNL     1       7.464  -6.141   4.291  0.00  0.00    +0.024 A 
ATOM     13  C   UNL     1       8.127  -7.196   4.886  0.00  0.00    +0.002 A 
ATOM     14  C   UNL     1       7.541  -7.880   5.935  0.00  0.00    +0.004 A 
ATOM     15  C   UNL     1       6.292  -7.506   6.396  0.00  0.00    -0.046 A 
ATOM     16  C   UNL     1       5.626  -6.448   5.809  0.00  0.00    -0.026 A 
ATOM     17  C   UNL     1       4.265  -6.041   6.312  0.00  0.00    +0.046 C 
ATOM     18  C   UNL     1       5.658  -8.253   7.541  0.00  0.00    +0.044 C 
ENDBRANCH   9  11
ENDBRANCH   2   5
BRANCH   1  19
ATOM     19  C   UNL     1       2.564  -1.514  -0.031  0.00  0.00    +0.146 C 
BRANCH  19  23
ATOM     20  C   UNL     1      -0.022   1.781   0.012  0.00  0.00    +0.143 A 
ATOM     21  C   UNL     1       1.300   2.079   0.001  0.00  0.00    +0.037 A 
ATOM     22  C   UNL     1       2.220   1.048  -0.013  0.00  0.00    +0.015 A 
ATOM     23  C   UNL     1       1.773  -0.232  -0.016  0.00  0.00    +0.009 A 
ATOM     24  S   UNL     1       0.002  -0.004   0.002  0.00  0.00    -0.072 S 
BRANCH  20  25
ATOM     25  S   UNL     1      -1.406   2.872   0.025  0.00  0.00    +0.067 S 
ATOM     26  O   UNL     1      -2.493   2.143   0.578  0.00  0.00    -0.152 OA
ATOM     27  O   UNL     1      -0.951   4.098   0.579  0.00  0.00    -0.152 OA
BRANCH  25  28
ATOM     28  N   UNL     1      -1.799   3.183  -1.554  0.00  0.00    -0.177 NA
BRANCH  28  30
ATOM     29  C   UNL     1      -4.154   2.943  -2.165  0.00  0.00    +0.022 C 
ATOM     30  C   UNL     1      -2.758   2.324  -2.253  0.00  0.00    +0.106 C 
ENDBRANCH  28  30
BRANCH  28  31
ATOM     31  C   UNL     1      -1.187   4.317  -2.251  0.00  0.00    +0.106 C 
ATOM     32  C   UNL     1       0.037   3.835  -3.032  0.00  0.00    +0.022 C 
ENDBRANCH  28  31
ENDBRANCH  25  28
ENDBRANCH  20  25
ENDBRANCH  19  23
ENDBRANCH   1  19
TORSDOF 8
