REMARK  Name = ZINC39634864
REMARK  14 active torsions:
REMARK  status: ('A' for Active; 'I' for Inactive)
REMARK    1  A    between atoms: C_1  and  C_2
REMARK    2  A    between atoms: C_12  and  O_13
REMARK    3  A    between atoms: O_13  and  C_14
REMARK    4  A    between atoms: C_14  and  C_15
REMARK    5  A    between atoms: C_19  and  C_28
REMARK    6  A    between atoms: N_30  and  C_31
REMARK    7  A    between atoms: C_31  and  C_32
REMARK    8  A    between atoms: C_32  and  N_33
REMARK    9  A    between atoms: N_33  and  C_34
REMARK   10  A    between atoms: N_33  and  C_37
REMARK   11  A    between atoms: C_34  and  C_35
REMARK   12  A    between atoms: C_34  and  C_36
REMARK   13  A    between atoms: C_37  and  C_38
REMARK   14  A    between atoms: C_37  and  C_39
REMARK                            x       y       z     vdW  Elec       q    Type
REMARK                         _______ _______ _______ _____ _____    ______ ____
ROOT
ATOM      1  C   UNL     1      -1.509  -2.540   3.867  0.00  0.00    +0.253 C 
ATOM      2  O   UNL     1      -1.377  -2.742   2.679  0.00  0.00    -0.272 OA
ATOM      3  N   UNL     1      -1.047  -3.439   4.759  0.00  0.00    -0.297 N 
ATOM      4  C   UNL     1      -1.120  -3.372   6.237  0.00  0.00    +0.121 C 
ATOM      5  C   UNL     1      -1.428  -4.820   6.680  0.00  0.00    +0.100 C 
ATOM      6  C   UNL     1      -0.921  -5.699   5.525  0.00  0.00    -0.004 C 
ATOM      7  C   UNL     1      -0.358  -4.722   4.482  0.00  0.00    +0.115 C 
ATOM      8  C   UNL     1      -2.073  -6.498   4.923  0.00  0.00    -0.010 C 
ATOM      9  C   UNL     1      -1.534  -7.406   3.814  0.00  0.00    -0.082 C 
ATOM     10  N   UNL     1      -0.523  -8.313   4.371  0.00  0.00    +0.379 N 
ATOM     11  C   UNL     1       0.624  -7.541   4.864  0.00  0.00    -0.082 C 
ATOM     12  C   UNL     1       0.176  -6.637   6.017  0.00  0.00    -0.010 C 
ATOM     13  H   UNL     1      -0.926  -8.837   5.133  0.00  0.00    -0.086 HD
ATOM     14  H   UNL     1      -0.213  -8.951   3.654  0.00  0.00    -0.086 HD
ENDROOT
BRANCH   5  15
ATOM     15  C   UNL     1      -2.912  -5.005   6.871  0.00  0.00    +0.218 C 
ATOM     16  O   UNL     1      -3.694  -4.295   6.275  0.00  0.00    -0.275 OA
ATOM     17  N   UNL     1      -3.369  -5.960   7.705  0.00  0.00    -0.317 N 
ATOM     18  H   UNL     1      -2.744  -6.528   8.182  0.00  0.00    +0.149 HD
BRANCH  17  19
ATOM     19  C   UNL     1      -4.811  -6.141   7.891  0.00  0.00    +0.085 C 
BRANCH  19  20
ATOM     20  C   UNL     1      -5.059  -7.281   8.881  0.00  0.00    -0.059 C 
BRANCH  20  21
ATOM     21  N   UNL     1      -6.502  -7.538   8.980  0.00  0.00    +0.384 N 
ATOM     22  H   UNL     1      -6.981  -6.680   9.207  0.00  0.00    -0.081 HD
BRANCH  21  23
ATOM     23  C   UNL     1      -6.997  -8.051   7.696  0.00  0.00    -0.074 C 
ATOM     24  C   UNL     1      -6.772  -9.563   7.630  0.00  0.00    -0.014 C 
ATOM     25  C   UNL     1      -8.492  -7.752   7.570  0.00  0.00    -0.014 C 
ENDBRANCH  21  23
BRANCH  21  26
ATOM     26  C   UNL     1      -6.750  -8.532  10.033  0.00  0.00    -0.074 C 
ATOM     27  C   UNL     1      -6.111  -8.060  11.341  0.00  0.00    -0.014 C 
ATOM     28  C   UNL     1      -8.258  -8.697  10.233  0.00  0.00    -0.014 C 
ENDBRANCH  21  26
ENDBRANCH  20  21
ENDBRANCH  19  20
ENDBRANCH  17  19
ENDBRANCH   5  15
BRANCH   1  29
ATOM     29  C   UNL     1      -2.188  -1.283   4.347  0.00  0.00    +0.324 C 
BRANCH  29  30
ATOM     30  O   UNL     1      -2.584  -0.496   3.222  0.00  0.00    -0.479 OA
BRANCH  30  42
ATOM     31  C   UNL     1      -5.415   4.870   1.863  0.00  0.00    +0.045 C 
ATOM     32  C   UNL     1      -4.713   3.562   1.606  0.00  0.00    -0.033 A 
ATOM     33  C   UNL     1      -4.464   3.141   0.340  0.00  0.00    +0.096 A 
ATOM     34  C   UNL     1      -3.804   1.911   0.127  0.00  0.00    +0.338 A 
ATOM     35  O   UNL     1      -3.586   1.545  -1.014  0.00  0.00    -0.245 OA
ATOM     36  O   UNL     1      -3.412   1.136   1.149  0.00  0.00    -0.418 OA
ATOM     37  C   UNL     1      -3.630   1.497   2.433  0.00  0.00    +0.181 A 
ATOM     38  C   UNL     1      -4.276   2.711   2.718  0.00  0.00    +0.024 A 
ATOM     39  C   UNL     1      -4.498   3.090   4.046  0.00  0.00    +0.012 A 
ATOM     40  C   UNL     1      -4.077   2.271   5.069  0.00  0.00    +0.004 A 
ATOM     41  C   UNL     1      -3.433   1.074   4.790  0.00  0.00    +0.049 A 
ATOM     42  C   UNL     1      -3.215   0.679   3.482  0.00  0.00    +0.164 A 
ENDBRANCH  30  42
ENDBRANCH  29  30
ENDBRANCH   1  29
TORSDOF 9
