REMARK  Name = ZINC11012864
REMARK  12 active torsions:
REMARK  status: ('A' for Active; 'I' for Inactive)
REMARK    1  A    between atoms: C_1  and  N_60
REMARK    2  A    between atoms: C_2  and  C_3
REMARK    3  A    between atoms: C_2  and  N_60
REMARK    4  A    between atoms: C_5  and  N_10
REMARK    5  A    between atoms: C_13  and  C_14
REMARK    6  A    between atoms: C_13  and  N_60
REMARK    7  A    between atoms: N_16  and  C_17
REMARK    8  A    between atoms: C_18  and  C_26
REMARK    9  A    between atoms: N_28  and  C_29
REMARK   10  A    between atoms: C_29  and  C_30
REMARK   11  A    between atoms: C_30  and  O_31
REMARK   12  A    between atoms: O_31  and  C_32
REMARK                            x       y       z     vdW  Elec       q    Type
REMARK                         _______ _______ _______ _____ _____    ______ ____
ROOT
ATOM      1  C   UNL     1       1.141   2.072   0.002  0.00  0.00    +0.201 C 
ATOM      2  O   UNL     1       2.200   1.480  -0.011  0.00  0.00    -0.278 OA
ATOM      3  N   UNL     1      -0.017   1.382   0.010  0.00  0.00    -0.281 N 
ATOM      4  H   UNL     1      -0.863   1.856   0.016  0.00  0.00    +0.155 HD
ENDROOT
BRANCH   3   5
ATOM      5  C   UNL     1       0.002  -0.004   0.002  0.00  0.00    +0.084 A 
ATOM      6  C   UNL     1      -1.073  -0.881   0.013  0.00  0.00    +0.069 A 
ATOM      7  C   UNL     1      -0.780  -2.304  -0.003  0.00  0.00    -0.023 A 
ATOM      8  C   UNL     1       0.533  -2.620  -0.016  0.00  0.00    -0.004 A 
ATOM      9  S   UNL     1       1.374  -1.062  -0.016  0.00  0.00    -0.077 S 
ATOM     10  C   UNL     1       1.132  -3.993  -0.028  0.00  0.00    +0.043 C 
ATOM     11  C   UNL     1       0.038  -5.000   0.356  0.00  0.00    +0.005 C 
ATOM     12  C   UNL     1      -1.218  -4.703  -0.467  0.00  0.00    +0.005 C 
ATOM     13  C   UNL     1      -1.848  -3.390   0.002  0.00  0.00    +0.037 C 
BRANCH   6  14
ATOM     14  C   UNL     1      -2.455  -0.390   0.036  0.00  0.00    +0.247 C 
ATOM     15  O   UNL     1      -3.044  -0.181  -1.008  0.00  0.00    -0.270 OA
ATOM     16  N   UNL     1      -3.072  -0.170   1.214  0.00  0.00    -0.309 N 
ATOM     17  H   UNL     1      -2.603  -0.337   2.046  0.00  0.00    +0.149 HD
BRANCH  16  18
ATOM     18  C   UNL     1      -4.452   0.321   1.237  0.00  0.00    +0.132 C 
BRANCH  18  19
ATOM     19  C   UNL     1      -4.911   0.484   2.687  0.00  0.00    +0.178 C 
BRANCH  19  20
ATOM     20  O   UNL     1      -4.136   1.505   3.320  0.00  0.00    -0.381 OA
ATOM     21  C   UNL     1      -4.487   1.739   4.685  0.00  0.00    +0.194 C 
ENDBRANCH  19  20
ENDBRANCH  18  19
ENDBRANCH  16  18
ENDBRANCH   6  14
ENDBRANCH   3   5
BRANCH   1  22
ATOM     22  C   UNL     1       1.121   3.579   0.011  0.00  0.00    +0.019 C 
BRANCH  22  24
ATOM     23  C   UNL     1       3.174   3.754  -1.262  0.00  0.00    -0.095 C 
ATOM     24  N   UNL     1       2.513   4.075   0.021  0.00  0.00    +0.386 N 
ATOM     25  H   UNL     1       3.025   3.615   0.784  0.00  0.00    -0.081 HD
BRANCH  24  26
ATOM     26  C   UNL     1       2.528   5.535   0.246  0.00  0.00    -0.041 C 
BRANCH  26  27
ATOM     27  C   UNL     1       3.950   5.978   0.472  0.00  0.00    -0.043 A 
ATOM     28  C   UNL     1       4.629   6.658  -0.522  0.00  0.00    +0.036 A 
ATOM     29  C   UNL     1       5.932   7.069  -0.313  0.00  0.00    +0.126 A 
ATOM     30  C   UNL     1       6.561   6.792   0.887  0.00  0.00    +0.034 A 
ATOM     31  C   UNL     1       5.885   6.107   1.879  0.00  0.00    +0.022 A 
ATOM     32  C   UNL     1       4.579   5.700   1.672  0.00  0.00    +0.042 A 
ATOM     33 CL   UNL     1       3.730   4.840   2.918  0.00  0.00    -0.083 Cl
BRANCH  29  34
ATOM     34  N   UNL     1       6.656   7.802  -1.375  0.00  0.00    +0.056 N 
ATOM     35  O   UNL     1       7.806   8.160  -1.193  0.00  0.00    -0.126 OA
ATOM     36  O   UNL     1       6.102   8.047  -2.432  0.00  0.00    -0.126 OA
ENDBRANCH  29  34
ENDBRANCH  26  27
ENDBRANCH  24  26
ENDBRANCH  22  24
ENDBRANCH   1  22
TORSDOF 10
