REMARK  Name = ZINC23298772
REMARK  10 active torsions:
REMARK  status: ('A' for Active; 'I' for Inactive)
REMARK    1  A    between atoms: C_1  and  O_2
REMARK    2  A    between atoms: O_2  and  C_3
REMARK    3  A    between atoms: C_6  and  C_9
REMARK    4  A    between atoms: C_9  and  C_10
REMARK    5  A    between atoms: C_10  and  C_12
REMARK    6  A    between atoms: C_10  and  N_20
REMARK    7  A    between atoms: C_15  and  O_18
REMARK    8  A    between atoms: O_18  and  C_19
REMARK    9  A    between atoms: C_21  and  C_23
REMARK   10  A    between atoms: C_23  and  N_24
REMARK                            x       y       z     vdW  Elec       q    Type
REMARK                         _______ _______ _______ _____ _____    ______ ____
ROOT
ATOM      1  N   UNL     1      -3.002   5.515  -1.610  0.00  0.00    -0.307 N 
ATOM      2  C   UNL     1      -2.112   4.530  -1.377  0.00  0.00    +0.231 C 
ATOM      3  O   UNL     1      -1.593   3.949  -2.306  0.00  0.00    -0.274 OA
ATOM      4  H   UNL     1      -3.473   6.042  -0.767  0.00  0.00    +0.149 HD
ENDROOT
BRANCH   1   5
ATOM      5  C   UNL     1      -3.341   5.884  -2.987  0.00  0.00    +0.107 C 
BRANCH   5   6
ATOM      6  C   UNL     1      -2.329   6.872  -3.506  0.00  0.00    -0.027 A 
ATOM      7  C   UNL     1      -1.858   7.876  -2.681  0.00  0.00    +0.009 A 
ATOM      8  C   UNL     1      -0.926   8.780  -3.153  0.00  0.00    +0.046 A 
ATOM      9  C   UNL     1      -0.470   8.685  -4.460  0.00  0.00    +0.120 A 
ATOM     10  C   UNL     1      -0.949   7.680  -5.288  0.00  0.00    +0.046 A 
ATOM     11  C   UNL     1      -1.877   6.776  -4.809  0.00  0.00    +0.009 A 
BRANCH   9  12
ATOM     12  O   UNL     1       0.443   9.576  -4.928  0.00  0.00    -0.495 OA
ATOM     13  C   UNL     1       0.891  10.584  -4.020  0.00  0.00    +0.277 C 
ENDBRANCH   9  12
ENDBRANCH   5   6
BRANCH   5  14
ATOM     14  C   UNL     1      -4.734   6.517  -3.016  0.00  0.00    +0.062 C 
BRANCH  14  18
ATOM     15  C   UNL     1      -7.647   3.607  -1.875  0.00  0.00    +0.120 A 
ATOM     16  C   UNL     1      -7.050   4.407  -0.911  0.00  0.00    +0.046 A 
ATOM     17  C   UNL     1      -6.108   5.347  -1.283  0.00  0.00    +0.007 A 
ATOM     18  C   UNL     1      -5.761   5.491  -2.614  0.00  0.00    -0.045 A 
ATOM     19  C   UNL     1      -6.360   4.699  -3.576  0.00  0.00    +0.007 A 
ATOM     20  C   UNL     1      -7.298   3.754  -3.209  0.00  0.00    +0.046 A 
BRANCH  15  22
ATOM     21  C   UNL     1      -9.148   1.893  -2.557  0.00  0.00    +0.277 C 
ATOM     22  O   UNL     1      -8.574   2.681  -1.512  0.00  0.00    -0.495 OA
ENDBRANCH  15  22
ENDBRANCH  14  18
ENDBRANCH   5  14
ENDBRANCH   1   5
BRANCH   2  23
ATOM     23  C   UNL     1      -1.763   4.150   0.039  0.00  0.00    +0.213 C 
BRANCH  23  24
ATOM     24  N   UNL     1      -0.782   3.062   0.025  0.00  0.00    -0.215 N 
ATOM     25  C   UNL     1       0.556   3.246   0.014  0.00  0.00    +0.251 C 
ATOM     26  O   UNL     1       1.154   4.301   0.014  0.00  0.00    -0.272 OA
ATOM     27  C   UNL     1       1.147   1.860   0.001  0.00  0.00    +0.138 C 
ATOM     28  C   UNL     1       2.019   1.640  -1.242  0.00  0.00    +0.045 C 
ATOM     29  C   UNL     1       3.435   1.949  -0.705  0.00  0.00    +0.038 C 
ATOM     30  C   UNL     1       3.364   1.676   0.783  0.00  0.00    -0.042 A 
ATOM     31  C   UNL     1       2.041   1.627   1.189  0.00  0.00    -0.012 A 
ATOM     32  C   UNL     1       1.740   1.390   2.519  0.00  0.00    +0.006 A 
ATOM     33  C   UNL     1       2.751   1.202   3.441  0.00  0.00    +0.000 A 
ATOM     34  C   UNL     1       4.072   1.251   3.035  0.00  0.00    +0.000 A 
ATOM     35  C   UNL     1       4.376   1.488   1.708  0.00  0.00    +0.004 A 
ATOM     36  N   UNL     1      -0.011   0.966   0.007  0.00  0.00    -0.281 N 
ATOM     37  C   UNL     1      -1.100   1.761   0.016  0.00  0.00    +0.310 C 
ATOM     38  O   UNL     1      -2.242   1.344   0.019  0.00  0.00    -0.252 OA
ATOM     39  H   UNL     1       0.136  -0.124   0.005  0.00  0.00    +0.152 HD
ENDBRANCH  23  24
ENDBRANCH   2  23
TORSDOF 8
