REMARK  Name = ZINC39755643
REMARK  13 active torsions:
REMARK  status: ('A' for Active; 'I' for Inactive)
REMARK    1  A    between atoms: C_1  and  C_2
REMARK    2  A    between atoms: C_2  and  C_3
REMARK    3  A    between atoms: C_4  and  C_31
REMARK    4  A    between atoms: C_9  and  C_11
REMARK    5  A    between atoms: C_11  and  C_13
REMARK    6  A    between atoms: C_11  and  S_14
REMARK    7  A    between atoms: S_14  and  C_15
REMARK    8  A    between atoms: C_18  and  C_21
REMARK    9  A    between atoms: N_19  and  C_20
REMARK   10  A    between atoms: C_21  and  O_22
REMARK   11  A    between atoms: O_22  and  C_23
REMARK   12  A    between atoms: C_26  and  C_30
REMARK   13  A    between atoms: C_28  and  C_29
REMARK                            x       y       z     vdW  Elec       q    Type
REMARK                         _______ _______ _______ _____ _____    ______ ____
ROOT
ATOM      1  C   UNL     1       7.806  -3.589  -5.364  0.00  0.00    +0.192 A 
ATOM      2  N   UNL     1       8.701  -3.166  -4.502  0.00  0.00    -0.122 NA
ATOM      3  N   UNL     1       9.859  -3.631  -4.810  0.00  0.00    -0.130 NA
ATOM      4  C   UNL     1       9.773  -4.373  -5.877  0.00  0.00    +0.172 A 
ATOM      5  N   UNL     1       8.462  -4.378  -6.266  0.00  0.00    -0.306 N 
ATOM      6  C   UNL     1       7.881  -5.080  -7.412  0.00  0.00    +0.153 C 
ENDROOT
BRANCH   1   7
ATOM      7  S   UNL     1       6.084  -3.216  -5.355  0.00  0.00    -0.074 S 
BRANCH   7   8
ATOM      8  C   UNL     1       5.877  -2.135  -3.914  0.00  0.00    +0.137 C 
ATOM      9  C   UNL     1       6.638  -0.827  -4.144  0.00  0.00    +0.029 C 
BRANCH   8  16
ATOM     10  C   UNL     1       0.707  -0.490  -1.238  0.00  0.00    +0.053 A 
ATOM     11  C   UNL     1       0.033  -0.724  -2.390  0.00  0.00    +0.011 A 
ATOM     12  S   UNL     1       1.365  -1.259  -3.453  0.00  0.00    -0.057 S 
ATOM     13  C   UNL     1       2.618  -1.130  -2.337  0.00  0.00    +0.165 A 
ATOM     14  N   UNL     1       2.010  -0.702  -1.252  0.00  0.00    -0.229 NA
ATOM     15  N   UNL     1       3.968  -1.406  -2.519  0.00  0.00    -0.264 N 
ATOM     16  C   UNL     1       4.413  -1.836  -3.716  0.00  0.00    +0.232 C 
ATOM     17  O   UNL     1       3.635  -1.983  -4.635  0.00  0.00    -0.274 OA
ATOM     18  C   UNL     1      -1.436  -0.574  -2.692  0.00  0.00    +0.053 C 
ATOM     19  H   UNL     1       4.591  -1.288  -1.784  0.00  0.00    +0.157 HD
BRANCH  10  21
ATOM     20  C   UNL     1      -0.019   1.526   0.010  0.00  0.00    +0.010 C 
ATOM     21  C   UNL     1       0.002  -0.004   0.002  0.00  0.00    +0.053 C 
ENDBRANCH  10  21
ENDBRANCH   8  16
ENDBRANCH   7   8
ENDBRANCH   1   7
BRANCH   4  22
ATOM     22  C   UNL     1      10.908  -5.097  -6.555  0.00  0.00    +0.305 C 
BRANCH  22  23
ATOM     23  O   UNL     1      11.036  -6.407  -6.000  0.00  0.00    -0.484 OA
BRANCH  23  24
ATOM     24  C   UNL     1      12.020  -7.198  -6.505  0.00  0.00    +0.124 A 
ATOM     25  C   UNL     1      12.848  -6.719  -7.509  0.00  0.00    +0.046 A 
ATOM     26  C   UNL     1      13.848  -7.524  -8.020  0.00  0.00    +0.007 A 
ATOM     27  C   UNL     1      14.023  -8.806  -7.531  0.00  0.00    -0.050 A 
ATOM     28  C   UNL     1      13.198  -9.285  -6.530  0.00  0.00    +0.010 A 
ATOM     29  C   UNL     1      12.201  -8.482  -6.012  0.00  0.00    -0.009 A 
ATOM     30  C   UNL     1      11.306  -9.002  -4.917  0.00  0.00    +0.047 C 
ATOM     31  C   UNL     1      15.114  -9.682  -8.090  0.00  0.00    +0.044 C 
ENDBRANCH  23  24
ENDBRANCH  22  23
ENDBRANCH   4  22
TORSDOF 7
