REMARK  Name = ZINC40496513
REMARK  8 active torsions:
REMARK  status: ('A' for Active; 'I' for Inactive)
REMARK    1  A    between atoms: C_1  and  C_2
REMARK    2  A    between atoms: C_2  and  C_4
REMARK    3  A    between atoms: C_2  and  S_12
REMARK    4  A    between atoms: C_6  and  C_9
REMARK    5  A    between atoms: C_9  and  C_10
REMARK    6  A    between atoms: C_9  and  C_11
REMARK    7  A    between atoms: S_12  and  C_13
REMARK    8  A    between atoms: C_16  and  C_19
REMARK                            x       y       z     vdW  Elec       q    Type
REMARK                         _______ _______ _______ _____ _____    ______ ____
ROOT
ATOM      1  C   UNL     1      -2.335  -0.110   1.573  0.00  0.00    +0.185 A 
ATOM      2  N   UNL     1      -1.680   0.578   2.483  0.00  0.00    -0.201 NA
ATOM      3  H   UNL     1      -4.292  -0.822   1.586  0.00  0.00    +0.191 HD
ATOM      4  C   UNL     1      -2.475   0.797   3.541  0.00  0.00    +0.182 A 
ATOM      5  N   UNL     1      -3.647   0.249   3.313  0.00  0.00    -0.152 NA
ATOM      6  N   UNL     1      -3.582  -0.341   2.040  0.00  0.00    -0.253 N 
ENDROOT
BRANCH   4   7
ATOM      7  C   UNL     1      -2.093   1.537   4.769  0.00  0.00    +0.021 A 
ATOM      8  C   UNL     1      -0.815   2.078   4.890  0.00  0.00    +0.011 A 
ATOM      9  C   UNL     1      -0.464   2.765   6.034  0.00  0.00    +0.001 A 
ATOM     10  C   UNL     1      -1.380   2.918   7.060  0.00  0.00    +0.000 A 
ATOM     11  C   UNL     1      -2.650   2.383   6.945  0.00  0.00    +0.001 A 
ATOM     12  C   UNL     1      -3.013   1.698   5.803  0.00  0.00    +0.011 A 
ENDBRANCH   4   7
BRANCH   1  13
ATOM     13  S   UNL     1      -1.700  -0.632   0.015  0.00  0.00    -0.074 S 
BRANCH  13  15
ATOM     14  C   UNL     1      -0.019   1.526   0.010  0.00  0.00    +0.029 C 
ATOM     15  C   UNL     1       0.002  -0.004   0.002  0.00  0.00    +0.140 C 
BRANCH  15  16
ATOM     16  C   UNL     1       0.707  -0.490  -1.238  0.00  0.00    +0.241 A 
ATOM     17  N   UNL     1       1.911  -0.991  -1.286  0.00  0.00    -0.195 NA
ATOM     18  C   UNL     1       2.222  -1.318  -2.545  0.00  0.00    +0.174 A 
ATOM     19  N   UNL     1       1.214  -1.028  -3.318  0.00  0.00    -0.061 NA
ATOM     20  O   UNL     1       0.204  -0.487  -2.479  0.00  0.00    -0.337 OA
BRANCH  18  21
ATOM     21  C   UNL     1       3.526  -1.924  -2.996  0.00  0.00    +0.054 C 
ATOM     22  C   UNL     1       3.259  -3.283  -3.647  0.00  0.00    +0.015 C 
ATOM     23  C   UNL     1       4.196  -0.995  -4.011  0.00  0.00    +0.015 C 
ENDBRANCH  18  21
ENDBRANCH  15  16
ENDBRANCH  13  15
ENDBRANCH   1  13
TORSDOF 5
