REMARK  Name = ZINC19300994
REMARK  8 active torsions:
REMARK  status: ('A' for Active; 'I' for Inactive)
REMARK    1  A    between atoms: C_1  and  N_2
REMARK    2  A    between atoms: N_2  and  C_3
REMARK    3  A    between atoms: N_2  and  C_4
REMARK    4  A    between atoms: C_4  and  C_5
REMARK    5  A    between atoms: C_5  and  N_6
REMARK    6  A    between atoms: N_6  and  C_7
REMARK    7  A    between atoms: C_8  and  C_10
REMARK    8  A    between atoms: C_21  and  C_23
REMARK                            x       y       z     vdW  Elec       q    Type
REMARK                         _______ _______ _______ _____ _____    ______ ____
ROOT
ATOM      1  C   UNL     1      -4.942   7.740   0.236  0.00  0.00    +0.092 C 
ATOM      2  C   UNL     1      -5.102   8.733  -0.918  0.00  0.00    +0.016 C 
ATOM      3  C   UNL     1      -3.905   9.688  -0.930  0.00  0.00    +0.020 C 
ATOM      4  C   UNL     1      -2.614   8.877  -1.059  0.00  0.00    +0.106 C 
ATOM      5  N   UNL     1      -2.506   7.942   0.068  0.00  0.00    -0.314 N 
ATOM      6  C   UNL     1      -3.620   6.986   0.073  0.00  0.00    +0.119 C 
ATOM      7  C   UNL     1      -1.287   7.285   0.054  0.00  0.00    +0.129 A 
ATOM      8  C   UNL     1      -0.091   8.008   0.047  0.00  0.00    +0.014 A 
ATOM      9  C   UNL     1       1.102   7.314   0.031  0.00  0.00    +0.050 A 
ATOM     10  N   UNL     1       1.078   5.988   0.029  0.00  0.00    -0.232 NA
ATOM     11  C   UNL     1      -0.070   5.327   0.031  0.00  0.00    +0.162 A 
ATOM     12  N   UNL     1      -1.237   5.957   0.045  0.00  0.00    -0.212 NA
ATOM     13  C   UNL     1       2.259   8.287   0.026  0.00  0.00    +0.056 C 
ATOM     14  C   UNL     1       1.655   9.635   0.477  0.00  0.00    +0.011 C 
ATOM     15  C   UNL     1       0.177   9.494   0.053  0.00  0.00    +0.041 C 
ENDROOT
BRANCH  11  16
ATOM     16  C   UNL     1      -0.050   3.844   0.023  0.00  0.00    +0.019 A 
ATOM     17  C   UNL     1       1.165   3.161   0.007  0.00  0.00    +0.011 A 
ATOM     18  C   UNL     1       1.177   1.781   0.000  0.00  0.00    +0.001 A 
ATOM     19  C   UNL     1      -0.013   1.076   0.008  0.00  0.00    +0.000 A 
ATOM     20  C   UNL     1      -1.221   1.748   0.017  0.00  0.00    +0.001 A 
ATOM     21  C   UNL     1      -1.246   3.128   0.031  0.00  0.00    +0.011 A 
ENDBRANCH  11  16
BRANCH   1  24
ATOM     22  N   UNL     1      -7.353   7.200   0.349  0.00  0.00    -0.306 N 
ATOM     23  C   UNL     1      -7.618   8.633   0.505  0.00  0.00    +0.132 C 
ATOM     24  C   UNL     1      -6.086   6.759   0.220  0.00  0.00    +0.220 C 
ATOM     25  O   UNL     1      -5.867   5.574   0.090  0.00  0.00    -0.275 OA
BRANCH  22  26
ATOM     26  C   UNL     1      -8.466   6.247   0.333  0.00  0.00    +0.089 C 
BRANCH  26  27
ATOM     27  C   UNL     1      -8.755   5.777   1.760  0.00  0.00    -0.060 C 
BRANCH  27  29
ATOM     28  C   UNL     1     -10.024   4.170   3.052  0.00  0.00    -0.097 C 
ATOM     29  N   UNL     1      -9.870   4.822   1.744  0.00  0.00    +0.377 N 
ATOM     30  C   UNL     1     -11.119   5.477   1.332  0.00  0.00    -0.097 C 
ATOM     31  H   UNL     1      -9.637   4.042   1.004  0.00  0.00    -0.083 HD
ENDBRANCH  27  29
ENDBRANCH  26  27
ENDBRANCH  22  26
ENDBRANCH   1  24
TORSDOF 5
