REMARK  Name = ZINC63387249
REMARK  12 active torsions:
REMARK  status: ('A' for Active; 'I' for Inactive)
REMARK    1  A    between atoms: C_1  and  C_2
REMARK    2  A    between atoms: C_4  and  C_34
REMARK    3  A    between atoms: C_6  and  N_8
REMARK    4  A    between atoms: C_9  and  C_11
REMARK    5  A    between atoms: C_11  and  C_12
REMARK    6  A    between atoms: C_12  and  C_13
REMARK    7  A    between atoms: N_17  and  C_21
REMARK    8  A    between atoms: C_18  and  O_20
REMARK    9  A    between atoms: C_21  and  C_22
REMARK   10  A    between atoms: C_22  and  C_23
REMARK   11  A    between atoms: C_26  and  O_32
REMARK   12  A    between atoms: O_32  and  C_33
REMARK                            x       y       z     vdW  Elec       q    Type
REMARK                         _______ _______ _______ _____ _____    ______ ____
ROOT
ATOM      1  C   UNL     1       0.505  -2.694   7.333  0.00  0.00    +0.197 C 
ATOM      2  C   UNL     1       0.526  -1.745   8.515  0.00  0.00    +0.248 C 
ATOM      3  O   UNL     1      -0.346  -0.975   8.859  0.00  0.00    -0.273 OA
ATOM      4  N   UNL     1       1.725  -1.943   9.102  0.00  0.00    -0.224 N 
ATOM      5  C   UNL     1       2.443  -2.896   8.427  0.00  0.00    +0.285 C 
ATOM      6  N   UNL     1       1.808  -3.375   7.402  0.00  0.00    -0.224 NA
ENDROOT
BRANCH   5   7
ATOM      7  O   UNL     1       3.681  -3.296   8.791  0.00  0.00    -0.481 OA
ATOM      8  H   UNL     1       4.059  -3.976   8.217  0.00  0.00    +0.295 HD
ENDBRANCH   5   7
BRANCH   1   9
ATOM      9  C   UNL     1       0.374  -1.917   6.022  0.00  0.00    +0.045 C 
BRANCH   9  10
ATOM     10  C   UNL     1       0.280  -2.900   4.854  0.00  0.00    +0.098 C 
BRANCH  10  12
ATOM     11  N   UNL     1       0.052  -2.797   2.393  0.00  0.00    -0.285 N 
ATOM     12  C   UNL     1       0.150  -2.134   3.562  0.00  0.00    +0.217 C 
ATOM     13  O   UNL     1       0.134  -0.922   3.575  0.00  0.00    -0.275 OA
ATOM     14  H   UNL     1      -0.012  -3.765   2.388  0.00  0.00    +0.155 HD
BRANCH  11  20
ATOM     15  C   UNL     1      -1.512  -2.365  -2.248  0.00  0.00    +0.044 C 
ATOM     16  C   UNL     1      -0.707  -1.857  -1.080  0.00  0.00    -0.048 A 
ATOM     17  C   UNL     1       0.025  -0.690  -1.201  0.00  0.00    +0.006 A 
ATOM     18  C   UNL     1       0.765  -0.220  -0.131  0.00  0.00    -0.048 A 
ATOM     19  C   UNL     1       0.776  -0.917   1.061  0.00  0.00    +0.026 A 
ATOM     20  C   UNL     1       0.043  -2.089   1.186  0.00  0.00    +0.034 A 
ATOM     21  C   UNL     1      -0.704  -2.555   0.112  0.00  0.00    +0.026 A 
ATOM     22  C   UNL     1       1.561   1.052  -0.268  0.00  0.00    +0.044 C 
ENDBRANCH  11  20
ENDBRANCH  10  12
ENDBRANCH   9  10
ENDBRANCH   1   9
BRANCH   4  23
ATOM     23  C   UNL     1       2.195  -1.236  10.296  0.00  0.00    +0.122 C 
BRANCH  23  24
ATOM     24  C   UNL     1       1.781  -2.014  11.546  0.00  0.00    +0.052 C 
BRANCH  24  25
ATOM     25  C   UNL     1       2.265  -1.287  12.774  0.00  0.00    -0.040 C 
ATOM     26  C   UNL     1       1.563  -0.414  13.532  0.00  0.00    +0.002 A 
ATOM     27  C   UNL     1       0.192   0.101  13.444  0.00  0.00    +0.055 A 
ATOM     28  C   UNL     1      -0.247   0.989  14.368  0.00  0.00    +0.121 A 
ATOM     29  C   UNL     1       0.568   1.443  15.420  0.00  0.00    +0.047 A 
ATOM     30  C   UNL     1       1.842   1.027  15.584  0.00  0.00    +0.029 A 
ATOM     31  C   UNL     1       2.420   0.064  14.641  0.00  0.00    +0.043 A 
ATOM     32  N   UNL     1       3.604  -0.490  14.571  0.00  0.00    -0.380 N 
ATOM     33  C   UNL     1       3.632  -1.390  13.413  0.00  0.00    +0.144 C 
ATOM     34  H   UNL     1       4.339  -0.335  15.185  0.00  0.00    +0.160 HD
BRANCH  28  35
ATOM     35  O   UNL     1      -1.520   1.458  14.274  0.00  0.00    -0.495 OA
ATOM     36  C   UNL     1      -1.941   2.393  15.269  0.00  0.00    +0.277 C 
ENDBRANCH  28  35
ENDBRANCH  24  25
ENDBRANCH  23  24
ENDBRANCH   4  23
TORSDOF 9
