REMARK  Name = ZINC10063138
REMARK  7 active torsions:
REMARK  status: ('A' for Active; 'I' for Inactive)
REMARK    1  A    between atoms: C_1  and  C_2
REMARK    2  A    between atoms: C_2  and  S_3
REMARK    3  A    between atoms: S_3  and  C_4
REMARK    4  A    between atoms: C_10  and  C_12
REMARK    5  A    between atoms: N_14  and  C_28
REMARK    6  A    between atoms: N_19  and  C_22
REMARK    7  A    between atoms: C_28  and  C_29
REMARK                            x       y       z     vdW  Elec       q    Type
REMARK                         _______ _______ _______ _____ _____    ______ ____
ROOT
ATOM      1  C   UNL     1       1.248   2.096   0.001  0.00  0.00    +0.081 A 
ATOM      2  C   UNL     1       2.450   1.451  -0.008  0.00  0.00    +0.101 A 
ATOM      3  N   UNL     1       3.625   2.128  -0.021  0.00  0.00    -0.349 N 
ATOM      4  C   UNL     1       3.707   3.472  -0.014  0.00  0.00    +0.101 A 
ATOM      5  C   UNL     1       2.574   4.244   0.000  0.00  0.00    +0.085 A 
ATOM      6  C   UNL     1       2.275   5.673   0.011  0.00  0.00    +0.283 A 
ATOM      7  O   UNL     1       3.080   6.590   0.008  0.00  0.00    -0.265 OA
ATOM      8  N   UNL     1       0.928   5.775   0.024  0.00  0.00    -0.196 N 
ATOM      9  N   UNL     1       0.344   4.505   0.023  0.00  0.00    -0.162 NA
ATOM     10  C   UNL     1       1.254   3.572   0.009  0.00  0.00    +0.112 A 
ENDROOT
BRANCH   1  17
ATOM     11  C   UNL     1      -3.245  -2.454   0.020  0.00  0.00    +0.160 A 
ATOM     12  N   UNL     1      -3.483  -1.156   0.029  0.00  0.00    -0.133 NA
ATOM     13  N   UNL     1      -2.433  -0.267   0.023  0.00  0.00    -0.125 NA
ATOM     14  C   UNL     1      -1.194  -0.716   0.010  0.00  0.00    +0.189 A 
ATOM     15  S   UNL     1      -1.459  -2.483  -0.005  0.00  0.00    -0.024 S 
ATOM     16  N   UNL     1       0.002  -0.004   0.002  0.00  0.00    -0.259 N 
ATOM     17  C   UNL     1      -0.016   1.344   0.009  0.00  0.00    +0.253 C 
ATOM     18  O   UNL     1      -1.078   1.938   0.018  0.00  0.00    -0.270 OA
ATOM     19  H   UNL     1       0.849  -0.478  -0.009  0.00  0.00    +0.157 HD
BRANCH  11  20
ATOM     20  S   UNL     1      -4.383  -3.799   0.024  0.00  0.00    -0.097 S 
BRANCH  20  22
ATOM     21  C   UNL     1      -7.105  -4.065   0.049  0.00  0.00    +0.016 C 
ATOM     22  C   UNL     1      -6.010  -2.997   0.044  0.00  0.00    +0.073 C 
ENDBRANCH  20  22
ENDBRANCH  11  20
ENDBRANCH   1  17
BRANCH   8  23
ATOM     23  C   UNL     1       0.218   6.981   0.037  0.00  0.00    +0.069 A 
ATOM     24  C   UNL     1       0.717   8.075   0.732  0.00  0.00    +0.028 A 
ATOM     25  C   UNL     1       0.017   9.265   0.738  0.00  0.00    +0.002 A 
ATOM     26  C   UNL     1      -1.186   9.365   0.063  0.00  0.00    +0.000 A 
ATOM     27  C   UNL     1      -1.688   8.276  -0.626  0.00  0.00    +0.002 A 
ATOM     28  C   UNL     1      -0.990   7.084  -0.640  0.00  0.00    +0.028 A 
ENDBRANCH   8  23
BRANCH   3  29
ATOM     29  C   UNL     1       4.870   1.357  -0.037  0.00  0.00    +0.152 C 
BRANCH  29  30
ATOM     30  C   UNL     1       5.318   1.080   1.399  0.00  0.00    +0.138 C 
ATOM     31  C   UNL     1       6.605   0.218   1.405  0.00  0.00    +0.035 C 
ATOM     32  C   UNL     1       7.210   0.601   2.783  0.00  0.00    +0.031 C 
ATOM     33  C   UNL     1       6.802   2.083   2.920  0.00  0.00    +0.160 C 
ATOM     34  O   UNL     1       5.685   2.306   2.052  0.00  0.00    -0.375 OA
ENDBRANCH  29  30
ENDBRANCH   3  29
TORSDOF 6
