REMARK  Name = ZINC08793042
REMARK  10 active torsions:
REMARK  status: ('A' for Active; 'I' for Inactive)
REMARK    1  A    between atoms: C_1  and  C_2
REMARK    2  A    between atoms: C_2  and  O_3
REMARK    3  A    between atoms: O_3  and  C_4
REMARK    4  A    between atoms: C_4  and  C_6
REMARK    5  A    between atoms: C_10  and  N_11
REMARK    6  A    between atoms: C_12  and  C_14
REMARK    7  A    between atoms: C_14  and  C_15
REMARK    8  A    between atoms: C_28  and  C_29
REMARK    9  A    between atoms: C_28  and  C_30
REMARK   10  A    between atoms: C_28  and  N_59
REMARK                            x       y       z     vdW  Elec       q    Type
REMARK                         _______ _______ _______ _____ _____    ______ ____
ROOT
ATOM      1  C   UNL     1      -5.700   5.773  -3.326  0.00  0.00    +0.091 A 
ATOM      2  C   UNL     1      -5.841   5.995  -4.753  0.00  0.00    -0.025 A 
ATOM      3  C   UNL     1      -4.825   5.530  -5.514  0.00  0.00    -0.021 A 
ATOM      4  S   UNL     1      -3.689   4.814  -4.363  0.00  0.00    -0.079 S 
ATOM      5  C   UNL     1      -4.550   5.126  -2.891  0.00  0.00    +0.086 A 
ATOM      6  C   UNL     1      -4.718   5.617  -7.005  0.00  0.00    -0.035 C 
ATOM      7  C   UNL     1      -6.617   7.111  -6.821  0.00  0.00    -0.073 C 
ATOM      8  C   UNL     1      -7.029   6.692  -5.407  0.00  0.00    +0.018 C 
ATOM      9  N   UNL     1      -6.064   5.944  -7.537  0.00  0.00    +0.384 N 
ATOM     10  H   UNL     1      -6.684   5.138  -7.393  0.00  0.00    -0.081 HD
ENDROOT
BRANCH   5  11
ATOM     11  N   UNL     1      -4.182   4.803  -1.594  0.00  0.00    -0.279 N 
ATOM     12  C   UNL     1      -3.019   4.162  -1.363  0.00  0.00    +0.222 C 
ATOM     13  O   UNL     1      -2.294   3.869  -2.289  0.00  0.00    -0.275 OA
ATOM     14  H   UNL     1      -4.762   5.037  -0.853  0.00  0.00    +0.155 HD
BRANCH  12  15
ATOM     15  C   UNL     1      -2.620   3.811   0.048  0.00  0.00    +0.131 C 
BRANCH  15  16
ATOM     16  C   UNL     1      -1.288   3.106   0.032  0.00  0.00    -0.031 A 
ATOM     17  C   UNL     1      -1.234   1.746   0.017  0.00  0.00    +0.005 A 
ATOM     18  C   UNL     1      -0.013   1.076   0.008  0.00  0.00    +0.001 A 
ATOM     19  C   UNL     1       1.163   1.762   0.000  0.00  0.00    +0.008 A 
ATOM     20  C   UNL     1       1.147   3.167   0.008  0.00  0.00    -0.018 A 
ATOM     21  C   UNL     1      -0.095   3.848   0.024  0.00  0.00    -0.014 A 
ATOM     22  C   UNL     1      -0.111   5.254   0.031  0.00  0.00    +0.009 A 
ATOM     23  C   UNL     1       1.064   5.940   0.023  0.00  0.00    +0.001 A 
ATOM     24  C   UNL     1       2.287   5.270   0.008  0.00  0.00    +0.001 A 
ATOM     25  C   UNL     1       2.340   3.910   0.000  0.00  0.00    +0.008 A 
ENDBRANCH  15  16
ENDBRANCH  12  15
ENDBRANCH   5  11
BRANCH   9  26
ATOM     26  C   UNL     1      -5.979   6.232  -8.985  0.00  0.00    -0.074 C 
ATOM     27  C   UNL     1      -5.045   7.417  -9.240  0.00  0.00    -0.014 C 
ATOM     28  C   UNL     1      -5.441   4.995  -9.707  0.00  0.00    -0.014 C 
ENDBRANCH   9  26
BRANCH   1  29
ATOM     29  C   UNL     1      -6.727   6.216  -2.382  0.00  0.00    +0.342 C 
ATOM     30  O   UNL     1      -6.667   7.330  -1.896  0.00  0.00    -0.245 OA
BRANCH  29  31
ATOM     31  O   UNL     1      -7.740   5.390  -2.050  0.00  0.00    -0.461 OA
BRANCH  31  33
ATOM     32  C   UNL     1      -9.786   4.826  -0.857  0.00  0.00    +0.048 C 
ATOM     33  C   UNL     1      -8.722   5.896  -1.108  0.00  0.00    +0.229 C 
ENDBRANCH  31  33
ENDBRANCH  29  31
ENDBRANCH   1  29
TORSDOF 7
