REMARK  Name = ZINC11416375
REMARK  8 active torsions:
REMARK  status: ('A' for Active; 'I' for Inactive)
REMARK    1  A    between atoms: C_1  and  C_2
REMARK    2  A    between atoms: C_7  and  C_8
REMARK    3  A    between atoms: C_8  and  S_9
REMARK    4  A    between atoms: S_9  and  C_10
REMARK    5  A    between atoms: C_13  and  C_22
REMARK    6  A    between atoms: N_14  and  C_15
REMARK    7  A    between atoms: C_22  and  C_24
REMARK    8  A    between atoms: C_22  and  N_56
REMARK                            x       y       z     vdW  Elec       q    Type
REMARK                         _______ _______ _______ _____ _____    ______ ____
ROOT
ATOM      1  C   UNL     1      -1.819   1.580   4.277  0.00  0.00    +0.196 A 
ATOM      2  N   UNL     1      -0.585   1.763   4.689  0.00  0.00    -0.122 NA
ATOM      3  N   UNL     1      -0.589   2.244   5.881  0.00  0.00    -0.135 NA
ATOM      4  C   UNL     1      -1.814   2.397   6.300  0.00  0.00    +0.125 A 
ATOM      5  N   UNL     1      -2.643   1.984   5.291  0.00  0.00    -0.275 N 
ENDROOT
BRANCH   5   6
ATOM      6  C   UNL     1      -4.046   1.975   5.297  0.00  0.00    +0.050 A 
ATOM      7  C   UNL     1      -4.749   3.170   5.367  0.00  0.00    +0.029 A 
ATOM      8  C   UNL     1      -6.130   3.159   5.367  0.00  0.00    +0.040 A 
ATOM      9  C   UNL     1      -6.814   1.957   5.309  0.00  0.00    +0.124 A 
ATOM     10  C   UNL     1      -6.115   0.763   5.245  0.00  0.00    +0.040 A 
ATOM     11  C   UNL     1      -4.734   0.770   5.239  0.00  0.00    +0.029 A 
ATOM     12  F   UNL     1      -8.165   1.948   5.315  0.00  0.00    -0.205 F 
ENDBRANCH   5   6
BRANCH   4  13
ATOM     13  C   UNL     1      -2.239   2.933   7.642  0.00  0.00    -0.002 C 
ATOM     14  C   UNL     1      -1.976   1.878   8.719  0.00  0.00    -0.005 C 
BRANCH  13  20
ATOM     15  C   UNL     1      -1.881   4.716   9.240  0.00  0.00    -0.078 C 
ATOM     16  C   UNL     1      -0.966   5.891   9.595  0.00  0.00    -0.019 C 
ATOM     17  C   UNL     1      -1.058   6.953   8.496  0.00  0.00    -0.004 C 
ATOM     18  C   UNL     1      -0.673   6.323   7.154  0.00  0.00    -0.019 C 
ATOM     19  C   UNL     1      -1.597   5.136   6.870  0.00  0.00    -0.078 C 
ATOM     20  N   UNL     1      -1.443   4.139   7.952  0.00  0.00    +0.386 N 
ATOM     21  H   UNL     1      -0.453   3.876   8.024  0.00  0.00    -0.081 HD
ENDBRANCH  13  20
ENDBRANCH   4  13
BRANCH   1  22
ATOM     22  S   UNL     1      -2.317   0.943   2.712  0.00  0.00    -0.081 S 
BRANCH  22  23
ATOM     23  C   UNL     1      -0.696   0.660   1.958  0.00  0.00    +0.112 C 
BRANCH  23  30
ATOM     24  C   UNL     1      -0.901   2.442  -0.307  0.00  0.00    +0.044 C 
ATOM     25  C   UNL     1      -0.976   0.951  -0.512  0.00  0.00    -0.046 A 
ATOM     26  C   UNL     1      -1.149   0.436  -1.784  0.00  0.00    +0.003 A 
ATOM     27  C   UNL     1      -1.214  -0.931  -1.973  0.00  0.00    +0.000 A 
ATOM     28  C   UNL     1      -1.115  -1.784  -0.889  0.00  0.00    +0.000 A 
ATOM     29  C   UNL     1      -0.948  -1.270   0.383  0.00  0.00    +0.005 A 
ATOM     30  C   UNL     1      -0.878   0.098   0.571  0.00  0.00    -0.034 A 
ENDBRANCH  23  30
ENDBRANCH  22  23
ENDBRANCH   1  22
TORSDOF 6
