REMARK  Name = ZINC23228391
REMARK  4 active torsions:
REMARK  status: ('A' for Active; 'I' for Inactive)
REMARK    1  A    between atoms: C_1  and  C_2
REMARK    2  A    between atoms: C_2  and  C_23
REMARK    3  A    between atoms: N_5  and  C_9
REMARK    4  A    between atoms: C_9  and  C_10
REMARK                            x       y       z     vdW  Elec       q    Type
REMARK                         _______ _______ _______ _____ _____    ______ ____
ROOT
ATOM      1  C   UNL     1       2.453   1.438  -0.013  0.00  0.00    +0.214 C 
ENDROOT
BRANCH   1   2
ATOM      2  C   UNL     1       2.908   1.264  -1.439  0.00  0.00    +0.238 C 
ATOM      3  O   UNL     1       2.165   1.554  -2.353  0.00  0.00    -0.274 OA
ATOM      4  N   UNL     1       4.140   0.784  -1.699  0.00  0.00    -0.269 N 
ATOM      5  C   UNL     1       4.604   0.606  -3.084  0.00  0.00    +0.114 C 
ATOM      6  C   UNL     1       5.283   1.850  -3.596  0.00  0.00    +0.030 C 
ATOM      7  C   UNL     1       6.601   2.196  -2.924  0.00  0.00    +0.076 C 
ATOM      8  S   UNL     1       6.308   2.763  -1.223  0.00  0.00    -0.123 S 
ATOM      9  C   UNL     1       6.104   1.238  -0.332  0.00  0.00    +0.029 A 
ATOM     10  C   UNL     1       5.013   0.449  -0.659  0.00  0.00    +0.050 A 
ATOM     11  C   UNL     1       4.795  -0.725   0.064  0.00  0.00    +0.024 A 
ATOM     12  C   UNL     1       5.682  -1.093   1.058  0.00  0.00    +0.002 A 
ATOM     13  C   UNL     1       6.786  -0.313   1.347  0.00  0.00    +0.001 A 
ATOM     14  C   UNL     1       7.000   0.866   0.649  0.00  0.00    +0.016 A 
ENDBRANCH   1   2
BRANCH   1  19
ATOM     15  C   UNL     1      -1.244   4.076  -1.221  0.00  0.00    +0.042 C 
ATOM     16  C   UNL     1      -0.727   3.357   0.027  0.00  0.00    +0.113 C 
ATOM     17  C   UNL     1       0.787   3.284   0.012  0.00  0.00    +0.247 C 
ATOM     18  O   UNL     1       1.565   4.213   0.009  0.00  0.00    -0.273 OA
ATOM     19  N   UNL     1       1.087   1.970   0.002  0.00  0.00    -0.215 N 
ATOM     20  C   UNL     1      -0.014   1.211   0.009  0.00  0.00    +0.310 C 
ATOM     21  O   UNL     1       0.002  -0.004   0.002  0.00  0.00    -0.252 OA
ATOM     22  N   UNL     1      -1.143   1.944   0.018  0.00  0.00    -0.285 N 
ATOM     23  H   UNL     1      -2.212   1.685   0.019  0.00  0.00    +0.151 HD
BRANCH  16  24
ATOM     24  C   UNL     1      -1.220   4.059   1.294  0.00  0.00    +0.021 C 
ATOM     25  C   UNL     1      -1.963   3.212   2.328  0.00  0.00    +0.006 C 
ATOM     26  C   UNL     1      -2.731   4.220   1.471  0.00  0.00    +0.006 C 
ENDBRANCH  16  24
ENDBRANCH   1  19
TORSDOF 3
