REMARK  Name = ZINC65778860
REMARK  5 active torsions:
REMARK  status: ('A' for Active; 'I' for Inactive)
REMARK    1  A    between atoms: C_1  and  C_2
REMARK    2  A    between atoms: C_9  and  C_11
REMARK    3  A    between atoms: N_13  and  C_14
REMARK    4  A    between atoms: C_14  and  C_15
REMARK    5  A    between atoms: C_17  and  C_20
REMARK                            x       y       z     vdW  Elec       q    Type
REMARK                         _______ _______ _______ _____ _____    ______ ____
ROOT
ATOM      1  C   UNL     1       0.091  -5.622   2.222  0.00  0.00    +0.280 C 
ATOM      2  O   UNL     1       0.099  -5.699   3.436  0.00  0.00    -0.267 OA
ATOM      3  N   UNL     1       0.103  -6.744   1.475  0.00  0.00    -0.300 N 
ATOM      4  H   UNL     1       0.098  -6.683   0.507  0.00  0.00    +0.150 HD
ENDROOT
BRANCH   1  13
ATOM      5  C   UNL     1      -0.018   1.503   0.010  0.00  0.00    +0.044 C 
ATOM      6  C   UNL     1       0.002  -0.004   0.002  0.00  0.00    -0.050 A 
ATOM      7  C   UNL     1       0.006  -0.687  -1.207  0.00  0.00    +0.007 A 
ATOM      8  C   UNL     1       0.025  -2.064  -1.238  0.00  0.00    +0.047 A 
ATOM      9  C   UNL     1       0.041  -2.783  -0.048  0.00  0.00    +0.136 A 
ATOM     10  C   UNL     1       0.037  -2.086   1.175  0.00  0.00    +0.021 A 
ATOM     11  C   UNL     1       0.023  -0.689   1.184  0.00  0.00    +0.015 A 
ATOM     12  C   UNL     1       0.056  -3.112   2.216  0.00  0.00    +0.063 A 
ATOM     13  C   UNL     1       0.070  -4.306   1.569  0.00  0.00    +0.190 A 
ATOM     14  O   UNL     1       0.060  -4.100   0.235  0.00  0.00    -0.450 OA
ENDBRANCH   1  13
BRANCH   3  15
ATOM     15  C   UNL     1       0.125  -8.057   2.126  0.00  0.00    +0.203 C 
BRANCH  15  16
ATOM     16  C   UNL     1       0.135  -9.138   1.076  0.00  0.00    +0.245 A 
ATOM     17  N   UNL     1       1.197  -9.672   0.545  0.00  0.00    -0.190 NA
ATOM     18  C   UNL     1       0.841 -10.606  -0.357  0.00  0.00    +0.209 A 
ATOM     19  N   UNL     1      -0.470 -10.667  -0.401  0.00  0.00    -0.055 NA
ATOM     20  O   UNL     1      -0.947  -9.715   0.538  0.00  0.00    -0.336 OA
BRANCH  18  21
ATOM     21  C   UNL     1       1.770 -11.425  -1.163  0.00  0.00    +0.060 A 
ATOM     22  C   UNL     1       1.485 -12.384  -2.099  0.00  0.00    +0.019 A 
ATOM     23  C   UNL     1       2.528 -13.023  -2.731  0.00  0.00    +0.008 A 
ATOM     24  C   UNL     1       3.804 -12.684  -2.409  0.00  0.00    +0.046 A 
ATOM     25  S   UNL     1       3.555 -11.416  -1.177  0.00  0.00    -0.093 S 
ENDBRANCH  18  21
ENDBRANCH  15  16
ENDBRANCH   3  15
TORSDOF 4
