REMARK  Name = ZINC39665614
REMARK  9 active torsions:
REMARK  status: ('A' for Active; 'I' for Inactive)
REMARK    1  A    between atoms: C_1  and  C_2
REMARK    2  A    between atoms: C_2  and  C_4
REMARK    3  A    between atoms: C_2  and  O_29
REMARK    4  A    between atoms: C_4  and  N_5
REMARK    5  A    between atoms: C_6  and  C_8
REMARK    6  A    between atoms: C_19  and  C_21
REMARK    7  A    between atoms: O_29  and  C_30
REMARK    8  A    between atoms: C_33  and  O_36
REMARK    9  A    between atoms: O_36  and  C_37
REMARK                            x       y       z     vdW  Elec       q    Type
REMARK                         _______ _______ _______ _____ _____    ______ ____
ROOT
ATOM      1  C   UNL     1       0.910  -3.870  -2.328  0.00  0.00    +0.100 C 
ATOM      2  C   UNL     1       1.525  -4.493  -1.055  0.00  0.00    +0.121 C 
ATOM      3  N   UNL     1       2.187  -5.732  -1.527  0.00  0.00    -0.296 N 
ATOM      4  C   UNL     1       2.792  -5.355  -2.827  0.00  0.00    +0.115 C 
ATOM      5  C   UNL     1       1.744  -4.438  -3.489  0.00  0.00    -0.004 C 
ATOM      6  C   UNL     1       2.436  -3.307  -4.244  0.00  0.00    -0.010 C 
ATOM      7  C   UNL     1       3.212  -3.891  -5.428  0.00  0.00    -0.082 C 
ATOM      8  N   UNL     1       2.288  -4.607  -6.316  0.00  0.00    +0.379 N 
ATOM      9  C   UNL     1       1.697  -5.749  -5.609  0.00  0.00    -0.082 C 
ATOM     10  C   UNL     1       0.857  -5.244  -4.432  0.00  0.00    -0.010 C 
ATOM     11  C   UNL     1       2.229  -6.932  -0.913  0.00  0.00    +0.247 C 
ATOM     12  O   UNL     1       1.589  -7.117   0.104  0.00  0.00    -0.270 OA
ATOM     13  H   UNL     1       1.555  -3.980  -6.612  0.00  0.00    -0.086 HD
ATOM     14  H   UNL     1       2.791  -4.938  -7.126  0.00  0.00    -0.086 HD
ENDROOT
BRANCH  11  15
ATOM     15  C   UNL     1       3.053  -8.022  -1.476  0.00  0.00    +0.042 A 
ATOM     16  C   UNL     1       4.152  -7.724  -2.284  0.00  0.00    +0.051 A 
ATOM     17  C   UNL     1       4.919  -8.747  -2.808  0.00  0.00    +0.127 A 
ATOM     18  C   UNL     1       4.599 -10.066  -2.533  0.00  0.00    +0.076 A 
ATOM     19  C   UNL     1       3.510 -10.368  -1.732  0.00  0.00    +0.127 A 
ATOM     20  C   UNL     1       2.740  -9.353  -1.198  0.00  0.00    +0.051 A 
ATOM     21  F   UNL     1       3.204 -11.657  -1.468  0.00  0.00    -0.205 F 
ATOM     22  F   UNL     1       5.982  -8.460  -3.591  0.00  0.00    -0.205 F 
ENDBRANCH  11  15
BRANCH   1  24
ATOM     23  N   UNL     1       0.094  -1.604  -2.892  0.00  0.00    -0.312 N 
ATOM     24  C   UNL     1       1.024  -2.368  -2.285  0.00  0.00    +0.218 C 
ATOM     25  O   UNL     1       1.952  -1.847  -1.705  0.00  0.00    -0.275 OA
ATOM     26  H   UNL     1      -0.649  -2.021  -3.356  0.00  0.00    +0.149 HD
BRANCH  23  27
ATOM     27  C   UNL     1       0.205  -0.144  -2.850  0.00  0.00    +0.148 C 
BRANCH  27  29
ATOM     28  C   UNL     1      -0.787   1.996  -3.672  0.00  0.00    +0.053 C 
ATOM     29  C   UNL     1      -0.969   0.479  -3.609  0.00  0.00    +0.187 C 
BRANCH  29  30
ATOM     30  O   UNL     1      -2.190   0.173  -2.932  0.00  0.00    -0.488 OA
BRANCH  30  31
ATOM     31  C   UNL     1      -3.327   0.177  -3.677  0.00  0.00    +0.121 A 
ATOM     32  C   UNL     1      -4.558  -0.007  -3.066  0.00  0.00    +0.049 A 
ATOM     33  C   UNL     1      -5.713  -0.003  -3.823  0.00  0.00    +0.049 A 
ATOM     34  C   UNL     1      -5.642   0.185  -5.195  0.00  0.00    +0.120 A 
ATOM     35  C   UNL     1      -4.411   0.369  -5.807  0.00  0.00    +0.049 A 
ATOM     36  C   UNL     1      -3.256   0.370  -5.049  0.00  0.00    +0.049 A 
BRANCH  34  37
ATOM     37  O   UNL     1      -6.779   0.188  -5.941  0.00  0.00    -0.495 OA
ATOM     38  C   UNL     1      -6.631   0.387  -7.348  0.00  0.00    +0.277 C 
ENDBRANCH  34  37
ENDBRANCH  30  31
ENDBRANCH  29  30
ENDBRANCH  27  29
ENDBRANCH  23  27
ENDBRANCH   1  24
TORSDOF 7
