REMARK  Name = ZINC19927926
REMARK  9 active torsions:
REMARK  status: ('A' for Active; 'I' for Inactive)
REMARK    1  A    between atoms: C_1  and  C_2
REMARK    2  A    between atoms: C_2  and  O_3
REMARK    3  A    between atoms: O_3  and  C_4
REMARK    4  A    between atoms: C_4  and  C_6
REMARK    5  A    between atoms: C_9  and  N_12
REMARK    6  A    between atoms: C_13  and  C_15
REMARK    7  A    between atoms: C_15  and  C_16
REMARK    8  A    between atoms: C_28  and  C_30
REMARK    9  A    between atoms: C_31  and  C_32
REMARK                            x       y       z     vdW  Elec       q    Type
REMARK                         _______ _______ _______ _____ _____    ______ ____
ROOT
ATOM      1  C   UNL     1       1.621   3.030   0.139  0.00  0.00    +0.176 C 
ATOM      2  C   UNL     1       2.595   3.676  -0.813  0.00  0.00    +0.239 C 
ATOM      3  O   UNL     1       2.261   4.664  -1.432  0.00  0.00    -0.273 OA
ATOM      4  N   UNL     1       3.830   3.169  -0.984  0.00  0.00    -0.282 N 
ATOM      5  C   UNL     1       4.223   2.002  -0.320  0.00  0.00    +0.055 A 
ATOM      6  C   UNL     1       5.558   1.636  -0.259  0.00  0.00    +0.025 A 
ATOM      7  C   UNL     1       5.924   0.476   0.399  0.00  0.00    +0.002 A 
ATOM      8  C   UNL     1       4.965  -0.322   0.996  0.00  0.00    +0.002 A 
ATOM      9  C   UNL     1       3.630   0.037   0.942  0.00  0.00    +0.025 A 
ATOM     10  C   UNL     1       3.257   1.197   0.293  0.00  0.00    +0.059 A 
ATOM     11  N   UNL     1       1.913   1.591   0.220  0.00  0.00    -0.254 N 
ATOM     12  C   UNL     1       0.920   0.679   0.230  0.00  0.00    +0.244 C 
ATOM     13  O   UNL     1       1.176  -0.498   0.406  0.00  0.00    -0.270 OA
ATOM     14  H   UNL     1       4.544   3.674  -1.652  0.00  0.00    +0.155 HD
ENDROOT
BRANCH  12  15
ATOM     15  C   UNL     1      -0.467   1.105   0.035  0.00  0.00    +0.068 C 
ATOM     16  C   UNL     1      -1.451   0.186  -0.038  0.00  0.00    +0.013 C 
BRANCH  16  17
ATOM     17  C   UNL     1      -2.845   0.614  -0.234  0.00  0.00    -0.025 A 
ATOM     18  C   UNL     1      -3.154   1.974  -0.340  0.00  0.00    +0.009 A 
ATOM     19  C   UNL     1      -4.461   2.368  -0.529  0.00  0.00    +0.020 A 
ATOM     20  C   UNL     1      -5.469   1.420  -0.603  0.00  0.00    +0.041 A 
ATOM     21  C   UNL     1      -5.171   0.072  -0.493  0.00  0.00    +0.020 A 
ATOM     22  C   UNL     1      -3.868  -0.337  -0.310  0.00  0.00    +0.009 A 
ATOM     23 CL   UNL     1      -7.114   1.925  -0.833  0.00  0.00    -0.084 Cl
ENDBRANCH  16  17
ENDBRANCH  12  15
BRANCH   1  24
ATOM     24  C   UNL     1       1.764   3.661   1.525  0.00  0.00    +0.128 C 
BRANCH  24  26
ATOM     25  N   UNL     1       0.717   3.413   3.752  0.00  0.00    -0.285 N 
ATOM     26  C   UNL     1       0.694   3.118   2.437  0.00  0.00    +0.219 C 
ATOM     27  O   UNL     1      -0.187   2.417   1.988  0.00  0.00    -0.275 OA
ATOM     28  H   UNL     1       1.472   4.109   4.147  0.00  0.00    +0.155 HD
BRANCH  25  32
ATOM     29  C   UNL     1      -2.072   1.690   6.321  0.00  0.00    +0.059 A 
ATOM     30  C   UNL     1      -0.763   1.914   6.757  0.00  0.00    +0.017 A 
ATOM     31  C   UNL     1       0.156   2.483   5.905  0.00  0.00    +0.024 A 
ATOM     32  C   UNL     1      -0.216   2.836   4.612  0.00  0.00    +0.033 A 
ATOM     33  C   UNL     1      -1.520   2.619   4.176  0.00  0.00    +0.024 A 
ATOM     34  C   UNL     1      -2.443   2.046   5.021  0.00  0.00    +0.017 A 
BRANCH  29  35
ATOM     35  C   UNL     1      -3.060   1.080   7.231  0.00  0.00    +0.339 C 
ATOM     36  O   UNL     1      -2.736   0.771   8.360  0.00  0.00    -0.245 OA
BRANCH  35  37
ATOM     37  O   UNL     1      -4.321   0.864   6.809  0.00  0.00    -0.461 OA
BRANCH  37  39
ATOM     38  C   UNL     1      -6.613   0.095   7.104  0.00  0.00    +0.048 C 
ATOM     39  C   UNL     1      -5.239   0.260   7.758  0.00  0.00    +0.229 C 
ENDBRANCH  37  39
ENDBRANCH  35  37
ENDBRANCH  29  35
ENDBRANCH  25  32
ENDBRANCH  24  26
ENDBRANCH   1  24
TORSDOF 8
