REMARK  Name = ZINC08662133
REMARK  7 active torsions:
REMARK  status: ('A' for Active; 'I' for Inactive)
REMARK    1  A    between atoms: C_1  and  C_2
REMARK    2  A    between atoms: C_7  and  N_12
REMARK    3  A    between atoms: C_9  and  C_11
REMARK    4  A    between atoms: C_13  and  C_15
REMARK    5  A    between atoms: C_24  and  S_27
REMARK    6  A    between atoms: S_27  and  N_30
REMARK    7  A    between atoms: C_35  and  C_37
REMARK                            x       y       z     vdW  Elec       q    Type
REMARK                         _______ _______ _______ _____ _____    ______ ____
ROOT
ATOM      1  C   UNL     1       1.220   1.352  -0.716  0.00  0.00    +0.051 A 
ATOM      2  C   UNL     1      -0.088   0.994  -0.875  0.00  0.00    +0.083 A 
ATOM      3  C   UNL     1      -1.141   1.923  -0.472  0.00  0.00    +0.250 A 
ATOM      4  O   UNL     1      -2.308   1.604  -0.613  0.00  0.00    -0.268 OA
ATOM      5  N   UNL     1      -0.842   3.124   0.052  0.00  0.00    -0.322 N 
ATOM      6  H   UNL     1      -1.560   3.724   0.307  0.00  0.00    +0.169 HD
ATOM      7  C   UNL     1       0.466   3.524   0.228  0.00  0.00    +0.050 A 
ATOM      8  C   UNL     1       1.522   2.672  -0.140  0.00  0.00    +0.012 A 
ATOM      9  C   UNL     1       2.845   3.084   0.043  0.00  0.00    +0.039 A 
ATOM     10  C   UNL     1       3.106   4.313   0.580  0.00  0.00    +0.106 A 
ATOM     11  C   UNL     1       2.067   5.158   0.945  0.00  0.00    +0.030 A 
ATOM     12  C   UNL     1       0.755   4.772   0.774  0.00  0.00    +0.028 A 
ENDROOT
BRANCH   1  14
ATOM     13  N   UNL     1       2.024  -0.826  -1.507  0.00  0.00    -0.308 N 
ATOM     14  C   UNL     1       2.312   0.431  -1.115  0.00  0.00    +0.245 C 
ATOM     15  O   UNL     1       3.466   0.810  -1.090  0.00  0.00    -0.270 OA
ATOM     16  H   UNL     1       1.100  -1.107  -1.592  0.00  0.00    +0.149 HD
BRANCH  13  22
ATOM     17  C   UNL     1       0.935  -4.618  -3.208  0.00  0.00    +0.008 C 
ATOM     18  C   UNL     1       1.428  -3.572  -2.207  0.00  0.00    -0.009 C 
ATOM     19  C   UNL     1       1.867  -4.268  -0.917  0.00  0.00    +0.003 C 
ATOM     20  C   UNL     1       2.361  -3.222   0.085  0.00  0.00    +0.002 C 
ATOM     21  C   UNL     1       3.546  -2.462  -0.514  0.00  0.00    +0.022 C 
ATOM     22  C   UNL     1       3.107  -1.766  -1.804  0.00  0.00    +0.076 C 
ATOM     23  C   UNL     1       2.614  -2.813  -2.805  0.00  0.00    +0.009 C 
ATOM     24  C   UNL     1       2.175  -2.117  -4.095  0.00  0.00    +0.009 C 
ENDBRANCH  13  22
ENDBRANCH   1  14
BRANCH  10  25
ATOM     25  S   UNL     1       4.774   4.831   0.810  0.00  0.00    +0.061 S 
ATOM     26  O   UNL     1       4.739   5.927   1.713  0.00  0.00    -0.153 OA
ATOM     27  O   UNL     1       5.532   3.656   1.066  0.00  0.00    -0.153 OA
BRANCH  25  28
ATOM     28  N   UNL     1       5.306   5.429  -0.640  0.00  0.00    -0.174 NA
ATOM     29  C   UNL     1       6.149   4.612  -1.523  0.00  0.00    +0.110 C 
ATOM     30  C   UNL     1       7.416   5.404  -1.865  0.00  0.00    +0.017 C 
ATOM     31  C   UNL     1       7.021   6.761  -2.452  0.00  0.00    +0.003 C 
ATOM     32  C   UNL     1       6.222   7.554  -1.415  0.00  0.00    +0.020 C 
ATOM     33  C   UNL     1       4.938   6.785  -1.070  0.00  0.00    +0.077 C 
ATOM     34  C   UNL     1       4.198   7.500   0.063  0.00  0.00    +0.026 C 
ENDBRANCH  25  28
ENDBRANCH  10  25
TORSDOF 4
