REMARK  Name = ZINC06312164
REMARK  5 active torsions:
REMARK  status: ('A' for Active; 'I' for Inactive)
REMARK    1  A    between atoms: C_1  and  C_2
REMARK    2  A    between atoms: C_2  and  C_17
REMARK    3  A    between atoms: N_3  and  N_4
REMARK    4  A    between atoms: C_5  and  C_7
REMARK    5  A    between atoms: C_7  and  N_8
REMARK                            x       y       z     vdW  Elec       q    Type
REMARK                         _______ _______ _______ _____ _____    ______ ____
ROOT
ATOM      1  N   UNL     1      -1.034  -1.641   1.343  0.00  0.00    -0.205 N 
ATOM      2  C   UNL     1      -1.528  -1.996   2.545  0.00  0.00    +0.254 C 
ATOM      3  O   UNL     1      -1.418  -1.247   3.492  0.00  0.00    -0.272 OA
ATOM      4  H   UNL     1      -1.122  -2.240   0.585  0.00  0.00    +0.177 HD
ENDROOT
BRANCH   1   7
ATOM      5  C   UNL     1       0.817   1.235  -0.139  0.00  0.00    +0.068 C 
ATOM      6  C   UNL     1      -0.010  -0.016   0.010  0.00  0.00    +0.063 C 
ATOM      7  N   UNL     1      -0.391  -0.405   1.187  0.00  0.00    -0.185 NA
BRANCH   6   8
ATOM      8  C   UNL     1      -0.386  -0.797  -1.183  0.00  0.00    -0.002 A 
ATOM      9  C   UNL     1      -1.653  -1.379  -1.274  0.00  0.00    +0.010 A 
ATOM     10  C   UNL     1      -1.988  -2.107  -2.392  0.00  0.00    +0.004 A 
ATOM     11  C   UNL     1      -1.081  -2.270  -3.433  0.00  0.00    -0.044 A 
ATOM     12  C   UNL     1       0.170  -1.695  -3.353  0.00  0.00    -0.044 A 
ATOM     13  C   UNL     1       0.518  -0.958  -2.232  0.00  0.00    +0.013 A 
ATOM     14  C   UNL     1       1.192  -1.821  -4.452  0.00  0.00    +0.035 C 
ATOM     15  C   UNL     1       0.838  -2.976  -5.386  0.00  0.00    +0.005 C 
ATOM     16  C   UNL     1      -0.622  -2.813  -5.825  0.00  0.00    +0.005 C 
ATOM     17  C   UNL     1      -1.520  -3.088  -4.620  0.00  0.00    +0.035 C 
ENDBRANCH   6   8
ENDBRANCH   1   7
BRANCH   2  18
ATOM     18  C   UNL     1      -2.220  -3.325   2.712  0.00  0.00    +0.243 C 
BRANCH  18  19
ATOM     19  N   UNL     1      -2.663  -3.474   4.100  0.00  0.00    -0.235 N 
ATOM     20  C   UNL     1      -1.948  -4.021   5.138  0.00  0.00    +0.090 A 
ATOM     21  C   UNL     1      -0.678  -4.576   5.250  0.00  0.00    +0.029 A 
ATOM     22  C   UNL     1      -0.245  -5.046   6.458  0.00  0.00    +0.002 A 
ATOM     23  C   UNL     1      -1.064  -4.975   7.578  0.00  0.00    +0.002 A 
ATOM     24  C   UNL     1      -2.314  -4.435   7.495  0.00  0.00    +0.032 A 
ATOM     25  C   UNL     1      -2.781  -3.945   6.268  0.00  0.00    +0.113 A 
ATOM     26  N   UNL     1      -3.939  -3.372   5.885  0.00  0.00    -0.129 NA
ATOM     27  N   UNL     1      -3.900  -3.080   4.632  0.00  0.00    -0.064 NA
ENDBRANCH  18  19
ENDBRANCH   2  18
TORSDOF 4
