REMARK  Name = ZINC38933915
REMARK  2 active torsions:
REMARK  status: ('A' for Active; 'I' for Inactive)
REMARK    1  A    between atoms: C_5  and  C_6
REMARK    2  A    between atoms: C_12  and  C_14
REMARK                            x       y       z     vdW  Elec       q    Type
REMARK                         _______ _______ _______ _____ _____    ______ ____
ROOT
ATOM      1  C   UNL     1      -1.176  -0.883   0.009  0.00  0.00    +0.285 A 
ATOM      2  N   UNL     1      -2.433  -0.501   0.018  0.00  0.00    -0.103 NA
ATOM      3  N   UNL     1      -3.194  -1.538   0.022  0.00  0.00    -0.092 NA
ATOM      4  C   UNL     1      -2.456  -2.622   0.016  0.00  0.00    +0.315 A 
ATOM      5  O   UNL     1      -1.166  -2.235   0.002  0.00  0.00    -0.402 OA
ATOM      6  N   UNL     1      -2.920  -3.927   0.018  0.00  0.00    -0.234 N 
ATOM      7  C   UNL     1      -4.245  -4.172   0.026  0.00  0.00    +0.258 C 
ATOM      8  O   UNL     1      -5.035  -3.246   0.032  0.00  0.00    -0.269 OA
ATOM      9  H   UNL     1      -2.290  -4.665   0.013  0.00  0.00    +0.160 HD
ENDROOT
BRANCH   1  14
ATOM     10  C   UNL     1      -0.016   1.359   0.009  0.00  0.00    +0.056 A 
ATOM     11  C   UNL     1       1.326   1.783  -0.001  0.00  0.00    +0.058 A 
ATOM     12  C   UNL     1       2.092   0.672  -0.014  0.00  0.00    +0.171 A 
ATOM     13  O   UNL     1       1.289  -0.405  -0.012  0.00  0.00    -0.443 OA
ATOM     14  C   UNL     1       0.002  -0.004   0.002  0.00  0.00    +0.192 A 
ATOM     15 BR   UNL     1       3.982   0.637  -0.033  0.00  0.00    -0.008 Br
ENDBRANCH   1  14
BRANCH   7  16
ATOM     16  C   UNL     1      -4.734  -5.552   0.028  0.00  0.00    +0.075 A 
ATOM     17  C   UNL     1      -6.042  -6.016   0.030  0.00  0.00    +0.022 A 
ATOM     18  C   UNL     1      -6.191  -7.381   0.031  0.00  0.00    +0.024 A 
ATOM     19  C   UNL     1      -5.082  -8.165   0.030  0.00  0.00    +0.056 A 
ATOM     20  S   UNL     1      -3.806  -7.074   0.020  0.00  0.00    -0.077 S 
ATOM     21 BR   UNL     1      -4.996 -10.055   0.033  0.00  0.00    -0.043 Br
ENDBRANCH   7  16
TORSDOF 2
