REMARK  Name = ZINC14988729
REMARK  13 active torsions:
REMARK  status: ('A' for Active; 'I' for Inactive)
REMARK    1  A    between atoms: C_1  and  C_2
REMARK    2  A    between atoms: C_7  and  C_8
REMARK    3  A    between atoms: C_8  and  C_9
REMARK    4  A    between atoms: C_9  and  C_21
REMARK    5  A    between atoms: N_12  and  C_16
REMARK    6  A    between atoms: C_16  and  C_17
REMARK    7  A    between atoms: C_17  and  C_18
REMARK    8  A    between atoms: C_18  and  N_70
REMARK    9  A    between atoms: C_19  and  N_70
REMARK   10  A    between atoms: C_20  and  N_70
REMARK   11  A    between atoms: C_27  and  C_29
REMARK   12  A    between atoms: C_29  and  C_30
REMARK   13  A    between atoms: C_29  and  C_31
REMARK                            x       y       z     vdW  Elec       q    Type
REMARK                         _______ _______ _______ _____ _____    ______ ____
ROOT
ATOM      1  C   UNL     1       1.951   1.542  -1.197  0.00  0.00    +0.119 C 
ATOM      2  C   UNL     1       2.644   0.653  -2.211  0.00  0.00    +0.247 C 
ATOM      3  O   UNL     1       2.830  -0.542  -2.130  0.00  0.00    -0.273 OA
ATOM      4  N   UNL     1       3.010   1.468  -3.219  0.00  0.00    -0.224 N 
ATOM      5  C   UNL     1       2.650   2.735  -2.986  0.00  0.00    +0.309 C 
ATOM      6  O   UNL     1       2.871   3.653  -3.752  0.00  0.00    -0.252 OA
ATOM      7  N   UNL     1       2.014   2.880  -1.809  0.00  0.00    -0.284 N 
ATOM      8  H   UNL     1       1.665   3.705  -1.437  0.00  0.00    +0.151 HD
ENDROOT
BRANCH   1   9
ATOM      9  C   UNL     1       0.498   1.106  -1.003  0.00  0.00    +0.025 C 
ATOM     10  C   UNL     1      -0.211   2.094  -0.074  0.00  0.00    +0.025 C 
ATOM     11  C   UNL     1      -1.656   1.636   0.146  0.00  0.00    +0.108 C 
ATOM     12  N   UNL     1      -2.303   1.468  -1.163  0.00  0.00    -0.301 N 
ATOM     13  C   UNL     1      -1.657   0.610  -2.165  0.00  0.00    +0.108 C 
ATOM     14  C   UNL     1      -0.212   1.080  -2.358  0.00  0.00    +0.025 C 
ATOM     15  C   UNL     1      -3.467   2.090  -1.438  0.00  0.00    +0.218 C 
ATOM     16  O   UNL     1      -3.937   2.030  -2.554  0.00  0.00    -0.275 OA
BRANCH  15  17
ATOM     17  C   UNL     1      -4.184   2.859  -0.359  0.00  0.00    +0.069 C 
ATOM     18  C   UNL     1      -3.660   4.296  -0.323  0.00  0.00    +0.017 C 
ATOM     19  C   UNL     1      -5.686   2.871  -0.653  0.00  0.00    +0.017 C 
ENDBRANCH  15  17
ENDBRANCH   1   9
BRANCH   1  20
ATOM     20  C   UNL     1       2.699   1.525   0.138  0.00  0.00    +0.071 C 
BRANCH  20  27
ATOM     21  C   UNL     1       4.939  -0.256  -0.259  0.00  0.00    +0.044 C 
ATOM     22  C   UNL     1       5.155   1.235  -0.245  0.00  0.00    -0.047 A 
ATOM     23  C   UNL     1       6.425   1.751  -0.426  0.00  0.00    +0.003 A 
ATOM     24  C   UNL     1       6.625   3.118  -0.409  0.00  0.00    +0.000 A 
ATOM     25  C   UNL     1       5.554   3.971  -0.213  0.00  0.00    +0.000 A 
ATOM     26  C   UNL     1       4.284   3.455  -0.036  0.00  0.00    +0.004 A 
ATOM     27  C   UNL     1       4.084   2.087  -0.055  0.00  0.00    -0.042 A 
ENDBRANCH  20  27
ENDBRANCH   1  20
BRANCH   4  28
ATOM     28  C   UNL     1       3.717   1.022  -4.422  0.00  0.00    +0.116 C 
BRANCH  28  29
ATOM     29  C   UNL     1       5.227   1.107  -4.188  0.00  0.00    +0.001 C 
BRANCH  29  30
ATOM     30  C   UNL     1       5.965   0.641  -5.444  0.00  0.00    -0.078 C 
BRANCH  30  33
ATOM     31  C   UNL     1       8.154   0.065  -6.305  0.00  0.00    -0.097 C 
ATOM     32  C   UNL     1       7.845   2.118  -5.058  0.00  0.00    -0.097 C 
ATOM     33  N   UNL     1       7.421   0.708  -5.194  0.00  0.00    +0.376 N 
ATOM     34  H   UNL     1       7.633   0.210  -4.322  0.00  0.00    -0.083 HD
ENDBRANCH  30  33
ENDBRANCH  29  30
ENDBRANCH  28  29
ENDBRANCH   4  28
TORSDOF 8
