REMARK  Name = ZINC36220013
REMARK  10 active torsions:
REMARK  status: ('A' for Active; 'I' for Inactive)
REMARK    1  A    between atoms: C_1  and  C_2
REMARK    2  A    between atoms: C_2  and  C_3
REMARK    3  A    between atoms: C_2  and  C_4
REMARK    4  A    between atoms: C_4  and  N_5
REMARK    5  A    between atoms: C_6  and  C_8
REMARK    6  A    between atoms: C_10  and  C_24
REMARK    7  A    between atoms: N_15  and  C_16
REMARK    8  A    between atoms: C_16  and  C_17
REMARK    9  A    between atoms: C_28  and  N_30
REMARK   10  A    between atoms: C_31  and  C_33
REMARK                            x       y       z     vdW  Elec       q    Type
REMARK                         _______ _______ _______ _____ _____    ______ ____
ROOT
ATOM      1  C   UNL     1      -0.309  -0.108   4.889  0.00  0.00    +0.210 C 
ATOM      2  C   UNL     1       0.016   1.345   5.309  0.00  0.00    +0.238 C 
ATOM      3  O   UNL     1       1.079   1.151   6.263  0.00  0.00    -0.440 OA
ATOM      4  C   UNL     1       0.938  -0.073   6.798  0.00  0.00    +0.405 C 
ATOM      5  O   UNL     1       1.456  -0.413   7.843  0.00  0.00    -0.226 OA
ATOM      6  N   UNL     1       0.158  -0.887   6.053  0.00  0.00    -0.248 N 
ENDROOT
BRANCH   2   7
ATOM      7  C   UNL     1       0.491   2.153   4.129  0.00  0.00    -0.003 A 
ATOM      8  C   UNL     1       1.798   2.036   3.694  0.00  0.00    +0.007 A 
ATOM      9  C   UNL     1       2.238   2.775   2.611  0.00  0.00    +0.002 A 
ATOM     10  C   UNL     1       1.373   3.633   1.961  0.00  0.00    +0.023 A 
ATOM     11  C   UNL     1       0.059   3.752   2.396  0.00  0.00    +0.034 A 
ATOM     12  C   UNL     1      -0.381   3.005   3.481  0.00  0.00    +0.030 A 
BRANCH  11  13
ATOM     13  N   UNL     1      -0.820   4.620   1.740  0.00  0.00    -0.281 N 
ATOM     14  C   UNL     1      -0.365   5.783   1.232  0.00  0.00    +0.255 C 
ATOM     15  O   UNL     1       0.824   6.040   1.270  0.00  0.00    -0.269 OA
ATOM     16  H   UNL     1      -1.757   4.385   1.651  0.00  0.00    +0.155 HD
BRANCH  14  17
ATOM     17  C   UNL     1      -1.303   6.738   0.635  0.00  0.00    +0.074 A 
ATOM     18  C   UNL     1      -1.045   7.973   0.059  0.00  0.00    +0.021 A 
ATOM     19  C   UNL     1      -2.141   8.649  -0.421  0.00  0.00    +0.008 A 
ATOM     20  C   UNL     1      -3.367   8.082  -0.304  0.00  0.00    +0.046 A 
ATOM     21  S   UNL     1      -3.072   6.612   0.453  0.00  0.00    -0.092 S 
ENDBRANCH  14  17
ENDBRANCH  11  13
ENDBRANCH   2   7
BRANCH   1  23
ATOM     22  N   UNL     1      -0.019  -0.144   2.433  0.00  0.00    -0.313 N 
ATOM     23  C   UNL     1       0.453  -0.491   3.647  0.00  0.00    +0.238 C 
ATOM     24  O   UNL     1       1.491  -1.111   3.739  0.00  0.00    -0.274 OA
ATOM     25  H   UNL     1      -0.850   0.352   2.359  0.00  0.00    +0.149 HD
BRANCH  22  26
ATOM     26  C   UNL     1       0.722  -0.515   1.225  0.00  0.00    +0.107 C 
BRANCH  26  28
ATOM     27  C   UNL     1      -0.041   1.525   0.001  0.00  0.00    +0.009 C 
ATOM     28  C   UNL     1      -0.025  -0.005  -0.009  0.00  0.00    -0.000 C 
ATOM     29  C   UNL     1       0.681  -0.499  -1.273  0.00  0.00    +0.009 C 
ENDBRANCH  26  28
ENDBRANCH  22  26
ENDBRANCH   1  23
BRANCH   6  30
ATOM     30  C   UNL     1      -0.167  -2.285   6.344  0.00  0.00    +0.147 C 
BRANCH  30  31
ATOM     31  C   UNL     1       0.861  -3.183   5.706  0.00  0.00    -0.029 A 
ATOM     32  C   UNL     1       0.672  -3.643   4.415  0.00  0.00    +0.005 A 
ATOM     33  C   UNL     1       1.614  -4.467   3.830  0.00  0.00    +0.002 A 
ATOM     34  C   UNL     1       2.747  -4.832   4.534  0.00  0.00    +0.020 A 
ATOM     35  C   UNL     1       2.937  -4.372   5.824  0.00  0.00    +0.041 A 
ATOM     36  C   UNL     1       1.996  -3.542   6.408  0.00  0.00    +0.025 A 
ATOM     37 CL   UNL     1       4.359  -4.830   6.709  0.00  0.00    -0.084 Cl
ENDBRANCH  30  31
ENDBRANCH   6  30
TORSDOF 8
