REMARK  Name = ZINC34929827
REMARK  8 active torsions:
REMARK  status: ('A' for Active; 'I' for Inactive)
REMARK    1  A    between atoms: C_1  and  C_2
REMARK    2  A    between atoms: C_5  and  S_8
REMARK    3  A    between atoms: S_8  and  N_11
REMARK    4  A    between atoms: N_14  and  C_15
REMARK    5  A    between atoms: C_15  and  C_17
REMARK    6  A    between atoms: C_15  and  C_24
REMARK    7  A    between atoms: C_17  and  C_18
REMARK    8  A    between atoms: N_26  and  C_27
REMARK                            x       y       z     vdW  Elec       q    Type
REMARK                         _______ _______ _______ _____ _____    ______ ____
ROOT
ATOM      1  C   UNL     1       3.616  -8.078  -0.062  0.00  0.00    +0.165 C 
ENDROOT
BRANCH   1   5
ATOM      2  N   UNL     1       1.651  -4.999  -0.034  0.00  0.00    -0.072 NA
ATOM      3  C   UNL     1       1.956  -6.264  -0.043  0.00  0.00    +0.352 C 
ATOM      4  O   UNL     1       0.976  -7.195  -0.042  0.00  0.00    -0.246 OA
ATOM      5  N   UNL     1       3.273  -6.653  -0.052  0.00  0.00    -0.283 N 
ATOM      6  H   UNL     1       3.976  -5.985  -0.052  0.00  0.00    +0.151 HD
BRANCH   2   7
ATOM      7  S   UNL     1       0.063  -4.530  -0.023  0.00  0.00    +0.103 S 
ATOM      8  O   UNL     1      -0.476  -4.950   1.223  0.00  0.00    -0.146 OA
ATOM      9  O   UNL     1      -0.490  -4.937  -1.267  0.00  0.00    -0.146 OA
BRANCH   7  14
ATOM     10  C   UNL     1      -0.018   1.503   0.010  0.00  0.00    +0.044 C 
ATOM     11  C   UNL     1       0.002  -0.004   0.002  0.00  0.00    -0.050 A 
ATOM     12  C   UNL     1       0.006  -0.689  -1.199  0.00  0.00    +0.005 A 
ATOM     13  C   UNL     1       0.025  -2.071  -1.206  0.00  0.00    +0.029 A 
ATOM     14  C   UNL     1       0.040  -2.768  -0.013  0.00  0.00    +0.113 A 
ATOM     15  C   UNL     1       0.037  -2.084   1.188  0.00  0.00    +0.029 A 
ATOM     16  C   UNL     1       0.023  -0.702   1.195  0.00  0.00    +0.005 A 
ENDBRANCH   7  14
ENDBRANCH   2   7
ENDBRANCH   1   5
BRANCH   1  17
ATOM     17  C   UNL     1       4.988  -8.268   0.530  0.00  0.00    +0.234 C 
ATOM     18  O   UNL     1       5.618  -7.308   0.921  0.00  0.00    -0.274 OA
ATOM     19  N   UNL     1       5.516  -9.504   0.624  0.00  0.00    -0.311 N 
ATOM     20  H   UNL     1       5.013 -10.272   0.311  0.00  0.00    +0.149 HD
BRANCH  19  21
ATOM     21  C   UNL     1       6.851  -9.689   1.200  0.00  0.00    +0.073 C 
ATOM     22  C   UNL     1       7.908  -9.480   0.114  0.00  0.00    +0.022 C 
ATOM     23  C   UNL     1       9.302  -9.673   0.714  0.00  0.00    +0.002 C 
ATOM     24  C   UNL     1       9.422 -11.090   1.278  0.00  0.00    +0.000 C 
ATOM     25  C   UNL     1       8.365 -11.299   2.364  0.00  0.00    +0.002 C 
ATOM     26  C   UNL     1       6.972 -11.106   1.763  0.00  0.00    +0.022 C 
ENDBRANCH  19  21
ENDBRANCH   1  17
BRANCH   1  27
ATOM     27  C   UNL     1       3.605  -8.595  -1.502  0.00  0.00    +0.067 C 
BRANCH  27  28
ATOM     28  C   UNL     1       2.204  -8.518  -2.053  0.00  0.00    -0.045 A 
ATOM     29  C   UNL     1       1.342  -9.589  -1.901  0.00  0.00    +0.004 A 
ATOM     30  C   UNL     1       0.058  -9.518  -2.406  0.00  0.00    +0.000 A 
ATOM     31  C   UNL     1      -0.366  -8.378  -3.062  0.00  0.00    +0.000 A 
ATOM     32  C   UNL     1       0.496  -7.308  -3.214  0.00  0.00    +0.000 A 
ATOM     33  C   UNL     1       1.779  -7.376  -2.705  0.00  0.00    +0.004 A 
ENDBRANCH  27  28
ENDBRANCH   1  27
TORSDOF 7
