REMARK  Name = ZINC59829711
REMARK  9 active torsions:
REMARK  status: ('A' for Active; 'I' for Inactive)
REMARK    1  A    between atoms: C_1  and  N_2
REMARK    2  A    between atoms: N_2  and  C_3
REMARK    3  A    between atoms: N_2  and  C_4
REMARK    4  A    between atoms: C_4  and  C_6
REMARK    5  A    between atoms: C_4  and  C_21
REMARK    6  A    between atoms: C_6  and  N_7
REMARK    7  A    between atoms: N_7  and  S_8
REMARK    8  A    between atoms: S_8  and  C_11
REMARK    9  A    between atoms: C_16  and  N_17
REMARK                            x       y       z     vdW  Elec       q    Type
REMARK                         _______ _______ _______ _____ _____    ______ ____
ROOT
ATOM      1  N   UNL     1      -4.274  -0.175  -0.791  0.00  0.00    -0.191 NA
ATOM      2  H   UNL     1      -4.631  -0.692  -0.053  0.00  0.00    +0.148 HD
ENDROOT
BRANCH   1   3
ATOM      3  S   UNL     1      -5.297   0.473  -1.921  0.00  0.00    +0.061 S 
ATOM      4  O   UNL     1      -6.602   0.015  -1.596  0.00  0.00    -0.153 OA
ATOM      5  O   UNL     1      -4.975   1.854  -2.016  0.00  0.00    -0.153 OA
BRANCH   3   6
ATOM      6  C   UNL     1      -4.882  -0.249  -3.474  0.00  0.00    +0.135 A 
ATOM      7  C   UNL     1      -4.411   0.547  -4.502  0.00  0.00    +0.032 A 
ATOM      8  C   UNL     1      -4.085  -0.019  -5.720  0.00  0.00    +0.022 A 
ATOM      9  C   UNL     1      -4.230  -1.382  -5.911  0.00  0.00    +0.043 A 
ATOM     10  C   UNL     1      -4.701  -2.177  -4.882  0.00  0.00    +0.054 A 
ATOM     11  C   UNL     1      -5.022  -1.611  -3.662  0.00  0.00    +0.154 A 
ATOM     12 CL   UNL     1      -3.821  -2.093  -7.441  0.00  0.00    -0.083 Cl
BRANCH  11  13
ATOM     13  N   UNL     1      -5.520  -2.463  -2.559  0.00  0.00    +0.058 N 
ATOM     14  O   UNL     1      -5.763  -3.630  -2.759  0.00  0.00    -0.126 OA
ATOM     15  O   UNL     1      -5.684  -1.992  -1.458  0.00  0.00    -0.126 OA
ENDBRANCH  11  13
ENDBRANCH   3   6
ENDBRANCH   1   3
BRANCH   1  16
ATOM     16  C   UNL     1      -2.828   0.034  -0.907  0.00  0.00    +0.095 C 
BRANCH  16  17
ATOM     17  C   UNL     1      -2.152  -0.336   0.415  0.00  0.00    -0.023 C 
BRANCH  17  18
ATOM     18  C   UNL     1      -2.361  -1.802   0.693  0.00  0.00    -0.060 A 
ATOM     19  C   UNL     1      -1.565  -2.744   0.069  0.00  0.00    +0.005 A 
ATOM     20  C   UNL     1      -1.756  -4.089   0.324  0.00  0.00    +0.038 A 
ATOM     21  C   UNL     1      -2.744  -4.492   1.205  0.00  0.00    +0.123 A 
ATOM     22  C   UNL     1      -3.541  -3.548   1.830  0.00  0.00    +0.038 A 
ATOM     23  C   UNL     1      -3.345  -2.204   1.578  0.00  0.00    +0.005 A 
ATOM     24  F   UNL     1      -2.932  -5.807   1.455  0.00  0.00    -0.205 F 
ENDBRANCH  17  18
BRANCH  17  26
ATOM     25  C   UNL     1      -0.509   1.377   0.069  0.00  0.00    -0.096 C 
ATOM     26  N   UNL     1      -0.713  -0.055   0.324  0.00  0.00    +0.381 N 
ATOM     27  C   UNL     1      -0.061  -0.425   1.587  0.00  0.00    -0.096 C 
ATOM     28  H   UNL     1      -0.313  -0.591  -0.431  0.00  0.00    -0.082 HD
ENDBRANCH  17  26
ENDBRANCH  16  17
ENDBRANCH   1  16
TORSDOF 7
