REMARK  Name = ZINC13342980
REMARK  10 active torsions:
REMARK  status: ('A' for Active; 'I' for Inactive)
REMARK    1  A    between atoms: C_1  and  C_2
REMARK    2  A    between atoms: C_4  and  C_26
REMARK    3  A    between atoms: C_5  and  C_25
REMARK    4  A    between atoms: C_6  and  S_9
REMARK    5  A    between atoms: C_7  and  C_8
REMARK    6  A    between atoms: S_9  and  N_12
REMARK    7  A    between atoms: N_12  and  C_13
REMARK    8  A    between atoms: C_13  and  C_15
REMARK    9  A    between atoms: C_13  and  C_18
REMARK   10  A    between atoms: C_15  and  C_16
REMARK                            x       y       z     vdW  Elec       q    Type
REMARK                         _______ _______ _______ _____ _____    ______ ____
ROOT
ATOM      1  N   UNL     1      -2.475   0.265  -1.467  0.00  0.00    -0.182 NA
ATOM      2  H   UNL     1      -2.794   0.906  -2.121  0.00  0.00    +0.149 HD
ENDROOT
BRANCH   1   3
ATOM      3  S   UNL     1      -1.974  -1.236  -1.957  0.00  0.00    +0.059 S 
ATOM      4  O   UNL     1      -2.180  -1.295  -3.361  0.00  0.00    -0.153 OA
ATOM      5  O   UNL     1      -0.701  -1.452  -1.364  0.00  0.00    -0.153 OA
BRANCH   3  11
ATOM      6  C   UNL     1      -6.229  -4.265  -2.156  0.00  0.00    +0.044 C 
ATOM      7  C   UNL     1      -5.031  -3.780  -1.382  0.00  0.00    -0.045 A 
ATOM      8  C   UNL     1      -4.792  -4.257  -0.107  0.00  0.00    +0.007 A 
ATOM      9  C   UNL     1      -3.693  -3.812   0.603  0.00  0.00    -0.045 A 
ATOM     10  C   UNL     1      -2.832  -2.890   0.038  0.00  0.00    -0.021 A 
ATOM     11  C   UNL     1      -3.071  -2.412  -1.237  0.00  0.00    +0.112 A 
ATOM     12  C   UNL     1      -4.173  -2.853  -1.945  0.00  0.00    -0.021 A 
ATOM     13  C   UNL     1      -4.437  -2.328  -3.333  0.00  0.00    +0.046 C 
ATOM     14  C   UNL     1      -1.633  -2.405   0.812  0.00  0.00    +0.046 C 
ATOM     15  C   UNL     1      -3.433  -4.333   1.993  0.00  0.00    +0.044 C 
ENDBRANCH   3  11
ENDBRANCH   1   3
BRANCH   1  16
ATOM     16  C   UNL     1      -2.438   0.623  -0.047  0.00  0.00    +0.118 C 
BRANCH  16  17
ATOM     17  C   UNL     1      -3.814   0.470   0.546  0.00  0.00    -0.010 A 
ATOM     18  C   UNL     1      -4.923   0.442  -0.279  0.00  0.00    +0.006 A 
ATOM     19  C   UNL     1      -6.186   0.303   0.265  0.00  0.00    +0.000 A 
ATOM     20  C   UNL     1      -6.341   0.190   1.635  0.00  0.00    +0.001 A 
ATOM     21  C   UNL     1      -5.233   0.217   2.460  0.00  0.00    +0.020 A 
ATOM     22  C   UNL     1      -3.968   0.352   1.916  0.00  0.00    +0.046 A 
ATOM     23 CL   UNL     1      -2.575   0.379   2.951  0.00  0.00    -0.083 Cl
ENDBRANCH  16  17
BRANCH  16  24
ATOM     24  C   UNL     1      -1.976   2.074   0.101  0.00  0.00    +0.150 C 
BRANCH  24  25
ATOM     25  C   UNL     1      -0.551   2.199  -0.373  0.00  0.00    +0.358 C 
ATOM     26  O   UNL     1       0.069   1.212  -0.691  0.00  0.00    -0.246 OA
ATOM     27  O   UNL     1       0.028   3.408  -0.447  0.00  0.00    -0.246 OA
ENDBRANCH  24  25
ENDBRANCH  16  24
ENDBRANCH   1  16
TORSDOF 6
