REMARK  Name = ZINC12623347
REMARK  9 active torsions:
REMARK  status: ('A' for Active; 'I' for Inactive)
REMARK    1  A    between atoms: C_1  and  C_2
REMARK    2  A    between atoms: C_2  and  C_4
REMARK    3  A    between atoms: C_2  and  O_17
REMARK    4  A    between atoms: N_6  and  C_7
REMARK    5  A    between atoms: C_10  and  N_13
REMARK    6  A    between atoms: C_14  and  C_16
REMARK    7  A    between atoms: O_17  and  C_18
REMARK    8  A    between atoms: C_18  and  C_20
REMARK    9  A    between atoms: C_34  and  C_35
REMARK                            x       y       z     vdW  Elec       q    Type
REMARK                         _______ _______ _______ _____ _____    ______ ____
ROOT
ATOM      1  C   UNL     1      -0.951  -0.284  -2.845  0.00  0.00    +0.341 C 
ATOM      2  O   UNL     1      -2.150  -0.156  -2.698  0.00  0.00    -0.245 OA
ENDROOT
BRANCH   1   3
ATOM      3  C   UNL     1      -0.424  -0.992  -4.031  0.00  0.00    +0.073 A 
ATOM      4  C   UNL     1      -0.198  -2.438  -4.012  0.00  0.00    +0.015 A 
ATOM      5  C   UNL     1      -0.473  -3.206  -2.877  0.00  0.00    +0.011 A 
ATOM      6  C   UNL     1      -0.249  -4.552  -2.903  0.00  0.00    +0.001 A 
ATOM      7  C   UNL     1       0.251  -5.170  -4.047  0.00  0.00    +0.002 A 
ATOM      8  C   UNL     1       0.530  -4.451  -5.169  0.00  0.00    +0.028 A 
ATOM      9  C   UNL     1       0.311  -3.061  -5.179  0.00  0.00    +0.072 A 
ATOM     10  N   UNL     1       0.576  -2.330  -6.262  0.00  0.00    -0.247 NA
ATOM     11  C   UNL     1       0.382  -1.021  -6.304  0.00  0.00    +0.072 A 
ATOM     12  C   UNL     1      -0.132  -0.309  -5.204  0.00  0.00    -0.007 A 
ATOM     13  C   UNL     1      -0.373   1.173  -5.260  0.00  0.00    +0.038 C 
ATOM     14  C   UNL     1       0.472   1.831  -6.347  0.00  0.00    +0.009 C 
ATOM     15  C   UNL     1       0.213   1.129  -7.686  0.00  0.00    +0.038 C 
ATOM     16  C   UNL     1       0.711  -0.296  -7.549  0.00  0.00    -0.018 C 
ATOM     17  C   UNL     1       1.417  -0.889  -8.535  0.00  0.00    +0.052 C 
BRANCH  17  18
ATOM     18  C   UNL     1       1.823  -0.116  -9.709  0.00  0.00    +0.128 A 
ATOM     19  C   UNL     1       2.445  -0.612 -10.821  0.00  0.00    +0.049 A 
ATOM     20  C   UNL     1       2.646   0.474 -11.690  0.00  0.00    +0.042 A 
ATOM     21  C   UNL     1       2.146   1.569 -11.079  0.00  0.00    +0.195 A 
ATOM     22  O   UNL     1       1.645   1.208  -9.887  0.00  0.00    -0.464 OA
ENDBRANCH  17  18
ENDBRANCH   1   3
BRANCH   1  23
ATOM     23  O   UNL     1      -0.102   0.218  -1.928  0.00  0.00    -0.449 OA
BRANCH  23  25
ATOM     24  C   UNL     1      -0.843   2.376  -1.132  0.00  0.00    +0.062 C 
ATOM     25  C   UNL     1      -0.680   0.890  -0.808  0.00  0.00    +0.259 C 
BRANCH  25  26
ATOM     26  C   UNL     1       0.219   0.733   0.391  0.00  0.00    +0.258 C 
ATOM     27  O   UNL     1       1.295   0.186   0.275  0.00  0.00    -0.271 OA
ATOM     28  N   UNL     1      -0.173   1.200   1.593  0.00  0.00    -0.282 N 
ATOM     29  H   UNL     1      -1.004   1.694   1.675  0.00  0.00    +0.155 HD
BRANCH  28  30
ATOM     30  C   UNL     1       0.620   0.971   2.726  0.00  0.00    +0.034 A 
ATOM     31  C   UNL     1       0.021   0.748   3.959  0.00  0.00    +0.025 A 
ATOM     32  C   UNL     1       0.802   0.522   5.074  0.00  0.00    +0.025 A 
ATOM     33  C   UNL     1       2.186   0.520   4.964  0.00  0.00    +0.033 A 
ATOM     34  C   UNL     1       2.785   0.743   3.731  0.00  0.00    +0.025 A 
ATOM     35  C   UNL     1       2.004   0.963   2.614  0.00  0.00    +0.025 A 
BRANCH  33  36
ATOM     36  N   UNL     1       2.978   0.292   6.096  0.00  0.00    -0.286 N 
ATOM     37  C   UNL     1       4.158   0.929   6.233  0.00  0.00    +0.214 C 
ATOM     38  O   UNL     1       4.572   1.637   5.339  0.00  0.00    -0.276 OA
ATOM     39  C   UNL     1       4.963   0.762   7.496  0.00  0.00    +0.109 C 
ATOM     40  H   UNL     1       2.678  -0.325   6.782  0.00  0.00    +0.155 HD
ENDBRANCH  33  36
ENDBRANCH  28  30
ENDBRANCH  25  26
ENDBRANCH  23  25
ENDBRANCH   1  23
TORSDOF 7
