REMARK  Name = ZINC12247965
REMARK  12 active torsions:
REMARK  status: ('A' for Active; 'I' for Inactive)
REMARK    1  A    between atoms: C_1  and  C_2
REMARK    2  A    between atoms: C_6  and  C_8
REMARK    3  A    between atoms: C_8  and  N_70
REMARK    4  A    between atoms: C_14  and  C_18
REMARK    5  A    between atoms: C_18  and  C_20
REMARK    6  A    between atoms: C_18  and  N_24
REMARK    7  A    between atoms: C_20  and  C_21
REMARK    8  A    between atoms: C_21  and  C_22
REMARK    9  A    between atoms: C_21  and  C_23
REMARK   10  A    between atoms: C_25  and  C_27
REMARK   11  A    between atoms: C_29  and  C_34
REMARK   12  A    between atoms: C_31  and  C_33
REMARK                            x       y       z     vdW  Elec       q    Type
REMARK                         _______ _______ _______ _____ _____    ______ ____
ROOT
ATOM      1  C   UNL     1      -3.000   0.792   6.766  0.00  0.00    -0.070 C 
ATOM      2  C   UNL     1      -4.136   1.490   6.010  0.00  0.00    +0.058 C 
ATOM      3  C   UNL     1      -3.672   1.793   4.609  0.00  0.00    +0.132 A 
ATOM      4  N   UNL     1      -3.815   2.903   3.946  0.00  0.00    -0.134 NA
ATOM      5  N   UNL     1      -3.311   2.770   2.768  0.00  0.00    -0.132 NA
ATOM      6  C   UNL     1      -2.827   1.563   2.630  0.00  0.00    +0.154 A 
ATOM      7  N   UNL     1      -3.029   0.917   3.798  0.00  0.00    -0.315 N 
ATOM      8  C   UNL     1      -2.630  -0.446   4.148  0.00  0.00    +0.106 C 
ATOM      9  C   UNL     1      -3.583  -0.991   5.216  0.00  0.00    -0.056 C 
ATOM     10  N   UNL     1      -3.099  -0.672   6.579  0.00  0.00    +0.385 N 
ATOM     11  H   UNL     1      -3.767  -1.047   7.263  0.00  0.00    -0.081 HD
ENDROOT
BRANCH  10  12
ATOM     12  C   UNL     1      -1.783  -1.296   6.804  0.00  0.00    -0.022 C 
BRANCH  12  18
ATOM     13  C   UNL     1       0.166   1.349  10.413  0.00  0.00    +0.065 C 
ATOM     14  C   UNL     1      -0.515   0.080   9.968  0.00  0.00    +0.038 A 
ATOM     15  C   UNL     1      -0.792  -0.907  10.894  0.00  0.00    +0.023 A 
ATOM     16  C   UNL     1      -1.418  -2.071  10.475  0.00  0.00    +0.003 A 
ATOM     17  C   UNL     1      -1.743  -2.198   9.133  0.00  0.00    +0.021 A 
ATOM     18  C   UNL     1      -1.435  -1.169   8.264  0.00  0.00    +0.025 A 
ATOM     19  N   UNL     1      -0.834  -0.078   8.698  0.00  0.00    -0.259 NA
ENDBRANCH  12  18
ENDBRANCH  10  12
BRANCH   6  20
ATOM     20  C   UNL     1      -2.163   1.001   1.399  0.00  0.00    +0.142 C 
BRANCH  20  21
ATOM     21  N   UNL     1      -2.950   1.354   0.215  0.00  0.00    -0.301 N 
ATOM     22  C   UNL     1      -2.824   0.634  -0.917  0.00  0.00    +0.245 C 
ATOM     23  O   UNL     1      -2.125  -0.360  -0.930  0.00  0.00    -0.270 OA
ATOM     24  H   UNL     1      -3.562   2.106   0.246  0.00  0.00    +0.150 HD
BRANCH  22  25
ATOM     25  C   UNL     1      -3.534   1.055  -2.144  0.00  0.00    +0.037 A 
ATOM     26  C   UNL     1      -4.342   2.193  -2.130  0.00  0.00    +0.016 A 
ATOM     27  C   UNL     1      -4.998   2.583  -3.280  0.00  0.00    -0.049 A 
ATOM     28  C   UNL     1      -4.865   1.842  -4.441  0.00  0.00    +0.006 A 
ATOM     29  C   UNL     1      -4.071   0.710  -4.459  0.00  0.00    -0.049 A 
ATOM     30  C   UNL     1      -3.405   0.312  -3.318  0.00  0.00    +0.016 A 
ATOM     31  C   UNL     1      -3.933  -0.091  -5.728  0.00  0.00    +0.044 C 
ATOM     32  C   UNL     1      -5.865   3.816  -3.269  0.00  0.00    +0.044 C 
ENDBRANCH  22  25
ENDBRANCH  20  21
BRANCH  20  33
ATOM     33  C   UNL     1      -0.755   1.584   1.268  0.00  0.00    +0.033 C 
BRANCH  33  34
ATOM     34  C   UNL     1       0.112   1.090   2.429  0.00  0.00    -0.015 C 
ATOM     35  C   UNL     1       1.474   1.783   2.378  0.00  0.00    +0.007 C 
ATOM     36  C   UNL     1       0.305  -0.423   2.312  0.00  0.00    +0.007 C 
ENDBRANCH  33  34
ENDBRANCH  20  33
ENDBRANCH   6  20
TORSDOF 7
