REMARK  Name = ZINC20708867
REMARK  5 active torsions:
REMARK  status: ('A' for Active; 'I' for Inactive)
REMARK    1  A    between atoms: C_1  and  C_2
REMARK    2  A    between atoms: C_4  and  C_28
REMARK    3  A    between atoms: C_15  and  C_18
REMARK    4  A    between atoms: C_20  and  N_25
REMARK    5  A    between atoms: C_23  and  O_24
REMARK                            x       y       z     vdW  Elec       q    Type
REMARK                         _______ _______ _______ _____ _____    ______ ____
ROOT
ATOM      1  C   UNL     1      -4.673   7.767  -0.464  0.00  0.00    +0.044 C 
ATOM      2  C   UNL     1      -3.730   6.628  -0.172  0.00  0.00    -0.050 A 
ATOM      3  C   UNL     1      -2.698   6.795   0.734  0.00  0.00    +0.008 A 
ATOM      4  C   UNL     1      -1.831   5.758   0.996  0.00  0.00    -0.029 A 
ATOM      5  C   UNL     1      -1.977   4.525   0.356  0.00  0.00    +0.034 A 
ATOM      6  C   UNL     1      -3.033   4.366  -0.545  0.00  0.00    -0.019 A 
ATOM      7  C   UNL     1      -3.891   5.412  -0.808  0.00  0.00    +0.009 A 
ATOM      8  C   UNL     1      -3.203   3.041  -1.181  0.00  0.00    +0.049 C 
ATOM      9  C   UNL     1      -3.807   2.870  -2.525  0.00  0.00    -0.023 C 
ATOM     10  C   UNL     1      -3.245   1.818  -3.110  0.00  0.00    -0.030 C 
ATOM     11  C   UNL     1      -2.175   1.220  -2.192  0.00  0.00    +0.033 C 
ATOM     12  C   UNL     1      -1.773   2.441  -1.357  0.00  0.00    +0.029 C 
ATOM     13  C   UNL     1      -1.280   2.206   0.056  0.00  0.00    +0.108 C 
ATOM     14  N   UNL     1      -1.051   3.529   0.659  0.00  0.00    -0.336 N 
ATOM     15  C   UNL     1      -0.711   5.955   1.985  0.00  0.00    +0.045 C 
ATOM     16  H   UNL     1      -0.182   3.692   1.313  0.00  0.00    +0.147 HD
ENDROOT
BRANCH  13  17
ATOM     17  C   UNL     1       0.008   1.425   0.027  0.00  0.00    +0.017 A 
ATOM     18  C   UNL     1       1.218   2.088  -0.033  0.00  0.00    +0.041 A 
ATOM     19  C   UNL     1       2.400   1.372  -0.065  0.00  0.00    +0.127 A 
ATOM     20  C   UNL     1       2.374  -0.011  -0.038  0.00  0.00    +0.036 A 
ATOM     21  C   UNL     1       1.167  -0.679   0.022  0.00  0.00    +0.048 A 
ATOM     22  C   UNL     1      -0.021   0.038   0.054  0.00  0.00    +0.122 A 
BRANCH  19  23
ATOM     23  N   UNL     1       3.695   2.085  -0.129  0.00  0.00    +0.056 N 
ATOM     24  O   UNL     1       4.737   1.455  -0.157  0.00  0.00    -0.126 OA
ATOM     25  O   UNL     1       3.719   3.303  -0.152  0.00  0.00    -0.126 OA
ENDBRANCH  19  23
BRANCH  22  26
ATOM     26  O   UNL     1      -1.210  -0.617   0.113  0.00  0.00    -0.506 OA
ATOM     27  H   UNL     1      -1.232  -1.717   0.135  0.00  0.00    +0.292 HD
ENDBRANCH  22  26
ENDBRANCH  13  17
TORSDOF 3
