REMARK  Name = ZINC04172136
REMARK  8 active torsions:
REMARK  status: ('A' for Active; 'I' for Inactive)
REMARK    1  A    between atoms: C_1  and  O_2
REMARK    2  A    between atoms: O_2  and  C_3
REMARK    3  A    between atoms: C_6  and  C_12
REMARK    4  A    between atoms: C_8  and  N_9
REMARK    5  A    between atoms: C_23  and  O_30
REMARK    6  A    between atoms: C_25  and  O_28
REMARK    7  A    between atoms: O_28  and  C_29
REMARK    8  A    between atoms: O_30  and  C_31
REMARK                            x       y       z     vdW  Elec       q    Type
REMARK                         _______ _______ _______ _____ _____    ______ ____
ROOT
ATOM      1  C   UNL     1      -0.791   1.672  -1.172  0.00  0.00    +0.105 C 
ATOM      2  C   UNL     1       0.254   1.077  -0.226  0.00  0.00    +0.029 C 
ATOM      3  C   UNL     1       1.628   1.717  -0.573  0.00  0.00    +0.033 C 
ATOM      4  C   UNL     1       1.608   3.033   0.179  0.00  0.00    -0.030 C 
ATOM      5  C   UNL     1       0.739   2.989   1.158  0.00  0.00    -0.023 C 
ATOM      6  C   UNL     1       0.051   1.644   1.195  0.00  0.00    +0.049 C 
ATOM      7  C   UNL     1      -1.404   1.802   1.524  0.00  0.00    -0.012 A 
ATOM      8  C   UNL     1      -1.742   2.150   2.828  0.00  0.00    +0.052 A 
ATOM      9  C   UNL     1      -3.065   2.315   3.194  0.00  0.00    +0.124 A 
ATOM     10  C   UNL     1      -4.071   2.133   2.256  0.00  0.00    +0.093 A 
ATOM     11  C   UNL     1      -3.743   1.787   0.959  0.00  0.00    +0.145 A 
ATOM     12  C   UNL     1      -2.404   1.618   0.590  0.00  0.00    +0.074 A 
ATOM     13  N   UNL     1      -2.129   1.260  -0.736  0.00  0.00    -0.334 N 
ATOM     14  H   UNL     1      -2.837   1.615  -1.361  0.00  0.00    +0.147 HD
ENDROOT
BRANCH   1  18
ATOM     15  C   UNL     1      -0.553   5.938  -1.056  0.00  0.00    +0.150 A 
ATOM     16  C   UNL     1       0.339   5.213  -1.833  0.00  0.00    +0.048 A 
ATOM     17  C   UNL     1       0.264   3.834  -1.864  0.00  0.00    +0.009 A 
ATOM     18  C   UNL     1      -0.707   3.176  -1.131  0.00  0.00    -0.025 A 
ATOM     19  C   UNL     1      -1.597   3.897  -0.356  0.00  0.00    +0.042 A 
ATOM     20  C   UNL     1      -1.523   5.276  -0.317  0.00  0.00    +0.168 A 
BRANCH  20  21
ATOM     21  N   UNL     1      -2.476   6.046   0.512  0.00  0.00    +0.060 N 
ATOM     22  O   UNL     1      -3.328   5.464   1.160  0.00  0.00    -0.126 OA
ATOM     23  O   UNL     1      -2.410   7.262   0.546  0.00  0.00    -0.126 OA
ENDBRANCH  20  21
BRANCH  15  25
ATOM     24  C   UNL     1       0.546   7.908  -1.806  0.00  0.00    +0.277 C 
ATOM     25  O   UNL     1      -0.477   7.294  -1.019  0.00  0.00    -0.493 OA
ENDBRANCH  15  25
ENDBRANCH   1  18
BRANCH  11  26
ATOM     26  O   UNL     1      -4.726   1.609   0.036  0.00  0.00    -0.493 OA
ATOM     27  C   UNL     1      -6.072   1.797   0.479  0.00  0.00    +0.277 C 
ENDBRANCH  11  26
BRANCH   9  28
ATOM     28  O   UNL     1      -3.380   2.655   4.473  0.00  0.00    -0.495 OA
ATOM     29  C   UNL     1      -4.767   2.808   4.780  0.00  0.00    +0.277 C 
ENDBRANCH   9  28
TORSDOF 5
