REMARK  Name = ZINC56864682
REMARK  6 active torsions:
REMARK  status: ('A' for Active; 'I' for Inactive)
REMARK    1  A    between atoms: C_1  and  C_2
REMARK    2  A    between atoms: N_7  and  C_9
REMARK    3  A    between atoms: C_9  and  C_11
REMARK    4  A    between atoms: C_9  and  C_12
REMARK    5  A    between atoms: C_12  and  N_13
REMARK    6  A    between atoms: C_20  and  C_23
REMARK                            x       y       z     vdW  Elec       q    Type
REMARK                         _______ _______ _______ _____ _____    ______ ____
ROOT
ATOM      1  N   UNL     1       3.065  -0.566   2.178  0.00  0.00    -0.301 N 
ATOM      2  C   UNL     1       4.245   0.042   1.946  0.00  0.00    +0.302 C 
ATOM      3  O   UNL     1       5.265  -0.617   1.876  0.00  0.00    -0.253 OA
ATOM      4  N   UNL     1       4.295   1.380   1.790  0.00  0.00    -0.285 N 
ATOM      5  C   UNL     1       3.093   2.201   1.986  0.00  0.00    +0.109 C 
ATOM      6  C   UNL     1       3.411   3.306   2.999  0.00  0.00    +0.020 C 
ATOM      7  C   UNL     1       4.637   4.090   2.525  0.00  0.00    +0.016 C 
ATOM      8  C   UNL     1       5.843   3.151   2.440  0.00  0.00    +0.093 C 
ATOM      9  C   UNL     1       5.554   2.045   1.427  0.00  0.00    +0.122 C 
ATOM     10  H   UNL     1       2.263  -0.035   2.305  0.00  0.00    +0.150 HD
ENDROOT
BRANCH   8  11
ATOM     11  C   UNL     1       7.057   3.929   2.005  0.00  0.00    +0.223 C 
ATOM     12  O   UNL     1       6.968   5.119   1.784  0.00  0.00    -0.275 OA
ATOM     13  N   UNL     1       8.243   3.305   1.861  0.00  0.00    -0.264 N 
ATOM     14  C   UNL     1       9.363   4.023   1.460  0.00  0.00    +0.164 A 
ATOM     15  N   UNL     1       9.456   5.306   1.185  0.00  0.00    -0.233 NA
ATOM     16  C   UNL     1      10.603   5.843   0.814  0.00  0.00    +0.120 A 
ATOM     17  C   UNL     1      11.673   5.014   0.730  0.00  0.00    +0.068 A 
ATOM     18  S   UNL     1      10.932   3.464   1.216  0.00  0.00    -0.061 S 
ATOM     19  H   UNL     1       8.314   2.353   2.038  0.00  0.00    +0.157 HD
ENDBRANCH   8  11
BRANCH   1  20
ATOM     20  C   UNL     1       2.993  -2.028   2.240  0.00  0.00    +0.090 C 
BRANCH  20  21
ATOM     21  C   UNL     1       1.533  -2.462   2.386  0.00  0.00    -0.054 C 
ATOM     22  C   UNL     1       1.447  -3.988   2.335  0.00  0.00    -0.012 C 
BRANCH  21  28
ATOM     23  C   UNL     1      -2.985  -1.954   0.572  0.00  0.00    +0.005 C 
ATOM     24  C   UNL     1      -1.514  -1.581   0.379  0.00  0.00    -0.031 C 
ATOM     25  C   UNL     1      -1.037  -2.073  -0.991  0.00  0.00    -0.001 C 
ATOM     26  C   UNL     1       0.456  -1.765  -1.141  0.00  0.00    -0.018 C 
ATOM     27  C   UNL     1       1.224  -2.420   0.009  0.00  0.00    -0.078 C 
ATOM     28  N   UNL     1       0.741  -1.889   1.290  0.00  0.00    +0.383 N 
ATOM     29  C   UNL     1      -0.672  -2.241   1.474  0.00  0.00    -0.075 C 
ATOM     30  H   UNL     1       0.838  -0.885   1.295  0.00  0.00    -0.081 HD
ENDBRANCH  21  28
ENDBRANCH  20  21
ENDBRANCH   1  20
TORSDOF 4
