REMARK  Name = ZINC10816796
REMARK  10 active torsions:
REMARK  status: ('A' for Active; 'I' for Inactive)
REMARK    1  A    between atoms: C_1  and  C_2
REMARK    2  A    between atoms: C_2  and  N_52
REMARK    3  A    between atoms: C_3  and  C_4
REMARK    4  A    between atoms: C_3  and  N_52
REMARK    5  A    between atoms: C_5  and  C_6
REMARK    6  A    between atoms: C_5  and  N_52
REMARK    7  A    between atoms: C_6  and  N_7
REMARK    8  A    between atoms: C_13  and  S_17
REMARK    9  A    between atoms: S_17  and  C_18
REMARK   10  A    between atoms: C_19  and  C_21
REMARK                            x       y       z     vdW  Elec       q    Type
REMARK                         _______ _______ _______ _____ _____    ______ ____
ROOT
ATOM      1  N   UNL     1       6.245   1.658  -0.563  0.00  0.00    -0.248 N 
ATOM      2  C   UNL     1       4.907   1.518  -0.235  0.00  0.00    +0.168 A 
ATOM      3  N   UNL     1       3.910   2.336  -0.478  0.00  0.00    -0.224 NA
ATOM      4  C   UNL     1       2.641   2.068  -0.096  0.00  0.00    +0.080 A 
ATOM      5  C   UNL     1       1.486   2.859  -0.295  0.00  0.00    +0.030 A 
ATOM      6  C   UNL     1       0.270   2.447   0.153  0.00  0.00    +0.017 A 
ATOM      7  C   UNL     1       0.113   1.235   0.824  0.00  0.00    +0.009 A 
ATOM      8  C   UNL     1       1.225   0.430   1.038  0.00  0.00    +0.032 A 
ATOM      9  C   UNL     1       2.453   0.845   0.586  0.00  0.00    +0.042 A 
ATOM     10  S   UNL     1       4.099   0.177   0.627  0.00  0.00    -0.052 S 
ATOM     11  C   UNL     1       7.143   0.748  -0.135  0.00  0.00    +0.252 C 
ATOM     12  O   UNL     1       6.770  -0.227   0.489  0.00  0.00    -0.270 OA
ENDROOT
BRANCH  11  13
ATOM     13  C   UNL     1       8.580   0.936  -0.423  0.00  0.00    +0.037 A 
ATOM     14  C   UNL     1       9.102   2.221  -0.577  0.00  0.00    +0.013 A 
ATOM     15  C   UNL     1      10.446   2.389  -0.840  0.00  0.00    +0.001 A 
ATOM     16  C   UNL     1      11.274   1.287  -0.963  0.00  0.00    +0.000 A 
ATOM     17  C   UNL     1      10.761   0.010  -0.817  0.00  0.00    +0.001 A 
ATOM     18  C   UNL     1       9.421  -0.172  -0.548  0.00  0.00    +0.013 A 
ENDBRANCH  11  13
BRANCH   7  19
ATOM     19  S   UNL     1      -1.477   0.730   1.392  0.00  0.00    -0.129 S 
ATOM     20  C   UNL     1      -2.574   2.082   0.886  0.00  0.00    +0.090 C 
ENDBRANCH   7  19
BRANCH   1  21
ATOM     21  C   UNL     1       6.685   2.795  -1.375  0.00  0.00    +0.097 C 
BRANCH  21  22
ATOM     22  C   UNL     1       6.622   4.074  -0.539  0.00  0.00    -0.059 C 
BRANCH  22  23
ATOM     23  N   UNL     1       7.088   5.208  -1.365  0.00  0.00    +0.380 N 
ATOM     24  H   UNL     1       7.999   4.969  -1.776  0.00  0.00    -0.082 HD
BRANCH  23  26
ATOM     25  C   UNL     1       4.775   5.911  -1.883  0.00  0.00    -0.017 C 
ATOM     26  C   UNL     1       6.124   5.469  -2.454  0.00  0.00    -0.082 C 
ENDBRANCH  23  26
BRANCH  23  27
ATOM     27  C   UNL     1       7.242   6.415  -0.526  0.00  0.00    -0.082 C 
ATOM     28  C   UNL     1       7.848   7.534  -1.375  0.00  0.00    -0.017 C 
ENDBRANCH  23  27
ENDBRANCH  22  23
ENDBRANCH  21  22
ENDBRANCH   1  21
TORSDOF 7
