REMARK  Name = ZINC43525891
REMARK  9 active torsions:
REMARK  status: ('A' for Active; 'I' for Inactive)
REMARK    1  A    between atoms: C_1  and  N_2
REMARK    2  A    between atoms: C_3  and  C_13
REMARK    3  A    between atoms: C_5  and  C_7
REMARK    4  A    between atoms: C_22  and  C_24
REMARK    5  A    between atoms: C_24  and  N_25
REMARK    6  A    between atoms: N_25  and  C_26
REMARK    7  A    between atoms: C_26  and  N_28
REMARK    8  A    between atoms: N_28  and  C_29
REMARK    9  A    between atoms: C_33  and  C_35
REMARK                            x       y       z     vdW  Elec       q    Type
REMARK                         _______ _______ _______ _____ _____    ______ ____
ROOT
ATOM      1  C   UNL     1      -0.326   0.444  -3.108  0.00  0.00    +0.024 C 
ATOM      2  C   UNL     1       1.164   0.171  -3.321  0.00  0.00    -0.068 C 
ATOM      3  N   UNL     1       1.361  -0.616  -4.541  0.00  0.00    +0.383 N 
ATOM      4  C   UNL     1       0.689  -1.913  -4.433  0.00  0.00    -0.078 C 
ATOM      5  C   UNL     1      -0.818  -1.709  -4.257  0.00  0.00    -0.015 C 
ATOM      6  C   UNL     1      -1.119  -0.201  -4.253  0.00  0.00    -0.007 C 
ATOM      7  C   UNL     1      -0.625   0.393  -5.578  0.00  0.00    -0.010 C 
ATOM      8  C   UNL     1       0.878   0.120  -5.712  0.00  0.00    -0.051 C 
ATOM      9  H   UNL     1       2.349  -0.785  -4.656  0.00  0.00    -0.081 HD
ENDROOT
BRANCH   1  12
ATOM     10  C   UNL     1      -2.944   1.075  -1.573  0.00  0.00    +0.172 C 
ATOM     11  N   UNL     1      -1.909   0.136  -1.135  0.00  0.00    -0.271 N 
ATOM     12  C   UNL     1      -0.765  -0.148  -1.793  0.00  0.00    +0.041 A 
ATOM     13  C   UNL     1      -0.084  -1.060  -1.062  0.00  0.00    +0.048 A 
ATOM     14  C   UNL     1      -0.837  -1.343   0.083  0.00  0.00    +0.066 A 
ATOM     15  N   UNL     1      -1.928  -0.623   0.043  0.00  0.00    -0.176 NA
BRANCH  14  16
ATOM     16  C   UNL     1      -0.454  -2.307   1.176  0.00  0.00    +0.040 C 
ATOM     17  C   UNL     1       1.062  -2.273   1.378  0.00  0.00    +0.010 C 
ATOM     18  C   UNL     1       1.451  -3.251   2.488  0.00  0.00    +0.001 C 
ATOM     19  C   UNL     1       1.020  -4.666   2.096  0.00  0.00    +0.000 C 
ATOM     20  C   UNL     1      -0.496  -4.699   1.894  0.00  0.00    +0.001 C 
ATOM     21  C   UNL     1      -0.885  -3.721   0.784  0.00  0.00    +0.010 C 
ENDBRANCH  14  16
ENDBRANCH   1  12
BRANCH   8  22
ATOM     22  C   UNL     1       1.134  -0.708  -6.973  0.00  0.00    +0.088 C 
BRANCH  22  23
ATOM     23  N   UNL     1       2.555  -1.058  -7.047  0.00  0.00    -0.328 N 
ATOM     24  H   UNL     1       3.164  -0.763  -6.352  0.00  0.00    +0.148 HD
BRANCH  23  25
ATOM     25  C   UNL     1       3.015  -1.790  -8.080  0.00  0.00    +0.134 C 
ATOM     26  S   UNL     1       1.940  -2.311  -9.306  0.00  0.00    -0.019 S 
BRANCH  25  27
ATOM     27  N   UNL     1       4.322  -2.112  -8.148  0.00  0.00    -0.297 N 
ATOM     28  H   UNL     1       4.916  -1.887  -7.415  0.00  0.00    +0.154 HD
BRANCH  27  29
ATOM     29  C   UNL     1       4.822  -2.772  -9.276  0.00  0.00    +0.034 A 
ATOM     30  C   UNL     1       4.402  -2.394 -10.546  0.00  0.00    +0.023 A 
ATOM     31  C   UNL     1       4.893  -3.043 -11.663  0.00  0.00    +0.003 A 
ATOM     32  C   UNL     1       5.804  -4.070 -11.527  0.00  0.00    +0.019 A 
ATOM     33  C   UNL     1       6.233  -4.457 -10.255  0.00  0.00    +0.054 A 
ATOM     34  C   UNL     1       5.742  -3.799  -9.128  0.00  0.00    +0.042 A 
BRANCH  33  35
ATOM     35  C   UNL     1       7.178  -5.523 -10.110  0.00  0.00    +0.099 C 
ATOM     36  N   UNL     1       7.928  -6.369  -9.995  0.00  0.00    -0.191 NA
ENDBRANCH  33  35
ENDBRANCH  27  29
ENDBRANCH  25  27
ENDBRANCH  23  25
ENDBRANCH  22  23
ENDBRANCH   8  22
TORSDOF 8
