REMARK  Name = ZINC01456575
REMARK  9 active torsions:
REMARK  status: ('A' for Active; 'I' for Inactive)
REMARK    1  A    between atoms: C_1  and  C_2
REMARK    2  A    between atoms: C_3  and  C_29
REMARK    3  A    between atoms: C_4  and  C_20
REMARK    4  A    between atoms: C_10  and  C_15
REMARK    5  A    between atoms: C_23  and  O_28
REMARK    6  A    between atoms: C_24  and  O_26
REMARK    7  A    between atoms: O_26  and  C_27
REMARK    8  A    between atoms: C_29  and  O_31
REMARK    9  A    between atoms: O_31  and  C_32
REMARK                            x       y       z     vdW  Elec       q    Type
REMARK                         _______ _______ _______ _____ _____    ______ ____
ROOT
ATOM      1  C   UNL     1       5.566   7.070   3.851  0.00  0.00    +0.061 C 
ATOM      2  C   UNL     1       4.912   7.053   2.493  0.00  0.00    +0.016 C 
ATOM      3  C   UNL     1       5.527   7.636   1.449  0.00  0.00    +0.065 C 
ATOM      4  C   UNL     1       4.904   7.644   0.084  0.00  0.00    +0.092 C 
ATOM      5  C   UNL     1       3.820   6.602  -0.021  0.00  0.00    +0.024 C 
ATOM      6  C   UNL     1       3.268   6.066   1.088  0.00  0.00    +0.016 C 
ATOM      7  N   UNL     1       3.699   6.446   2.331  0.00  0.00    -0.321 N 
ATOM      8  C   UNL     1       2.166   5.041   0.991  0.00  0.00    +0.060 C 
ATOM      9  C   UNL     1       2.343   4.217  -0.287  0.00  0.00    +0.039 C 
ATOM     10  C   UNL     1       2.325   5.169  -1.487  0.00  0.00    +0.088 C 
ATOM     11  C   UNL     1       3.397   6.209  -1.303  0.00  0.00    +0.162 C 
ATOM     12  O   UNL     1       3.908   6.718  -2.281  0.00  0.00    -0.292 OA
ATOM     13  H   UNL     1       3.057   6.258   3.204  0.00  0.00    +0.152 HD
ENDROOT
BRANCH   4  14
ATOM     14  C   UNL     1       4.311   9.004  -0.179  0.00  0.00    -0.032 A 
ATOM     15  C   UNL     1       3.299   9.484   0.632  0.00  0.00    +0.008 A 
ATOM     16  C   UNL     1       2.751  10.731   0.395  0.00  0.00    +0.049 A 
ATOM     17  C   UNL     1       3.217  11.503  -0.657  0.00  0.00    +0.158 A 
ATOM     18  C   UNL     1       4.235  11.021  -1.473  0.00  0.00    +0.162 A 
ATOM     19  C   UNL     1       4.783   9.772  -1.227  0.00  0.00    +0.054 A 
BRANCH  18  20
ATOM     20  O   UNL     1       4.695  11.775  -2.507  0.00  0.00    -0.491 OA
ATOM     21  C   UNL     1       5.742  11.215  -3.303  0.00  0.00    +0.277 C 
ENDBRANCH  18  20
BRANCH  17  22
ATOM     22  O   UNL     1       2.679  12.730  -0.892  0.00  0.00    -0.503 OA
ATOM     23  H   UNL     1       3.050  13.342  -1.728  0.00  0.00    +0.292 HD
ENDBRANCH  17  22
ENDBRANCH   4  14
BRANCH   9  24
ATOM     24  C   UNL     1       1.215   3.225  -0.411  0.00  0.00    -0.006 A 
ATOM     25  C   UNL     1       1.271   1.873  -0.486  0.00  0.00    +0.011 A 
ATOM     26  C   UNL     1       0.093   1.159  -0.597  0.00  0.00    +0.008 A 
ATOM     27  C   UNL     1      -1.083   1.832  -0.633  0.00  0.00    +0.045 A 
ATOM     28  S   UNL     1      -0.543   3.528  -0.497  0.00  0.00    -0.101 S 
ENDBRANCH   9  24
BRANCH   3  29
ATOM     29  C   UNL     1       6.787   8.251   1.641  0.00  0.00    +0.338 C 
ATOM     30  O   UNL     1       7.254   8.345   2.760  0.00  0.00    -0.245 OA
BRANCH  29  31
ATOM     31  O   UNL     1       7.469   8.735   0.582  0.00  0.00    -0.458 OA
BRANCH  31  32
ATOM     32  C   UNL     1       8.734   9.344   0.849  0.00  0.00    +0.177 C 
ATOM     33  C   UNL     1       8.559  10.864   1.043  0.00  0.00    +0.044 C 
ATOM     34  C   UNL     1       9.819  11.479   0.386  0.00  0.00    +0.004 C 
ATOM     35  C   UNL     1      10.034  10.575  -0.853  0.00  0.00    +0.004 C 
ATOM     36  C   UNL     1       9.673   9.160  -0.356  0.00  0.00    +0.044 C 
ENDBRANCH  31  32
ENDBRANCH  29  31
ENDBRANCH   3  29
TORSDOF 7
