REMARK  Name = ZINC18374317
REMARK  8 active torsions:
REMARK  status: ('A' for Active; 'I' for Inactive)
REMARK    1  A    between atoms: C_1  and  C_2
REMARK    2  A    between atoms: C_2  and  C_4
REMARK    3  A    between atoms: C_2  and  O_16
REMARK    4  A    between atoms: C_4  and  C_6
REMARK    5  A    between atoms: O_16  and  C_17
REMARK    6  A    between atoms: C_17  and  C_19
REMARK    7  A    between atoms: C_22  and  O_38
REMARK    8  A    between atoms: C_26  and  C_28
REMARK                            x       y       z     vdW  Elec       q    Type
REMARK                         _______ _______ _______ _____ _____    ______ ____
ROOT
ATOM      1  C   UNL     1       0.490  -1.097  -3.480  0.00  0.00    +0.187 C 
ATOM      2  C   UNL     1       1.448   0.035  -3.911  0.00  0.00    +0.066 C 
ATOM      3  C   UNL     1       1.246   0.095  -5.448  0.00  0.00    +0.134 C 
ATOM      4  C   UNL     1      -0.265  -0.223  -5.575  0.00  0.00    +0.140 C 
ATOM      5  N   UNL     1      -0.529  -1.234  -4.530  0.00  0.00    -0.285 N 
ATOM      6  C   UNL     1      -1.535  -2.131  -4.537  0.00  0.00    +0.223 C 
ATOM      7  O   UNL     1      -1.607  -2.967  -3.662  0.00  0.00    -0.275 OA
ENDROOT
BRANCH   6   8
ATOM      8  C   UNL     1      -2.570  -2.095  -5.632  0.00  0.00    +0.048 C 
ATOM      9  C   UNL     1      -1.934  -2.542  -6.950  0.00  0.00    +0.019 C 
ATOM     10  C   UNL     1      -2.985  -2.505  -8.061  0.00  0.00    -0.009 C 
ATOM     11  C   UNL     1      -4.137  -3.447  -7.705  0.00  0.00    +0.007 C 
ATOM     12  C   UNL     1      -4.772  -3.000  -6.387  0.00  0.00    -0.009 C 
ATOM     13  C   UNL     1      -3.722  -3.037  -5.276  0.00  0.00    +0.019 C 
ATOM     14  C   UNL     1      -5.307  -1.575  -6.537  0.00  0.00    +0.007 C 
ATOM     15  C   UNL     1      -4.155  -0.633  -6.893  0.00  0.00    -0.009 C 
ATOM     16  C   UNL     1      -3.519  -1.080  -8.210  0.00  0.00    +0.007 C 
ATOM     17  C   UNL     1      -3.104  -0.669  -5.781  0.00  0.00    +0.019 C 
ENDBRANCH   6   8
BRANCH   1  18
ATOM     18  C   UNL     1      -0.167  -0.742  -2.171  0.00  0.00    +0.329 C 
ATOM     19  O   UNL     1      -1.367  -0.619  -2.111  0.00  0.00    -0.249 OA
BRANCH  18  20
ATOM     20  O   UNL     1       0.582  -0.561  -1.072  0.00  0.00    -0.452 OA
BRANCH  20  22
ATOM     21  C   UNL     1      -0.226   1.295   0.248  0.00  0.00    +0.061 C 
ATOM     22  C   UNL     1      -0.107  -0.226   0.135  0.00  0.00    +0.244 C 
BRANCH  22  23
ATOM     23  C   UNL     1       0.660  -0.760   1.316  0.00  0.00    +0.205 C 
ATOM     24  O   UNL     1       1.837  -1.036   1.202  0.00  0.00    -0.288 OA
BRANCH  23  25
ATOM     25  C   UNL     1       0.009  -0.940   2.562  0.00  0.00    +0.046 A 
ATOM     26  C   UNL     1      -1.315  -0.680   2.849  0.00  0.00    +0.095 A 
ATOM     27  N   UNL     1      -1.564  -0.976   4.139  0.00  0.00    -0.360 N 
ATOM     28  H   UNL     1      -2.427  -0.875   4.571  0.00  0.00    +0.165 HD
ATOM     29  C   UNL     1      -0.424  -1.443   4.762  0.00  0.00    +0.047 A 
ATOM     30  C   UNL     1       0.608  -1.449   3.811  0.00  0.00    +0.010 A 
ATOM     31  C   UNL     1       1.883  -1.882   4.165  0.00  0.00    +0.011 A 
ATOM     32  C   UNL     1       2.125  -2.308   5.453  0.00  0.00    +0.001 A 
ATOM     33  C   UNL     1       1.106  -2.306   6.394  0.00  0.00    +0.002 A 
ATOM     34  C   UNL     1      -0.159  -1.873   6.058  0.00  0.00    +0.026 A 
ENDBRANCH  23  25
ENDBRANCH  22  23
ENDBRANCH  20  22
ENDBRANCH  18  20
ENDBRANCH   1  18
BRANCH   3  35
ATOM     35  O   UNL     1       1.540   1.399  -5.953  0.00  0.00    -0.390 OA
ATOM     36  H   UNL     1       1.428   1.485  -6.909  0.00  0.00    +0.210 HD
ENDBRANCH   3  35
TORSDOF 7
