REMARK  Name = ZINC44945823
REMARK  9 active torsions:
REMARK  status: ('A' for Active; 'I' for Inactive)
REMARK    1  A    between atoms: C_1  and  C_2
REMARK    2  A    between atoms: C_3  and  C_33
REMARK    3  A    between atoms: N_5  and  C_8
REMARK    4  A    between atoms: C_6  and  C_7
REMARK    5  A    between atoms: C_11  and  C_14
REMARK    6  A    between atoms: N_16  and  C_17
REMARK    7  A    between atoms: C_17  and  C_19
REMARK    8  A    between atoms: C_17  and  C_30
REMARK    9  A    between atoms: C_19  and  C_20
REMARK                            x       y       z     vdW  Elec       q    Type
REMARK                         _______ _______ _______ _____ _____    ______ ____
ROOT
ATOM      1  C   UNL     1       0.127  -6.743   3.856  0.00  0.00    +0.245 C 
ATOM      2  O   UNL     1       0.803  -6.771   4.865  0.00  0.00    -0.270 OA
ATOM      3  N   UNL     1      -0.602  -7.820   3.502  0.00  0.00    -0.300 N 
ATOM      4  H   UNL     1      -1.142  -7.798   2.697  0.00  0.00    +0.150 HD
ENDROOT
BRANCH   1   8
ATOM      5  C   UNL     1       0.058  -3.248   1.442  0.00  0.00    +0.066 A 
ATOM      6  C   UNL     1       0.832  -3.279   2.597  0.00  0.00    +0.028 A 
ATOM      7  C   UNL     1       0.857  -4.410   3.382  0.00  0.00    +0.015 A 
ATOM      8  C   UNL     1       0.102  -5.528   3.017  0.00  0.00    +0.037 A 
ATOM      9  C   UNL     1      -0.674  -5.494   1.856  0.00  0.00    +0.015 A 
ATOM     10  C   UNL     1      -0.698  -4.357   1.079  0.00  0.00    +0.028 A 
BRANCH   5  15
ATOM     11  C   UNL     1       1.510   0.777  -1.058  0.00  0.00    +0.047 C 
ATOM     12  C   UNL     1       0.664  -0.318  -0.460  0.00  0.00    -0.007 A 
ATOM     13  C   UNL     1      -0.719  -0.467  -0.614  0.00  0.00    +0.064 A 
ATOM     14  N   UNL     1      -1.096  -1.530   0.048  0.00  0.00    -0.171 NA
ATOM     15  N   UNL     1       0.036  -2.098   0.647  0.00  0.00    -0.236 N 
ATOM     16  C   UNL     1       1.109  -1.335   0.314  0.00  0.00    +0.045 A 
ATOM     17  C   UNL     1       2.537  -1.575   0.733  0.00  0.00    +0.066 C 
ATOM     18  C   UNL     1      -1.621   0.444  -1.407  0.00  0.00    +0.068 C 
ENDBRANCH   5  15
ENDBRANCH   1   8
BRANCH   3  19
ATOM     19  C   UNL     1      -0.578  -9.026   4.335  0.00  0.00    +0.163 C 
BRANCH  19  20
ATOM     20  C   UNL     1       0.604  -9.878   3.950  0.00  0.00    +0.231 C 
ATOM     21  O   UNL     1       1.353  -9.515   3.068  0.00  0.00    -0.274 OA
ATOM     22  N   UNL     1       0.829 -11.045   4.587  0.00  0.00    -0.328 N 
ATOM     23  H   UNL     1       0.230 -11.335   5.292  0.00  0.00    +0.145 HD
ATOM     24  H   UNL     1       1.590 -11.593   4.339  0.00  0.00    +0.145 HD
ENDBRANCH  19  20
BRANCH  19  25
ATOM     25  C   UNL     1      -1.869  -9.818   4.122  0.00  0.00    +0.069 C 
BRANCH  25  26
ATOM     26  C   UNL     1      -3.041  -9.013   4.620  0.00  0.00    -0.020 A 
ATOM     27  C   UNL     1      -3.606  -9.093   5.835  0.00  0.00    +0.087 A 
ATOM     28  N   UNL     1      -4.646  -8.208   5.926  0.00  0.00    -0.360 N 
ATOM     29  H   UNL     1      -5.206  -8.085   6.708  0.00  0.00    +0.165 HD
ATOM     30  C   UNL     1      -4.779  -7.520   4.741  0.00  0.00    +0.047 A 
ATOM     31  C   UNL     1      -3.776  -7.989   3.873  0.00  0.00    +0.003 A 
ATOM     32  C   UNL     1      -3.664  -7.459   2.587  0.00  0.00    +0.010 A 
ATOM     33  C   UNL     1      -4.529  -6.484   2.177  0.00  0.00    +0.001 A 
ATOM     34  C   UNL     1      -5.518  -6.015   3.030  0.00  0.00    +0.002 A 
ATOM     35  C   UNL     1      -5.652  -6.530   4.301  0.00  0.00    +0.026 A 
ENDBRANCH  25  26
ENDBRANCH  19  25
ENDBRANCH   3  19
TORSDOF 6
