REMARK  Name = ZINC11244739
REMARK  10 active torsions:
REMARK  status: ('A' for Active; 'I' for Inactive)
REMARK    1  A    between atoms: C_1  and  C_2
REMARK    2  A    between atoms: C_2  and  C_4
REMARK    3  A    between atoms: C_2  and  N_11
REMARK    4  A    between atoms: C_12  and  C_14
REMARK    5  A    between atoms: C_14  and  C_16
REMARK    6  A    between atoms: C_14  and  O_17
REMARK    7  A    between atoms: O_17  and  C_18
REMARK    8  A    between atoms: C_18  and  C_20
REMARK    9  A    between atoms: N_23  and  S_26
REMARK   10  A    between atoms: S_26  and  C_29
REMARK                            x       y       z     vdW  Elec       q    Type
REMARK                         _______ _______ _______ _____ _____    ______ ____
ROOT
ATOM      1  C   UNL     1      -0.018   1.503   0.010  0.00  0.00    +0.311 C 
ATOM      2  O   UNL     1      -1.073   2.093   0.018  0.00  0.00    -0.251 OA
ENDROOT
BRANCH   1   3
ATOM      3  C   UNL     1       0.002  -0.004   0.002  0.00  0.00    +0.100 C 
ATOM      4  C   UNL     1       0.720  -0.497  -1.256  0.00  0.00    +0.032 C 
ATOM      5  C   UNL     1       0.769  -2.028  -1.244  0.00  0.00    +0.110 C 
ATOM      6  N   UNL     1      -0.598  -2.544  -1.088  0.00  0.00    -0.177 NA
ATOM      7  C   UNL     1      -1.409  -2.065   0.039  0.00  0.00    +0.110 C 
ATOM      8  C   UNL     1      -1.434  -0.533   0.013  0.00  0.00    +0.032 C 
BRANCH   6   9
ATOM      9  S   UNL     1      -1.212  -3.646  -2.161  0.00  0.00    +0.061 S 
ATOM     10  O   UNL     1      -0.098  -4.309  -2.744  0.00  0.00    -0.153 OA
ATOM     11  O   UNL     1      -2.244  -4.345  -1.480  0.00  0.00    -0.153 OA
BRANCH   9  12
ATOM     12  C   UNL     1      -1.989  -2.735  -3.454  0.00  0.00    +0.106 A 
ATOM     13  C   UNL     1      -3.327  -2.401  -3.355  0.00  0.00    +0.031 A 
ATOM     14  C   UNL     1      -3.937  -1.683  -4.367  0.00  0.00    +0.040 A 
ATOM     15  C   UNL     1      -3.210  -1.307  -5.484  0.00  0.00    +0.124 A 
ATOM     16  C   UNL     1      -1.871  -1.647  -5.584  0.00  0.00    +0.040 A 
ATOM     17  C   UNL     1      -1.262  -2.361  -4.569  0.00  0.00    +0.031 A 
ATOM     18  F   UNL     1      -3.806  -0.609  -6.475  0.00  0.00    -0.205 F 
ENDBRANCH   9  12
ENDBRANCH   6   9
ENDBRANCH   1   3
BRANCH   1  19
ATOM     19  O   UNL     1       1.135   2.190   0.003  0.00  0.00    -0.452 OA
BRANCH  19  20
ATOM     20  C   UNL     1       1.039   3.639   0.012  0.00  0.00    +0.258 C 
ATOM     21  C   UNL     1       1.019   4.140   1.457  0.00  0.00    +0.062 C 
BRANCH  20  23
ATOM     22  N   UNL     1       2.351   5.561  -0.824  0.00  0.00    -0.306 N 
ATOM     23  C   UNL     1       2.227   4.225  -0.707  0.00  0.00    +0.254 C 
ATOM     24  O   UNL     1       3.071   3.493  -1.180  0.00  0.00    -0.272 OA
ATOM     25  H   UNL     1       1.676   6.146  -0.446  0.00  0.00    +0.149 HD
BRANCH  22  27
ATOM     26  C   UNL     1       3.223   6.173  -3.026  0.00  0.00    +0.033 C 
ATOM     27  C   UNL     1       3.506   6.131  -1.523  0.00  0.00    +0.100 C 
BRANCH  27  28
ATOM     28  C   UNL     1       3.758   7.529  -1.020  0.00  0.00    -0.027 A 
ATOM     29  C   UNL     1       2.693   8.374  -0.766  0.00  0.00    +0.008 A 
ATOM     30  C   UNL     1       2.923   9.655  -0.301  0.00  0.00    +0.038 A 
ATOM     31  C   UNL     1       4.220  10.095  -0.098  0.00  0.00    +0.123 A 
ATOM     32  C   UNL     1       5.285   9.250  -0.357  0.00  0.00    +0.038 A 
ATOM     33  C   UNL     1       5.053   7.968  -0.818  0.00  0.00    +0.008 A 
ATOM     34  F   UNL     1       4.445  11.349   0.353  0.00  0.00    -0.205 F 
ENDBRANCH  27  28
ENDBRANCH  22  27
ENDBRANCH  20  23
ENDBRANCH  19  20
ENDBRANCH   1  19
TORSDOF 8
