REMARK  Name = ZINC39836265
REMARK  9 active torsions:
REMARK  status: ('A' for Active; 'I' for Inactive)
REMARK    1  A    between atoms: C_1  and  C_2
REMARK    2  A    between atoms: C_2  and  C_3
REMARK    3  A    between atoms: C_3  and  O_4
REMARK    4  A    between atoms: O_4  and  C_5
REMARK    5  A    between atoms: C_8  and  C_11
REMARK    6  A    between atoms: N_13  and  C_14
REMARK    7  A    between atoms: C_15  and  C_25
REMARK    8  A    between atoms: C_20  and  C_24
REMARK    9  A    between atoms: N_27  and  C_28
REMARK                            x       y       z     vdW  Elec       q    Type
REMARK                         _______ _______ _______ _____ _____    ______ ____
ROOT
ATOM      1  C   UNL     1       3.889  -6.372  -6.776  0.00  0.00    +0.085 A 
ATOM      2  C   UNL     1       4.028  -7.731  -7.018  0.00  0.00    +0.069 A 
ATOM      3  C   UNL     1       4.721  -8.121  -8.233  0.00  0.00    -0.023 A 
ATOM      4  C   UNL     1       5.149  -7.083  -8.983  0.00  0.00    -0.004 A 
ATOM      5  S   UNL     1       4.632  -5.644  -8.094  0.00  0.00    -0.077 S 
ATOM      6  C   UNL     1       5.891  -7.157 -10.282  0.00  0.00    +0.046 C 
ATOM      7  C   UNL     1       6.427  -8.586 -10.450  0.00  0.00    -0.009 C 
ATOM      8  C   UNL     1       5.297  -9.577 -10.156  0.00  0.00    +0.008 C 
ATOM      9  C   UNL     1       4.965  -9.560  -8.663  0.00  0.00    +0.037 C 
ATOM     10  C   UNL     1       6.924  -8.782 -11.884  0.00  0.00    +0.008 C 
ENDROOT
BRANCH   1  13
ATOM     11  C   UNL     1       3.226  -4.413  -5.626  0.00  0.00    +0.249 C 
ATOM     12  O   UNL     1       3.723  -3.739  -6.508  0.00  0.00    -0.270 OA
ATOM     13  N   UNL     1       3.275  -5.758  -5.698  0.00  0.00    -0.275 N 
ATOM     14  H   UNL     1       2.878  -6.295  -4.994  0.00  0.00    +0.156 HD
BRANCH  11  18
ATOM     15  C   UNL     1       1.341  -2.529  -2.321  0.00  0.00    +0.121 A 
ATOM     16  C   UNL     1       1.908  -1.756  -3.328  0.00  0.00    +0.046 A 
ATOM     17  C   UNL     1       2.520  -2.363  -4.401  0.00  0.00    +0.016 A 
ATOM     18  C   UNL     1       2.571  -3.758  -4.477  0.00  0.00    +0.037 A 
ATOM     19  C   UNL     1       2.000  -4.531  -3.463  0.00  0.00    +0.016 A 
ATOM     20  C   UNL     1       1.394  -3.916  -2.390  0.00  0.00    +0.046 A 
BRANCH  15  21
ATOM     21  O   UNL     1       0.738  -1.926  -1.265  0.00  0.00    -0.492 OA
BRANCH  21  22
ATOM     22  C   UNL     1       0.718  -0.497  -1.257  0.00  0.00    +0.229 C 
BRANCH  22  24
ATOM     23  C   UNL     1      -0.019   1.526   0.010  0.00  0.00    +0.007 C 
ATOM     24  C   UNL     1       0.002  -0.004   0.002  0.00  0.00    +0.038 C 
ENDBRANCH  22  24
ENDBRANCH  21  22
ENDBRANCH  15  21
ENDBRANCH  11  18
ENDBRANCH   1  13
BRANCH   2  25
ATOM     25  C   UNL     1       3.497  -8.730  -6.086  0.00  0.00    +0.247 C 
ATOM     26  O   UNL     1       2.361  -9.146  -6.222  0.00  0.00    -0.270 OA
ATOM     27  N   UNL     1       4.267  -9.189  -5.080  0.00  0.00    -0.307 N 
ATOM     28  H   UNL     1       5.173  -8.858  -4.972  0.00  0.00    +0.149 HD
BRANCH  27  29
ATOM     29  C   UNL     1       3.737 -10.188  -4.149  0.00  0.00    +0.096 C 
ATOM     30  C   UNL     1       3.942 -11.594  -4.737  0.00  0.00    +0.046 C 
ATOM     31  C   UNL     1       3.666 -12.634  -3.614  0.00  0.00    +0.168 C 
ATOM     32  S   UNL     1       4.473 -11.804  -2.180  0.00  0.00    -0.029 S 
ATOM     33  O   UNL     1       5.815 -12.260  -2.077  0.00  0.00    -0.174 OA
ATOM     34  O   UNL     1       3.615 -11.895  -1.051  0.00  0.00    -0.174 OA
ATOM     35  C   UNL     1       4.476 -10.071  -2.794  0.00  0.00    +0.188 C 
ENDBRANCH  27  29
ENDBRANCH   2  25
TORSDOF 7
