REMARK  Name = ZINC10022928
REMARK  8 active torsions:
REMARK  status: ('A' for Active; 'I' for Inactive)
REMARK    1  A    between atoms: C_1  and  C_2
REMARK    2  A    between atoms: C_12  and  C_14
REMARK    3  A    between atoms: C_14  and  C_16
REMARK    4  A    between atoms: C_14  and  N_17
REMARK    5  A    between atoms: N_17  and  S_18
REMARK    6  A    between atoms: S_18  and  C_21
REMARK    7  A    between atoms: C_24  and  N_27
REMARK    8  A    between atoms: C_28  and  C_30
REMARK                            x       y       z     vdW  Elec       q    Type
REMARK                         _______ _______ _______ _____ _____    ______ ____
ROOT
ATOM      1  C   UNL     1      -3.404   3.179   7.000  0.00  0.00    +0.159 C 
ATOM      2  C   UNL     1      -4.034   1.923   7.605  0.00  0.00    +0.035 C 
ENDROOT
BRANCH   1  13
ATOM      3  C   UNL     1       0.926   0.163  -1.520  0.00  0.00    +0.008 C 
ATOM      4  C   UNL     1      -0.035   0.509  -0.380  0.00  0.00    -0.009 C 
ATOM      5  C   UNL     1      -0.334   2.010  -0.398  0.00  0.00    +0.010 C 
ATOM      6  C   UNL     1      -1.474   2.331   0.570  0.00  0.00    +0.056 C 
ATOM      7  C   UNL     1      -1.134   1.751   1.938  0.00  0.00    +0.054 A 
ATOM      8  C   UNL     1      -0.191   0.779   2.054  0.00  0.00    +0.015 A 
ATOM      9  S   UNL     1      -0.171   0.460   3.797  0.00  0.00    -0.057 S 
ATOM     10  C   UNL     1      -1.391   1.617   4.239  0.00  0.00    +0.165 A 
ATOM     11  N   UNL     1      -1.712   2.141   3.071  0.00  0.00    -0.229 NA
ATOM     12  N   UNL     1      -1.899   1.915   5.498  0.00  0.00    -0.263 N 
ATOM     13  C   UNL     1      -2.854   2.856   5.634  0.00  0.00    +0.237 C 
ATOM     14  O   UNL     1      -3.270   3.444   4.658  0.00  0.00    -0.274 OA
ATOM     15  C   UNL     1       0.613   0.151   0.967  0.00  0.00    +0.047 C 
ATOM     16  H   UNL     1      -1.566   1.445   6.278  0.00  0.00    +0.157 HD
ENDBRANCH   1  13
BRANCH   1  17
ATOM     17  N   UNL     1      -4.421   4.227   6.881  0.00  0.00    -0.178 NA
ATOM     18  H   UNL     1      -5.000   4.255   6.104  0.00  0.00    +0.149 HD
BRANCH  17  19
ATOM     19  S   UNL     1      -4.582   5.363   8.075  0.00  0.00    +0.059 S 
ATOM     20  O   UNL     1      -5.619   6.243   7.661  0.00  0.00    -0.153 OA
ATOM     21  O   UNL     1      -4.630   4.655   9.306  0.00  0.00    -0.153 OA
BRANCH  19  22
ATOM     22  C   UNL     1      -3.096   6.310   8.097  0.00  0.00    +0.105 A 
ATOM     23  C   UNL     1      -2.041   5.920   8.901  0.00  0.00    +0.030 A 
ATOM     24  C   UNL     1      -0.874   6.658   8.916  0.00  0.00    +0.025 A 
ATOM     25  C   UNL     1      -0.764   7.798   8.131  0.00  0.00    +0.033 A 
ATOM     26  C   UNL     1      -1.827   8.190   7.328  0.00  0.00    +0.025 A 
ATOM     27  C   UNL     1      -2.990   7.445   7.314  0.00  0.00    +0.030 A 
BRANCH  25  28
ATOM     28  N   UNL     1       0.416   8.550   8.148  0.00  0.00    -0.286 N 
ATOM     29  C   UNL     1       0.365   9.887   7.992  0.00  0.00    +0.214 C 
ATOM     30  O   UNL     1      -0.707  10.451   7.933  0.00  0.00    -0.276 OA
ATOM     31  C   UNL     1       1.641  10.684   7.891  0.00  0.00    +0.109 C 
ATOM     32  H   UNL     1       1.271   8.108   8.271  0.00  0.00    +0.155 HD
ENDBRANCH  25  28
ENDBRANCH  19  22
ENDBRANCH  17  19
ENDBRANCH   1  17
TORSDOF 5
