REMARK  Name = ZINC12925295
REMARK  11 active torsions:
REMARK  status: ('A' for Active; 'I' for Inactive)
REMARK    1  A    between atoms: C_1  and  C_2
REMARK    2  A    between atoms: C_2  and  C_3
REMARK    3  A    between atoms: C_2  and  O_4
REMARK    4  A    between atoms: O_4  and  C_5
REMARK    5  A    between atoms: C_5  and  C_7
REMARK    6  A    between atoms: C_7  and  S_8
REMARK    7  A    between atoms: S_8  and  C_9
REMARK    8  A    between atoms: C_10  and  C_30
REMARK    9  A    between atoms: C_11  and  C_23
REMARK   10  A    between atoms: C_17  and  C_21
REMARK   11  A    between atoms: C_17  and  C_22
REMARK                            x       y       z     vdW  Elec       q    Type
REMARK                         _______ _______ _______ _____ _____    ______ ____
ROOT
ATOM      1  C   UNL     1      -5.484  -2.002  -2.895  0.00  0.00    +0.080 C 
ATOM      2  C   UNL     1      -6.177  -2.254  -4.038  0.00  0.00    +0.069 C 
ATOM      3  C   UNL     1      -7.581  -2.780  -3.991  0.00  0.00    +0.097 C 
ATOM      4  C   UNL     1      -8.200  -2.563  -2.634  0.00  0.00    +0.024 C 
ATOM      5  C   UNL     1      -7.431  -2.306  -1.554  0.00  0.00    +0.016 C 
ATOM      6  N   UNL     1      -6.068  -2.228  -1.670  0.00  0.00    -0.311 N 
ATOM      7  C   UNL     1      -8.047  -2.107  -0.191  0.00  0.00    +0.058 C 
ATOM      8  C   UNL     1      -9.438  -1.488  -0.341  0.00  0.00    -0.023 C 
ATOM      9  C   UNL     1     -10.293  -2.418  -1.209  0.00  0.00    +0.086 C 
ATOM     10  C   UNL     1      -9.600  -2.634  -2.526  0.00  0.00    +0.162 C 
ATOM     11  O   UNL     1     -10.262  -2.873  -3.516  0.00  0.00    -0.292 OA
ATOM     12  C   UNL     1      -9.321  -0.119  -1.016  0.00  0.00    +0.011 C 
ATOM     13  C   UNL     1     -10.084  -1.333   1.037  0.00  0.00    +0.011 C 
ATOM     14  H   UNL     1      -5.510  -2.330  -0.883  0.00  0.00    +0.152 HD
ENDROOT
BRANCH   3  15
ATOM     15  C   UNL     1      -7.566  -4.256  -4.295  0.00  0.00    -0.035 A 
ATOM     16  C   UNL     1      -6.857  -5.122  -3.482  0.00  0.00    +0.006 A 
ATOM     17  C   UNL     1      -6.842  -6.475  -3.760  0.00  0.00    +0.020 A 
ATOM     18  C   UNL     1      -7.537  -6.965  -4.852  0.00  0.00    +0.041 A 
ATOM     19  C   UNL     1      -8.246  -6.098  -5.665  0.00  0.00    +0.020 A 
ATOM     20  C   UNL     1      -8.264  -4.746  -5.383  0.00  0.00    +0.006 A 
ATOM     21 CL   UNL     1      -7.518  -8.665  -5.202  0.00  0.00    -0.084 Cl
ENDBRANCH   3  15
BRANCH   2  22
ATOM     22  C   UNL     1      -5.557  -2.011  -5.306  0.00  0.00    +0.098 C 
ATOM     23  N   UNL     1      -5.065  -1.819  -6.311  0.00  0.00    -0.191 NA
ENDBRANCH   2  22
BRANCH   1  24
ATOM     24  S   UNL     1      -3.833  -1.392  -2.983  0.00  0.00    -0.098 S 
BRANCH  24  25
ATOM     25  C   UNL     1      -3.334  -1.224  -1.248  0.00  0.00    +0.196 C 
BRANCH  25  26
ATOM     26  C   UNL     1      -1.922  -0.703  -1.179  0.00  0.00    +0.318 C 
ATOM     27  O   UNL     1      -1.314  -0.470  -2.197  0.00  0.00    -0.250 OA
BRANCH  26  28
ATOM     28  O   UNL     1      -1.339  -0.499   0.012  0.00  0.00    -0.461 OA
BRANCH  28  30
ATOM     29  C   UNL     1      -0.019   1.526   0.010  0.00  0.00    +0.052 C 
ATOM     30  C   UNL     1       0.002  -0.004   0.002  0.00  0.00    +0.170 C 
ATOM     31  C   UNL     1       0.742  -0.511   1.242  0.00  0.00    +0.052 C 
ENDBRANCH  28  30
ENDBRANCH  26  28
ENDBRANCH  25  26
ENDBRANCH  24  25
ENDBRANCH   1  24
TORSDOF 7
