REMARK  Name = ZINC07098942
REMARK  2 active torsions:
REMARK  status: ('A' for Active; 'I' for Inactive)
REMARK    1  A    between atoms: C_12  and  C_21
REMARK    2  A    between atoms: C_26  and  N_27
REMARK                            x       y       z     vdW  Elec       q    Type
REMARK                         _______ _______ _______ _____ _____    ______ ____
ROOT
ATOM      1  C   UNL     1       0.193   1.056   0.014  0.00  0.00    +0.001 A 
ATOM      2  C   UNL     1      -0.126   2.410  -0.072  0.00  0.00    +0.001 A 
ATOM      3  C   UNL     1       0.844   3.364  -0.006  0.00  0.00    +0.010 A 
ATOM      4  C   UNL     1       2.185   2.980   0.157  0.00  0.00    +0.003 A 
ATOM      5  C   UNL     1       2.508   1.607   0.256  0.00  0.00    -0.016 A 
ATOM      6  C   UNL     1       1.481   0.649   0.181  0.00  0.00    +0.008 A 
ATOM      7  C   UNL     1       3.848   1.221   0.429  0.00  0.00    +0.009 A 
ATOM      8  C   UNL     1       4.816   2.173   0.502  0.00  0.00    +0.006 A 
ATOM      9  C   UNL     1       4.516   3.527   0.405  0.00  0.00    -0.019 A 
ATOM     10  C   UNL     1       3.211   3.959   0.219  0.00  0.00    +0.039 A 
ATOM     11  N   UNL     1       2.839   5.288   0.064  0.00  0.00    -0.336 N 
ATOM     12  C   UNL     1       3.900   6.298   0.205  0.00  0.00    +0.107 C 
ATOM     13  C   UNL     1       5.146   5.728  -0.442  0.00  0.00    +0.029 C 
ATOM     14  C   UNL     1       5.573   4.559   0.500  0.00  0.00    +0.049 C 
ATOM     15  C   UNL     1       6.978   4.302   0.101  0.00  0.00    -0.023 C 
ATOM     16  C   UNL     1       7.498   5.432  -0.364  0.00  0.00    -0.030 C 
ATOM     17  C   UNL     1       6.442   6.540  -0.343  0.00  0.00    +0.033 C 
ATOM     18  H   UNL     1       2.324   5.422  -0.794  0.00  0.00    +0.147 HD
ENDROOT
BRANCH  12  19
ATOM     19  C   UNL     1       3.496   7.571  -0.493  0.00  0.00    +0.003 A 
ATOM     20  C   UNL     1       4.037   7.886  -1.726  0.00  0.00    +0.008 A 
ATOM     21  C   UNL     1       3.663   9.051  -2.368  0.00  0.00    +0.000 A 
ATOM     22  C   UNL     1       2.756   9.908  -1.773  0.00  0.00    +0.002 A 
ATOM     23  C   UNL     1       2.219   9.596  -0.538  0.00  0.00    +0.033 A 
ATOM     24  C   UNL     1       2.589   8.428   0.102  0.00  0.00    +0.131 A 
BRANCH  24  25
ATOM     25  N   UNL     1       2.015   8.095   1.425  0.00  0.00    +0.057 N 
ATOM     26  O   UNL     1       1.301   8.898   1.999  0.00  0.00    -0.126 OA
ATOM     27  O   UNL     1       2.255   7.017   1.940  0.00  0.00    -0.126 OA
ENDBRANCH  24  25
ENDBRANCH  12  19
TORSDOF 2
