REMARK  Name = ZINC11095408
REMARK  13 active torsions:
REMARK  status: ('A' for Active; 'I' for Inactive)
REMARK    1  A    between atoms: C_1  and  C_2
REMARK    2  A    between atoms: C_2  and  C_3
REMARK    3  A    between atoms: C_3  and  C_5
REMARK    4  A    between atoms: C_3  and  N_6
REMARK    5  A    between atoms: N_6  and  S_7
REMARK    6  A    between atoms: S_7  and  C_10
REMARK    7  A    between atoms: C_13  and  N_16
REMARK    8  A    between atoms: C_17  and  C_19
REMARK    9  A    between atoms: C_25  and  C_27
REMARK   10  A    between atoms: N_32  and  C_34
REMARK   11  A    between atoms: C_34  and  C_35
REMARK   12  A    between atoms: C_34  and  C_36
REMARK   13  A    between atoms: C_34  and  C_37
REMARK                            x       y       z     vdW  Elec       q    Type
REMARK                         _______ _______ _______ _____ _____    ______ ____
ROOT
ATOM      1  N   UNL     1       1.979  -5.809   7.128  0.00  0.00    -0.285 N 
ATOM      2  C   UNL     1       2.093  -5.572   5.807  0.00  0.00    +0.220 C 
ATOM      3  O   UNL     1       1.639  -6.363   5.007  0.00  0.00    -0.275 OA
ATOM      4  H   UNL     1       2.400  -5.212   7.766  0.00  0.00    +0.155 HD
ENDROOT
BRANCH   2   5
ATOM      5  C   UNL     1       2.785  -4.323   5.322  0.00  0.00    +0.078 C 
ATOM      6  C   UNL     1       2.777  -4.298   3.792  0.00  0.00    +0.032 C 
ATOM      7  C   UNL     1       3.511  -3.045   3.303  0.00  0.00    +0.108 C 
ATOM      8  N   UNL     1       2.901  -1.865   3.929  0.00  0.00    -0.301 N 
ATOM      9  C   UNL     1       2.781  -1.824   5.393  0.00  0.00    +0.108 C 
ATOM     10  C   UNL     1       2.050  -3.093   5.858  0.00  0.00    +0.032 C 
ATOM     11  C   UNL     1       2.465  -0.836   3.175  0.00  0.00    +0.221 C 
ATOM     12  O   UNL     1       2.574  -0.879   1.968  0.00  0.00    -0.275 OA
BRANCH  11  13
ATOM     13  C   UNL     1       1.841   0.368   3.833  0.00  0.00    +0.101 C 
ATOM     14  C   UNL     1       0.484   0.005   4.479  0.00  0.00    +0.110 C 
ATOM     15  C   UNL     1      -0.537   0.332   3.411  0.00  0.00    +0.217 C 
ATOM     16  O   UNL     1      -1.686  -0.057   3.406  0.00  0.00    -0.276 OA
ATOM     17  N   UNL     1       0.016   1.113   2.467  0.00  0.00    -0.296 N 
ATOM     18  C   UNL     1       1.417   1.416   2.779  0.00  0.00    +0.121 C 
BRANCH  17  19
ATOM     19  C   UNL     1      -0.692   1.605   1.283  0.00  0.00    +0.029 C 
ATOM     20  C   UNL     1       0.018   1.109   0.022  0.00  0.00    +0.031 C 
ATOM     21  C   UNL     1      -0.703   3.135   1.293  0.00  0.00    +0.031 C 
ATOM     22  C   UNL     1      -2.131   1.085   1.296  0.00  0.00    +0.031 C 
ENDBRANCH  17  19
ENDBRANCH  11  13
ENDBRANCH   2   5
BRANCH   1  26
ATOM     23  C   UNL     1      -0.181  -9.107   8.474  0.00  0.00    +0.105 A 
ATOM     24  C   UNL     1       0.551  -9.193   7.304  0.00  0.00    +0.030 A 
ATOM     25  C   UNL     1       1.268  -8.101   6.855  0.00  0.00    +0.025 A 
ATOM     26  C   UNL     1       1.254  -6.917   7.580  0.00  0.00    +0.034 A 
ATOM     27  C   UNL     1       0.522  -6.836   8.758  0.00  0.00    +0.025 A 
ATOM     28  C   UNL     1      -0.197  -7.929   9.199  0.00  0.00    +0.030 A 
BRANCH  23  29
ATOM     29  S   UNL     1      -1.094 -10.502   9.044  0.00  0.00    +0.059 S 
ATOM     30  O   UNL     1      -2.132  -9.998   9.872  0.00  0.00    -0.153 OA
ATOM     31  O   UNL     1      -1.353 -11.311   7.904  0.00  0.00    -0.153 OA
BRANCH  29  32
ATOM     32  N   UNL     1      -0.088 -11.378  10.026  0.00  0.00    -0.187 NA
ATOM     33  H   UNL     1       0.185 -12.272   9.767  0.00  0.00    +0.148 HD
BRANCH  32  34
ATOM     34  C   UNL     1       0.389 -10.803  11.286  0.00  0.00    +0.073 C 
ATOM     35  C   UNL     1       1.760 -10.162  11.067  0.00  0.00    +0.025 C 
BRANCH  34  37
ATOM     36  C   UNL     1      -0.887 -12.463  12.649  0.00  0.00    +0.005 C 
ATOM     37  C   UNL     1       0.504 -11.906  12.339  0.00  0.00    +0.017 C 
ENDBRANCH  34  37
ENDBRANCH  32  34
ENDBRANCH  29  32
ENDBRANCH  23  29
ENDBRANCH   1  26
TORSDOF 8
