REMARK  Name = ZINC66542299
REMARK  8 active torsions:
REMARK  status: ('A' for Active; 'I' for Inactive)
REMARK    1  A    between atoms: C_1  and  C_2
REMARK    2  A    between atoms: C_2  and  O_3
REMARK    3  A    between atoms: O_3  and  C_4
REMARK    4  A    between atoms: N_6  and  C_7
REMARK    5  A    between atoms: C_10  and  O_13
REMARK    6  A    between atoms: O_13  and  C_14
REMARK    7  A    between atoms: C_14  and  C_16
REMARK    8  A    between atoms: C_20  and  C_26
REMARK                            x       y       z     vdW  Elec       q    Type
REMARK                         _______ _______ _______ _____ _____    ______ ____
ROOT
ATOM      1  C   UNL     1       1.558  -3.776   2.531  0.00  0.00    +0.076 C 
ATOM      2  C   UNL     1       0.298  -4.319   3.209  0.00  0.00    +0.026 C 
ATOM      3  C   UNL     1       0.421  -5.835   3.373  0.00  0.00    +0.046 C 
ATOM      4  C   UNL     1       1.643  -6.158   4.236  0.00  0.00    +0.177 C 
ATOM      5  C   UNL     1       2.903  -5.615   3.558  0.00  0.00    +0.046 C 
ATOM      6  C   UNL     1       2.780  -4.098   3.394  0.00  0.00    +0.026 C 
ENDROOT
BRANCH   1   9
ATOM      7  C   UNL     1       0.801  -1.812   1.304  0.00  0.00    +0.400 C 
ATOM      8  O   UNL     1       0.321  -2.554   0.470  0.00  0.00    -0.226 OA
ATOM      9  N   UNL     1       1.441  -2.324   2.374  0.00  0.00    -0.278 N 
ATOM     10  H   UNL     1       1.824  -1.732   3.040  0.00  0.00    +0.152 HD
BRANCH   7  11
ATOM     11  O   UNL     1       0.693  -0.477   1.160  0.00  0.00    -0.451 OA
BRANCH  11  13
ATOM     12  C   UNL     1      -0.019   1.526   0.010  0.00  0.00    +0.048 C 
ATOM     13  C   UNL     1       0.002  -0.004   0.002  0.00  0.00    +0.230 C 
ENDBRANCH  11  13
ENDBRANCH   7  11
ENDBRANCH   1   9
BRANCH   4  14
ATOM     14  O   UNL     1       1.757  -7.574   4.389  0.00  0.00    -0.460 OA
BRANCH  14  15
ATOM     15  C   UNL     1       2.314  -8.021   5.526  0.00  0.00    +0.329 C 
ATOM     16  O   UNL     1       2.692  -7.235   6.362  0.00  0.00    -0.249 OA
BRANCH  15  17
ATOM     17  C   UNL     1       2.468  -9.502   5.758  0.00  0.00    +0.196 C 
ATOM     18  C   UNL     1       3.316 -10.091   4.606  0.00  0.00    +0.105 C 
ATOM     19  S   UNL     1       4.914 -10.384   5.490  0.00  0.00    -0.133 S 
ATOM     20  C   UNL     1       4.161 -10.661   7.147  0.00  0.00    +0.082 C 
ATOM     21  N   UNL     1       3.027  -9.704   7.098  0.00  0.00    -0.273 N 
ATOM     22  C   UNL     1       2.840  -9.229   8.359  0.00  0.00    +0.217 C 
ATOM     23  O   UNL     1       1.848  -8.642   8.736  0.00  0.00    -0.276 OA
ATOM     24  C   UNL     1       4.041  -9.534   9.224  0.00  0.00    +0.099 C 
ATOM     25  C   UNL     1       5.081 -10.109   8.247  0.00  0.00    +0.046 C 
ATOM     26  C   UNL     1       3.747 -12.115   7.385  0.00  0.00    +0.044 C 
ENDBRANCH  15  17
ENDBRANCH  14  15
ENDBRANCH   4  14
TORSDOF 6
