REMARK  Name = ZINC12038101
REMARK  9 active torsions:
REMARK  status: ('A' for Active; 'I' for Inactive)
REMARK    1  A    between atoms: C_1  and  C_2
REMARK    2  A    between atoms: C_2  and  C_3
REMARK    3  A    between atoms: C_3  and  C_22
REMARK    4  A    between atoms: N_6  and  C_10
REMARK    5  A    between atoms: C_10  and  C_11
REMARK    6  A    between atoms: C_27  and  C_28
REMARK    7  A    between atoms: C_27  and  N_71
REMARK    8  A    between atoms: C_28  and  C_36
REMARK    9  A    between atoms: C_29  and  C_30
REMARK                            x       y       z     vdW  Elec       q    Type
REMARK                         _______ _______ _______ _____ _____    ______ ____
ROOT
ATOM      1  C   UNL     1       0.012  -5.849   2.280  0.00  0.00    +0.115 C 
ATOM      2  C   UNL     1       1.372  -5.323   1.866  0.00  0.00    +0.247 C 
ATOM      3  O   UNL     1       2.415  -5.431   2.474  0.00  0.00    -0.273 OA
ATOM      4  N   UNL     1       1.180  -4.708   0.682  0.00  0.00    -0.221 N 
ATOM      5  C   UNL     1      -0.098  -4.778   0.291  0.00  0.00    +0.309 C 
ATOM      6  O   UNL     1      -0.515  -4.300  -0.746  0.00  0.00    -0.252 OA
ATOM      7  N   UNL     1      -0.870  -5.437   1.174  0.00  0.00    -0.285 N 
ATOM      8  H   UNL     1      -1.822  -5.608   1.098  0.00  0.00    +0.151 HD
ENDROOT
BRANCH   1   9
ATOM      9  C   UNL     1       0.042  -7.374   2.406  0.00  0.00    +0.018 C 
ATOM     10  C   UNL     1       0.880  -7.770   3.624  0.00  0.00    -0.013 C 
ATOM     11  C   UNL     1       0.958  -9.296   3.708  0.00  0.00    -0.078 C 
ATOM     12  C   UNL     1       0.748  -9.499   1.303  0.00  0.00    -0.078 C 
ATOM     13  C   UNL     1       0.666  -7.979   1.145  0.00  0.00    -0.013 C 
ATOM     14  N   UNL     1       1.590  -9.815   2.477  0.00  0.00    +0.382 N 
ATOM     15  H   UNL     1       2.507  -9.368   2.359  0.00  0.00    -0.081 HD
BRANCH  14  16
ATOM     16  C   UNL     1       1.779 -11.277   2.583  0.00  0.00    -0.048 C 
BRANCH  16  17
ATOM     17  C   UNL     1       2.400 -11.598   3.918  0.00  0.00    -0.089 C 
ATOM     18  C   UNL     1       1.632 -11.959   4.937  0.00  0.00    +0.005 C 
ATOM     19  C   UNL     1       3.894 -11.508   4.095  0.00  0.00    +0.037 C 
BRANCH  18  20
ATOM     20  C   UNL     1       2.217 -12.110   6.286  0.00  0.00    -0.025 A 
ATOM     21  C   UNL     1       1.718 -13.075   7.162  0.00  0.00    +0.008 A 
ATOM     22  C   UNL     1       2.272 -13.215   8.418  0.00  0.00    +0.001 A 
ATOM     23  C   UNL     1       3.312 -12.393   8.813  0.00  0.00    +0.000 A 
ATOM     24  C   UNL     1       3.808 -11.431   7.952  0.00  0.00    +0.001 A 
ATOM     25  C   UNL     1       3.266 -11.284   6.691  0.00  0.00    +0.008 A 
ENDBRANCH  18  20
ENDBRANCH  16  17
ENDBRANCH  14  16
ENDBRANCH   1   9
BRANCH   1  27
ATOM     26  C   UNL     1      -0.529  -3.693   3.421  0.00  0.00    +0.006 C 
ATOM     27  C   UNL     1      -0.439  -5.211   3.595  0.00  0.00    +0.032 C 
ENDBRANCH   1  27
BRANCH   4  28
ATOM     28  C   UNL     1       2.240  -4.049  -0.085  0.00  0.00    +0.166 C 
BRANCH  28  29
ATOM     29  C   UNL     1       2.332  -2.579   0.331  0.00  0.00    +0.229 C 
ATOM     30  C   UNL     1       3.441  -1.884  -0.470  0.00  0.00    +0.275 C 
ATOM     31  O   UNL     1       3.491  -0.511  -0.067  0.00  0.00    -0.485 OA
ATOM     32  C   UNL     1       2.301   0.145   0.018  0.00  0.00    +0.162 A 
ATOM     33  C   UNL     1       2.289   1.532   0.043  0.00  0.00    +0.049 A 
ATOM     34  C   UNL     1       1.089   2.212   0.133  0.00  0.00    +0.004 A 
ATOM     35  C   UNL     1      -0.102   1.512   0.197  0.00  0.00    +0.004 A 
ATOM     36  C   UNL     1      -0.096   0.130   0.171  0.00  0.00    +0.049 A 
ATOM     37  C   UNL     1       1.104  -0.558   0.080  0.00  0.00    +0.163 A 
ATOM     38  O   UNL     1       1.093  -1.919   0.048  0.00  0.00    -0.480 OA
ENDBRANCH  28  29
ENDBRANCH   4  28
TORSDOF 7
