REMARK  Name = ZINC01082027
REMARK  2 active torsions:
REMARK  status: ('A' for Active; 'I' for Inactive)
REMARK    1  A    between atoms: C_15  and  C_17
REMARK    2  A    between atoms: C_19  and  N_24
REMARK                            x       y       z     vdW  Elec       q    Type
REMARK                         _______ _______ _______ _____ _____    ______ ____
ROOT
ATOM      1  C   UNL     1       1.155   1.776   0.001  0.00  0.00    +0.001 A 
ATOM      2  C   UNL     1       1.155   3.169   0.008  0.00  0.00    +0.001 A 
ATOM      3  C   UNL     1      -0.012   3.870   0.022  0.00  0.00    +0.010 A 
ATOM      4  C   UNL     1      -1.235   3.182   0.029  0.00  0.00    +0.004 A 
ATOM      5  C   UNL     1      -1.237   1.766   0.018  0.00  0.00    -0.016 A 
ATOM      6  C   UNL     1      -0.013   1.076   0.008  0.00  0.00    +0.008 A 
ATOM      7  C   UNL     1      -2.462   1.077   0.021  0.00  0.00    +0.009 A 
ATOM      8  C   UNL     1      -3.633   1.771   0.029  0.00  0.00    +0.006 A 
ATOM      9  C   UNL     1      -3.645   3.164   0.035  0.00  0.00    -0.018 A 
ATOM     10  C   UNL     1      -2.464   3.875   0.043  0.00  0.00    +0.045 A 
ATOM     11  N   UNL     1      -2.484   5.269   0.037  0.00  0.00    -0.285 N 
ATOM     12  C   UNL     1      -3.589   5.936   0.419  0.00  0.00    +0.218 C 
ATOM     13  O   UNL     1      -3.592   7.149   0.411  0.00  0.00    -0.275 OA
ATOM     14  C   UNL     1      -4.820   5.189   0.857  0.00  0.00    +0.109 C 
ATOM     15  C   UNL     1      -4.960   3.902   0.043  0.00  0.00    +0.061 C 
ATOM     16  H   UNL     1      -1.695   5.763  -0.237  0.00  0.00    +0.155 HD
ENDROOT
BRANCH  15  17
ATOM     17  C   UNL     1      -5.354   4.243  -1.371  0.00  0.00    -0.019 A 
ATOM     18  C   UNL     1      -4.530   5.038  -2.145  0.00  0.00    +0.038 A 
ATOM     19  C   UNL     1      -4.891   5.350  -3.442  0.00  0.00    +0.127 A 
ATOM     20  C   UNL     1      -6.076   4.868  -3.966  0.00  0.00    +0.034 A 
ATOM     21  C   UNL     1      -6.901   4.073  -3.193  0.00  0.00    +0.022 A 
ATOM     22  C   UNL     1      -6.537   3.755  -1.896  0.00  0.00    +0.045 A 
ATOM     23 CL   UNL     1      -7.569   2.750  -0.927  0.00  0.00    -0.083 Cl
BRANCH  19  24
ATOM     24  N   UNL     1      -4.009   6.202  -4.271  0.00  0.00    +0.056 N 
ATOM     25  O   UNL     1      -2.965   6.628  -3.809  0.00  0.00    -0.126 OA
ATOM     26  O   UNL     1      -4.326   6.478  -5.414  0.00  0.00    -0.126 OA
ENDBRANCH  19  24
ENDBRANCH  15  17
TORSDOF 2
