REMARK  Name = ZINC03429431
REMARK  7 active torsions:
REMARK  status: ('A' for Active; 'I' for Inactive)
REMARK    1  A    between atoms: C_1  and  C_2
REMARK    2  A    between atoms: C_5  and  N_9
REMARK    3  A    between atoms: C_18  and  S_19
REMARK    4  A    between atoms: S_19  and  C_20
REMARK    5  A    between atoms: C_20  and  C_22
REMARK    6  A    between atoms: C_20  and  C_23
REMARK    7  A    between atoms: C_27  and  C_31
REMARK                            x       y       z     vdW  Elec       q    Type
REMARK                         _______ _______ _______ _____ _____    ______ ____
ROOT
ATOM      1  N   UNL     1       0.002  -0.004   0.002  0.00  0.00    -0.255 N 
ATOM      2  C   UNL     1       0.034   1.250  -0.484  0.00  0.00    +0.268 A 
ATOM      3  O   UNL     1      -0.980   1.770  -0.919  0.00  0.00    -0.267 OA
ATOM      4  C   UNL     1       1.274   1.963  -0.489  0.00  0.00    +0.076 A 
ATOM      5  C   UNL     1       1.536   3.323  -0.965  0.00  0.00    -0.023 A 
ATOM      6  C   UNL     1       2.803   3.774  -0.862  0.00  0.00    -0.004 A 
ATOM      7  S   UNL     1       3.710   2.436  -0.136  0.00  0.00    -0.073 S 
ATOM      8  C   UNL     1       2.381   1.270   0.028  0.00  0.00    +0.117 A 
ATOM      9  N   UNL     1       2.284   0.031   0.494  0.00  0.00    -0.215 NA
ATOM     10  C   UNL     1       1.130  -0.604   0.488  0.00  0.00    +0.178 A 
ATOM     11  C   UNL     1       3.325   5.117  -1.274  0.00  0.00    +0.046 C 
ATOM     12  C   UNL     1       2.280   5.787  -2.177  0.00  0.00    -0.009 C 
ATOM     13  C   UNL     1       0.905   5.662  -1.515  0.00  0.00    +0.008 C 
ATOM     14  C   UNL     1       0.440   4.206  -1.554  0.00  0.00    +0.037 C 
ATOM     15  C   UNL     1       2.628   7.265  -2.362  0.00  0.00    +0.008 C 
ENDROOT
BRANCH   1  20
ATOM     16  C   UNL     1      -4.905  -2.856   0.036  0.00  0.00    +0.045 C 
ATOM     17  C   UNL     1      -3.602  -2.099   0.027  0.00  0.00    -0.032 A 
ATOM     18  C   UNL     1      -3.248  -1.320   1.113  0.00  0.00    +0.007 A 
ATOM     19  C   UNL     1      -2.053  -0.629   1.110  0.00  0.00    +0.026 A 
ATOM     20  C   UNL     1      -1.209  -0.708   0.010  0.00  0.00    +0.053 A 
ATOM     21  C   UNL     1      -1.566  -1.491  -1.080  0.00  0.00    +0.046 A 
ATOM     22  C   UNL     1      -2.761  -2.184  -1.069  0.00  0.00    +0.046 A 
ATOM     23 CL   UNL     1      -3.208  -3.164  -2.431  0.00  0.00    -0.083 Cl
ENDBRANCH   1  20
BRANCH  10  24
ATOM     24  S   UNL     1       1.038  -2.249   1.115  0.00  0.00    -0.075 S 
BRANCH  24  25
ATOM     25  C   UNL     1       2.765  -2.498   1.596  0.00  0.00    +0.137 C 
ATOM     26  C   UNL     1       3.122  -1.537   2.731  0.00  0.00    +0.029 C 
BRANCH  25  27
ATOM     27  C   UNL     1       2.957  -3.919   2.061  0.00  0.00    +0.224 C 
ATOM     28  O   UNL     1       2.001  -4.575   2.414  0.00  0.00    -0.275 OA
ATOM     29  N   UNL     1       4.192  -4.459   2.085  0.00  0.00    -0.328 N 
ATOM     30  H   UNL     1       4.332  -5.496   2.425  0.00  0.00    +0.145 HD
ATOM     31  H   UNL     1       5.059  -3.863   1.765  0.00  0.00    +0.145 HD
ENDBRANCH  25  27
ENDBRANCH  24  25
ENDBRANCH  10  24
TORSDOF 4
