REMARK  Name = ZINC00569860
REMARK  5 active torsions:
REMARK  status: ('A' for Active; 'I' for Inactive)
REMARK    1  A    between atoms: C_1  and  C_2
REMARK    2  A    between atoms: C_4  and  C_21
REMARK    3  A    between atoms: C_9  and  C_11
REMARK    4  A    between atoms: C_14  and  C_19
REMARK    5  A    between atoms: C_15  and  N_18
REMARK                            x       y       z     vdW  Elec       q    Type
REMARK                         _______ _______ _______ _____ _____    ______ ____
ROOT
ATOM      1  C   UNL     1       2.389   1.412  -0.014  0.00  0.00    +0.075 A 
ATOM      2  C   UNL     1       1.167   2.090   0.002  0.00  0.00    +0.055 A 
ATOM      3  C   UNL     1      -0.017   1.379   0.010  0.00  0.00    +0.026 A 
ATOM      4  C   UNL     1       0.002  -0.004   0.002  0.00  0.00    -0.027 A 
ATOM      5  C   UNL     1       1.211  -0.688  -0.014  0.00  0.00    +0.047 A 
ATOM      6  C   UNL     1       2.407   0.017  -0.022  0.00  0.00    +0.075 A 
ATOM      7 CL   UNL     1       3.920  -0.835  -0.041  0.00  0.00    -0.081 Cl
ATOM      8  C   UNL     1      -1.294  -0.772   0.010  0.00  0.00    +0.046 C 
ATOM      9 CL   UNL     1       1.136   3.826   0.011  0.00  0.00    -0.083 Cl
ENDROOT
BRANCH   1  18
ATOM     10  C   UNL     1       9.346   3.874  -0.072  0.00  0.00    +0.044 C 
ATOM     11  C   UNL     1       7.839   3.853  -0.057  0.00  0.00    -0.048 A 
ATOM     12  C   UNL     1       7.133   5.046  -0.042  0.00  0.00    +0.010 A 
ATOM     13  C   UNL     1       5.754   5.044  -0.028  0.00  0.00    -0.006 A 
ATOM     14  C   UNL     1       5.065   3.841  -0.028  0.00  0.00    +0.159 A 
ATOM     15  C   UNL     1       5.776   2.630  -0.042  0.00  0.00    +0.110 A 
ATOM     16  C   UNL     1       7.173   2.648  -0.057  0.00  0.00    +0.035 A 
ATOM     17  N   UNL     1       4.851   1.635  -0.033  0.00  0.00    -0.209 NA
ATOM     18  C   UNL     1       3.657   2.171  -0.023  0.00  0.00    +0.231 A 
ATOM     19  O   UNL     1       3.754   3.514  -0.016  0.00  0.00    -0.435 OA
ATOM     20  C   UNL     1       4.997   6.347  -0.013  0.00  0.00    +0.047 C 
ENDBRANCH   1  18
BRANCH   5  21
ATOM     21  N   UNL     1       1.224  -2.086  -0.022  0.00  0.00    -0.357 N 
ATOM     22  H   UNL     1       0.388  -2.579  -0.016  0.00  0.00    +0.142 HD
ATOM     23  H   UNL     1       2.068  -2.563  -0.033  0.00  0.00    +0.142 HD
ENDBRANCH   5  21
TORSDOF 2
