REMARK  Name = ZINC35542198
REMARK  8 active torsions:
REMARK  status: ('A' for Active; 'I' for Inactive)
REMARK    1  A    between atoms: C_1  and  C_2
REMARK    2  A    between atoms: C_2  and  C_3
REMARK    3  A    between atoms: C_2  and  C_4
REMARK    4  A    between atoms: C_2  and  C_5
REMARK    5  A    between atoms: C_6  and  N_18
REMARK    6  A    between atoms: C_7  and  N_17
REMARK    7  A    between atoms: N_8  and  C_10
REMARK    8  A    between atoms: N_21  and  C_22
REMARK                            x       y       z     vdW  Elec       q    Type
REMARK                         _______ _______ _______ _____ _____    ______ ____
ROOT
ATOM      1  C   UNL     1       0.354  -0.493  -1.617  0.00  0.00    +0.092 A 
ATOM      2  C   UNL     1       0.941  -1.760  -1.511  0.00  0.00    +0.098 A 
ATOM      3  C   UNL     1       2.001  -1.801  -2.370  0.00  0.00    +0.142 A 
ATOM      4  N   UNL     1       2.068  -0.591  -2.992  0.00  0.00    -0.217 N 
ATOM      5  N   UNL     1       1.022   0.201  -2.503  0.00  0.00    -0.167 NA
ENDROOT
BRANCH   4   6
ATOM      6  C   UNL     1       3.014  -0.208  -3.954  0.00  0.00    +0.068 A 
ATOM      7  C   UNL     1       4.319  -0.675  -3.871  0.00  0.00    +0.030 A 
ATOM      8  C   UNL     1       5.248  -0.298  -4.819  0.00  0.00    +0.040 A 
ATOM      9  C   UNL     1       4.880   0.547  -5.853  0.00  0.00    +0.124 A 
ATOM     10  C   UNL     1       3.580   1.015  -5.938  0.00  0.00    +0.040 A 
ATOM     11  C   UNL     1       2.645   0.634  -4.995  0.00  0.00    +0.030 A 
ATOM     12  F   UNL     1       5.791   0.916  -6.780  0.00  0.00    -0.205 F 
ENDBRANCH   4   6
BRANCH   2  13
ATOM     13  N   UNL     1       0.514  -2.808  -0.666  0.00  0.00    -0.265 N 
ATOM     14  C   UNL     1       0.372  -4.055  -1.158  0.00  0.00    +0.304 C 
ATOM     15  O   UNL     1       0.681  -4.293  -2.309  0.00  0.00    -0.252 OA
ATOM     16  N   UNL     1      -0.114  -5.037  -0.373  0.00  0.00    -0.296 N 
ATOM     17  H   UNL     1       0.322  -2.630   0.268  0.00  0.00    +0.157 HD
ATOM     18  H   UNL     1      -0.361  -4.847   0.546  0.00  0.00    +0.151 HD
BRANCH  16  19
ATOM     19  C   UNL     1      -0.268  -6.393  -0.907  0.00  0.00    +0.074 C 
ATOM     20  C   UNL     1      -1.612  -6.506  -1.630  0.00  0.00    +0.022 C 
ATOM     21  C   UNL     1      -1.774  -7.921  -2.188  0.00  0.00    +0.002 C 
ATOM     22  C   UNL     1      -1.725  -8.931  -1.039  0.00  0.00    +0.000 C 
ATOM     23  C   UNL     1      -0.381  -8.818  -0.317  0.00  0.00    +0.002 C 
ATOM     24  C   UNL     1      -0.220  -7.402   0.241  0.00  0.00    +0.022 C 
ENDBRANCH  16  19
ENDBRANCH   2  13
BRANCH   1  26
ATOM     25  C   UNL     1      -1.177   1.424  -1.256  0.00  0.00    +0.017 C 
ATOM     26  C   UNL     1      -0.849  -0.013  -0.845  0.00  0.00    +0.008 C 
ATOM     27  C   UNL     1      -0.544  -0.059   0.653  0.00  0.00    +0.017 C 
ATOM     28  C   UNL     1      -2.045  -0.917  -1.151  0.00  0.00    +0.017 C 
ENDBRANCH   1  26
BRANCH   3  29
ATOM     29  N   UNL     1       2.859  -2.883  -2.573  0.00  0.00    -0.342 N 
ATOM     30  H   UNL     1       2.650  -3.747  -2.183  0.00  0.00    +0.144 HD
ATOM     31  H   UNL     1       3.663  -2.772  -3.103  0.00  0.00    +0.144 HD
ENDBRANCH   3  29
TORSDOF 5
