REMARK  Name = ZINC36025128
REMARK  5 active torsions:
REMARK  status: ('A' for Active; 'I' for Inactive)
REMARK    1  A    between atoms: C_3  and  C_11
REMARK    2  A    between atoms: C_5  and  C_7
REMARK    3  A    between atoms: C_11  and  N_12
REMARK    4  A    between atoms: N_20  and  S_23
REMARK    5  A    between atoms: S_23  and  C_26
REMARK                            x       y       z     vdW  Elec       q    Type
REMARK                         _______ _______ _______ _____ _____    ______ ____
ROOT
ATOM      1  N   UNL     1       4.101   2.543   1.331  0.00  0.00    -0.310 N 
ATOM      2  C   UNL     1       3.687   3.631   2.015  0.00  0.00    +0.198 C 
ATOM      3  O   UNL     1       2.908   4.468   1.611  0.00  0.00    -0.278 OA
ATOM      4  C   UNL     1       4.360   3.630   3.370  0.00  0.00    +0.018 C 
ATOM      5  N   UNL     1       4.862   2.245   3.543  0.00  0.00    +0.399 N 
ATOM      6  C   UNL     1       5.039   1.776   2.154  0.00  0.00    +0.006 C 
ATOM      7  C   UNL     1       6.475   2.041   1.704  0.00  0.00    +0.023 C 
ATOM      8  C   UNL     1       6.644   1.586   0.251  0.00  0.00    +0.109 C 
ATOM      9  N   UNL     1       6.217   0.185   0.141  0.00  0.00    -0.177 NA
ATOM     10  C   UNL     1       4.877  -0.185   0.617  0.00  0.00    +0.109 C 
ATOM     11  C   UNL     1       4.722   0.284   2.067  0.00  0.00    +0.023 C 
ATOM     12  H   UNL     1       5.742   2.244   4.037  0.00  0.00    -0.082 HD
ATOM     13  H   UNL     1       4.181   1.677   4.023  0.00  0.00    -0.082 HD
ENDROOT
BRANCH   9  14
ATOM     14  S   UNL     1       7.226  -0.957  -0.507  0.00  0.00    +0.061 S 
ATOM     15  O   UNL     1       6.397  -2.007  -0.986  0.00  0.00    -0.153 OA
ATOM     16  O   UNL     1       8.138  -0.263  -1.347  0.00  0.00    -0.153 OA
BRANCH  14  17
ATOM     17  C   UNL     1       8.173  -1.628   0.819  0.00  0.00    +0.106 A 
ATOM     18  C   UNL     1       9.379  -1.049   1.168  0.00  0.00    +0.030 A 
ATOM     19  C   UNL     1      10.123  -1.575   2.208  0.00  0.00    +0.022 A 
ATOM     20  C   UNL     1       9.660  -2.681   2.899  0.00  0.00    +0.041 A 
ATOM     21  C   UNL     1       8.453  -3.260   2.548  0.00  0.00    +0.022 A 
ATOM     22  C   UNL     1       7.708  -2.729   1.512  0.00  0.00    +0.030 A 
ATOM     23 CL   UNL     1      10.594  -3.342   4.204  0.00  0.00    -0.084 Cl
ENDBRANCH  14  17
ENDBRANCH   9  14
BRANCH   1  24
ATOM     24  C   UNL     1       3.672   2.182  -0.022  0.00  0.00    +0.141 C 
BRANCH  24  27
ATOM     25  C   UNL     1       0.277   0.955   1.083  0.00  0.00    +0.001 A 
ATOM     26  C   UNL     1       1.450   1.683   1.017  0.00  0.00    +0.005 A 
ATOM     27  C   UNL     1       2.394   1.387   0.051  0.00  0.00    -0.030 A 
ATOM     28  C   UNL     1       2.164   0.362  -0.848  0.00  0.00    +0.017 A 
ATOM     29  C   UNL     1       0.992  -0.367  -0.781  0.00  0.00    +0.055 A 
ATOM     30  C   UNL     1       0.048  -0.070   0.184  0.00  0.00    +0.012 A 
BRANCH  29  31
ATOM     31  C   UNL     1       0.742  -1.483  -1.762  0.00  0.00    +0.417 C 
ATOM     32  F   UNL     1       1.242  -2.682  -1.241  0.00  0.00    -0.166 F 
ATOM     33  F   UNL     1      -0.634  -1.609  -1.984  0.00  0.00    -0.166 F 
ATOM     34  F   UNL     1       1.385  -1.195  -2.970  0.00  0.00    -0.166 F 
ENDBRANCH  29  31
ENDBRANCH  24  27
ENDBRANCH   1  24
TORSDOF 5
