REMARK  Name = ZINC12940227
REMARK  12 active torsions:
REMARK  status: ('A' for Active; 'I' for Inactive)
REMARK    1  A    between atoms: C_1  and  C_2
REMARK    2  A    between atoms: C_2  and  C_3
REMARK    3  A    between atoms: C_3  and  C_5
REMARK    4  A    between atoms: C_3  and  N_60
REMARK    5  A    between atoms: C_8  and  S_17
REMARK    6  A    between atoms: N_9  and  C_10
REMARK    7  A    between atoms: C_10  and  C_11
REMARK    8  A    between atoms: S_17  and  C_18
REMARK    9  A    between atoms: C_18  and  C_19
REMARK   10  A    between atoms: C_19  and  C_21
REMARK   11  A    between atoms: C_32  and  N_60
REMARK   12  A    between atoms: C_33  and  N_60
REMARK                            x       y       z     vdW  Elec       q    Type
REMARK                         _______ _______ _______ _____ _____    ______ ____
ROOT
ATOM      1  C   UNL     1      -3.624   1.636   2.280  0.00  0.00    +0.121 A 
ATOM      2  N   UNL     1      -3.566   1.203   3.507  0.00  0.00    -0.135 NA
ATOM      3  N   UNL     1      -2.873   0.122   3.561  0.00  0.00    -0.123 NA
ATOM      4  C   UNL     1      -2.453  -0.199   2.360  0.00  0.00    +0.192 A 
ATOM      5  N   UNL     1      -2.915   0.760   1.505  0.00  0.00    -0.303 N 
ENDROOT
BRANCH   1   6
ATOM      6  C   UNL     1      -4.340   2.873   1.802  0.00  0.00    +0.000 C 
BRANCH   6   9
ATOM      7  C   UNL     1      -6.447   1.722   1.486  0.00  0.00    -0.096 C 
ATOM      8  C   UNL     1      -5.886   2.647   3.652  0.00  0.00    -0.096 C 
ATOM      9  N   UNL     1      -5.766   2.828   2.190  0.00  0.00    +0.383 N 
ATOM     10  H   UNL     1      -6.211   3.715   1.926  0.00  0.00    -0.082 HD
ENDBRANCH   6   9
BRANCH   6  12
ATOM     11  C   UNL     1      -4.380   5.369   1.893  0.00  0.00    +0.002 C 
ATOM     12  C   UNL     1      -3.695   4.110   2.429  0.00  0.00    -0.011 C 
ENDBRANCH   6  12
ENDBRANCH   1   6
BRANCH   5  13
ATOM     13  C   UNL     1      -2.700   0.832   0.058  0.00  0.00    +0.160 C 
BRANCH  13  14
ATOM     14  C   UNL     1      -1.449   1.623  -0.226  0.00  0.00    -0.028 A 
ATOM     15  C   UNL     1      -0.229   0.979  -0.311  0.00  0.00    +0.005 A 
ATOM     16  C   UNL     1       0.918   1.703  -0.576  0.00  0.00    +0.000 A 
ATOM     17  C   UNL     1       0.846   3.073  -0.752  0.00  0.00    +0.000 A 
ATOM     18  C   UNL     1      -0.374   3.717  -0.662  0.00  0.00    +0.000 A 
ATOM     19  C   UNL     1      -1.521   2.993  -0.396  0.00  0.00    +0.005 A 
ENDBRANCH  13  14
ENDBRANCH   5  13
BRANCH   4  20
ATOM     20  S   UNL     1      -1.475  -1.601   1.932  0.00  0.00    -0.078 S 
BRANCH  20  21
ATOM     21  C   UNL     1      -1.282  -2.360   3.564  0.00  0.00    +0.157 C 
BRANCH  21  22
ATOM     22  C   UNL     1      -0.454  -3.613   3.440  0.00  0.00    +0.173 C 
ATOM     23  O   UNL     1      -0.036  -3.959   2.355  0.00  0.00    -0.291 OA
BRANCH  22  24
ATOM     24  C   UNL     1      -0.154  -4.416   4.633  0.00  0.00    +0.020 A 
ATOM     25  C   UNL     1      -0.631  -4.014   5.887  0.00  0.00    +0.015 A 
ATOM     26  C   UNL     1      -0.354  -4.769   7.005  0.00  0.00    +0.048 A 
ATOM     27  C   UNL     1       0.408  -5.925   6.894  0.00  0.00    +0.142 A 
ATOM     28  C   UNL     1       0.892  -6.328   5.646  0.00  0.00    +0.076 A 
ATOM     29  C   UNL     1       0.615  -5.581   4.520  0.00  0.00    +0.038 A 
ATOM     30  N   UNL     1       1.661  -7.498   5.556  0.00  0.00    -0.280 N 
ATOM     31  C   UNL     1       1.652  -8.368   6.590  0.00  0.00    +0.255 C 
ATOM     32  O   UNL     1       2.332  -9.371   6.548  0.00  0.00    -0.272 OA
ATOM     33  C   UNL     1       0.794  -8.085   7.797  0.00  0.00    +0.325 C 
ATOM     34  O   UNL     1       0.688  -6.673   7.992  0.00  0.00    -0.481 OA
ATOM     35  H   UNL     1       2.190  -7.680   4.764  0.00  0.00    +0.155 HD
ENDBRANCH  22  24
ENDBRANCH  21  22
ENDBRANCH  20  21
ENDBRANCH   4  20
TORSDOF 9
