REMARK  Name = ZINC14699572
REMARK  13 active torsions:
REMARK  status: ('A' for Active; 'I' for Inactive)
REMARK    1  A    between atoms: C_1  and  C_2
REMARK    2  A    between atoms: C_2  and  C_3
REMARK    3  A    between atoms: C_3  and  C_4
REMARK    4  A    between atoms: C_4  and  N_5
REMARK    5  A    between atoms: C_6  and  N_37
REMARK    6  A    between atoms: C_7  and  N_14
REMARK    7  A    between atoms: N_14  and  C_15
REMARK    8  A    between atoms: C_15  and  C_16
REMARK    9  A    between atoms: C_21  and  O_22
REMARK   10  A    between atoms: O_22  and  C_23
REMARK   11  A    between atoms: C_24  and  C_26
REMARK   12  A    between atoms: C_27  and  C_28
REMARK   13  A    between atoms: C_32  and  N_34
REMARK                            x       y       z     vdW  Elec       q    Type
REMARK                         _______ _______ _______ _____ _____    ______ ____
ROOT
ATOM      1  N   UNL     1      -2.481   8.162   0.058  0.00  0.00    -0.256 N 
ATOM      2  C   UNL     1      -1.246   7.676  -0.178  0.00  0.00    +0.244 C 
ATOM      3  O   UNL     1      -0.320   8.439  -0.380  0.00  0.00    -0.270 OA
ENDROOT
BRANCH   1   6
ATOM      4  N   UNL     1      -2.304  11.622   1.279  0.00  0.00    -0.280 N 
ATOM      5  C   UNL     1      -2.094  10.265   1.197  0.00  0.00    +0.127 A 
ATOM      6  C   UNL     1      -2.681   9.553   0.172  0.00  0.00    +0.140 A 
ATOM      7  C   UNL     1      -3.489  10.238  -0.756  0.00  0.00    +0.277 A 
ATOM      8  O   UNL     1      -4.023   9.632  -1.669  0.00  0.00    -0.266 OA
ATOM      9  N   UNL     1      -3.666  11.567  -0.627  0.00  0.00    -0.273 N 
ATOM     10  H   UNL     1      -4.240  12.055  -1.286  0.00  0.00    +0.173 HD
ATOM     11  C   UNL     1      -3.082  12.246   0.376  0.00  0.00    +0.331 A 
ATOM     12  O   UNL     1      -3.259  13.445   0.468  0.00  0.00    -0.246 OA
BRANCH   5  13
ATOM     13  N   UNL     1      -1.304   9.627   2.124  0.00  0.00    -0.343 N 
ATOM     14  H   UNL     1      -1.227   8.660   2.112  0.00  0.00    +0.144 HD
ATOM     15  H   UNL     1      -0.823  10.144   2.789  0.00  0.00    +0.144 HD
ENDBRANCH   5  13
BRANCH   4  16
ATOM     16  C   UNL     1      -1.682  12.392   2.359  0.00  0.00    +0.128 C 
BRANCH  16  17
ATOM     17  C   UNL     1      -2.620  12.424   3.567  0.00  0.00    +0.021 C 
BRANCH  17  19
ATOM     18  C   UNL     1      -2.908  13.261   5.904  0.00  0.00    +0.004 C 
ATOM     19  C   UNL     1      -1.970  13.228   4.696  0.00  0.00    -0.002 C 
ENDBRANCH  17  19
ENDBRANCH  16  17
ENDBRANCH   4  16
ENDBRANCH   1   6
BRANCH   2  20
ATOM     20  C   UNL     1      -1.018   6.229  -0.190  0.00  0.00    +0.068 C 
ATOM     21  C   UNL     1       0.217   5.743  -0.426  0.00  0.00    +0.013 C 
BRANCH  21  22
ATOM     22  C   UNL     1       0.445   4.289  -0.438  0.00  0.00    -0.023 A 
ATOM     23  C   UNL     1      -0.616   3.409  -0.205  0.00  0.00    +0.008 A 
ATOM     24  C   UNL     1      -0.395   2.048  -0.224  0.00  0.00    +0.003 A 
ATOM     25  C   UNL     1       0.876   1.553  -0.461  0.00  0.00    +0.033 A 
ATOM     26  C   UNL     1       1.931   2.417  -0.692  0.00  0.00    +0.127 A 
ATOM     27  C   UNL     1       1.725   3.781  -0.682  0.00  0.00    +0.040 A 
BRANCH  26  28
ATOM     28  N   UNL     1       3.285   1.877  -0.950  0.00  0.00    +0.056 N 
ATOM     29  O   UNL     1       3.469   0.673  -0.958  0.00  0.00    -0.126 OA
ATOM     30  O   UNL     1       4.215   2.637  -1.153  0.00  0.00    -0.126 OA
ENDBRANCH  26  28
ENDBRANCH  21  22
ENDBRANCH   2  20
BRANCH   1  31
ATOM     31  C   UNL     1      -3.615   7.244   0.196  0.00  0.00    +0.153 C 
BRANCH  31  32
ATOM     32  C   UNL     1      -3.836   6.935   1.655  0.00  0.00    +0.012 A 
ATOM     33  C   UNL     1      -3.361   5.753   2.190  0.00  0.00    +0.009 A 
ATOM     34  C   UNL     1      -3.559   5.470   3.529  0.00  0.00    +0.001 A 
ATOM     35  C   UNL     1      -4.242   6.365   4.333  0.00  0.00    +0.004 A 
ATOM     36  C   UNL     1      -4.723   7.545   3.801  0.00  0.00    +0.046 A 
ATOM     37  C   UNL     1      -4.521   7.834   2.459  0.00  0.00    +0.125 A 
BRANCH  37  38
ATOM     38  O   UNL     1      -4.993   8.994   1.933  0.00  0.00    -0.495 OA
ATOM     39  C   UNL     1      -5.689   9.872   2.821  0.00  0.00    +0.277 C 
ENDBRANCH  37  38
ENDBRANCH  31  32
ENDBRANCH   1  31
TORSDOF 11
