REMARK  Name = ZINC34798742
REMARK  5 active torsions:
REMARK  status: ('A' for Active; 'I' for Inactive)
REMARK    1  A    between atoms: C_1  and  C_2
REMARK    2  A    between atoms: C_5  and  C_8
REMARK    3  A    between atoms: C_21  and  C_24
REMARK    4  A    between atoms: C_24  and  O_26
REMARK    5  A    between atoms: O_26  and  C_27
REMARK                            x       y       z     vdW  Elec       q    Type
REMARK                         _______ _______ _______ _____ _____    ______ ____
ROOT
ATOM      1  C   UNL     1       0.059  -4.275  -0.021  0.00  0.00    +0.132 C 
ATOM      2  C   UNL     1      -1.332  -4.802   0.240  0.00  0.00    +0.042 A 
ATOM      3  C   UNL     1      -1.584  -5.832   1.080  0.00  0.00    -0.015 A 
ATOM      4  C   UNL     1      -3.014  -6.047   1.076  0.00  0.00    +0.003 A 
ATOM      5  C   UNL     1      -3.841  -6.957   1.741  0.00  0.00    +0.010 A 
ATOM      6  C   UNL     1      -5.188  -6.869   1.491  0.00  0.00    +0.001 A 
ATOM      7  C   UNL     1      -5.716  -5.928   0.624  0.00  0.00    +0.002 A 
ATOM      8  C   UNL     1      -4.922  -5.016  -0.049  0.00  0.00    +0.026 A 
ATOM      9  C   UNL     1      -3.550  -5.080   0.185  0.00  0.00    +0.047 A 
ATOM     10  N   UNL     1      -2.504  -4.348  -0.300  0.00  0.00    -0.356 N 
ATOM     11  H   UNL     1      -2.580  -3.617  -0.932  0.00  0.00    +0.166 HD
ATOM     12  C   UNL     1      -0.509  -6.567   1.841  0.00  0.00    +0.067 C 
ATOM     13  C   UNL     1       0.844  -6.221   1.204  0.00  0.00    +0.169 C 
ATOM     14  N   UNL     1       0.955  -4.764   1.039  0.00  0.00    -0.292 NA
ATOM     15  H   UNL     1       1.910  -4.489   0.862  0.00  0.00    +0.124 HD
ENDROOT
BRANCH   1  20
ATOM     16  C   UNL     1      -0.018   1.503   0.010  0.00  0.00    +0.044 C 
ATOM     17  C   UNL     1       0.002  -0.004   0.002  0.00  0.00    -0.050 A 
ATOM     18  C   UNL     1       0.006  -0.689  -1.199  0.00  0.00    +0.004 A 
ATOM     19  C   UNL     1       0.025  -2.071  -1.206  0.00  0.00    +0.006 A 
ATOM     20  C   UNL     1       0.040  -2.768  -0.013  0.00  0.00    -0.025 A 
ATOM     21  C   UNL     1       0.037  -2.084   1.188  0.00  0.00    +0.006 A 
ATOM     22  C   UNL     1       0.023  -0.702   1.195  0.00  0.00    +0.004 A 
ENDBRANCH   1  20
BRANCH  13  23
ATOM     23  C   UNL     1       1.958  -6.712   2.093  0.00  0.00    +0.324 C 
ATOM     24  O   UNL     1       2.529  -5.940   2.826  0.00  0.00    -0.249 OA
BRANCH  23  25
ATOM     25  O   UNL     1       2.315  -8.005   2.070  0.00  0.00    -0.467 OA
ATOM     26  C   UNL     1       3.379  -8.400   2.938  0.00  0.00    +0.280 C 
ENDBRANCH  23  25
ENDBRANCH  13  23
TORSDOF 3
