REMARK  Name = ZINC20765049
REMARK  8 active torsions:
REMARK  status: ('A' for Active; 'I' for Inactive)
REMARK    1  A    between atoms: C_1  and  C_2
REMARK    2  A    between atoms: C_2  and  C_3
REMARK    3  A    between atoms: C_6  and  C_9
REMARK    4  A    between atoms: N_14  and  C_17
REMARK    5  A    between atoms: C_17  and  C_18
REMARK    6  A    between atoms: C_17  and  C_19
REMARK    7  A    between atoms: C_21  and  C_24
REMARK    8  A    between atoms: C_29  and  O_30
REMARK                            x       y       z     vdW  Elec       q    Type
REMARK                         _______ _______ _______ _____ _____    ______ ____
ROOT
ATOM      1  C   UNL     1       2.784  -1.910   4.662  0.00  0.00    +0.047 C 
ATOM      2  N   UNL     1       4.049  -2.086   4.587  0.00  0.00    -0.266 NA
ATOM      3  C   UNL     1       4.879  -2.554   5.692  0.00  0.00    +0.109 C 
ATOM      4  C   UNL     1       5.629  -1.367   6.306  0.00  0.00    +0.027 C 
ATOM      5  C   UNL     1       6.560  -0.761   5.254  0.00  0.00    -0.075 C 
ATOM      6  N   UNL     1       7.526  -1.773   4.809  0.00  0.00    +0.381 N 
ATOM      7  C   UNL     1       6.822  -2.884   4.159  0.00  0.00    -0.075 C 
ATOM      8  C   UNL     1       5.900  -3.570   5.170  0.00  0.00    +0.027 C 
ATOM      9  N   UNL     1       4.049  -3.188   6.725  0.00  0.00    -0.286 NA
ATOM     10  C   UNL     1       2.941  -2.295   7.105  0.00  0.00    +0.095 C 
ATOM     11  C   UNL     1       1.991  -2.172   5.912  0.00  0.00    +0.079 C 
ATOM     12  H   UNL     1       3.702  -4.082   6.411  0.00  0.00    +0.125 HD
ATOM     13  H   UNL     1       8.038  -2.121   5.606  0.00  0.00    -0.081 HD
ENDROOT
BRANCH  10  14
ATOM     14  C   UNL     1       2.206  -2.873   8.287  0.00  0.00    +0.012 A 
ATOM     15  C   UNL     1       2.325  -4.216   8.586  0.00  0.00    +0.024 A 
ATOM     16  C   UNL     1       1.650  -4.747   9.671  0.00  0.00    +0.018 A 
ATOM     17  C   UNL     1       0.855  -3.934  10.458  0.00  0.00    +0.019 A 
ATOM     18  C   UNL     1       0.733  -2.590  10.163  0.00  0.00    +0.047 A 
ATOM     19  C   UNL     1       1.413  -2.055   9.079  0.00  0.00    +0.122 A 
ATOM     20 BR   UNL     1       1.815  -6.587  10.077  0.00  0.00    -0.050 Br
BRANCH  19  21
ATOM     21  O   UNL     1       1.299  -0.732   8.789  0.00  0.00    -0.506 OA
ATOM     22  H   UNL     1       0.571  -0.522   8.189  0.00  0.00    +0.292 HD
ENDBRANCH  19  21
ENDBRANCH  10  14
BRANCH   1  26
ATOM     23  C   UNL     1       0.731  -0.503   1.223  0.00  0.00    -0.048 A 
ATOM     24  C   UNL     1       2.098  -0.709   1.173  0.00  0.00    +0.004 A 
ATOM     25  C   UNL     1       2.772  -1.165   2.287  0.00  0.00    +0.010 A 
ATOM     26  C   UNL     1       2.070  -1.421   3.466  0.00  0.00    -0.004 A 
ATOM     27  C   UNL     1       0.691  -1.211   3.510  0.00  0.00    +0.010 A 
ATOM     28  C   UNL     1       0.031  -0.749   2.391  0.00  0.00    +0.004 A 
BRANCH  23  30
ATOM     29  C   UNL     1      -0.019   1.526   0.010  0.00  0.00    +0.009 C 
ATOM     30  C   UNL     1       0.002  -0.004   0.002  0.00  0.00    +0.032 C 
ENDBRANCH  23  30
ENDBRANCH   1  26
BRANCH   6  31
ATOM     31  C   UNL     1       8.465  -1.166   3.856  0.00  0.00    -0.075 C 
ATOM     32  C   UNL     1       9.207  -0.013   4.535  0.00  0.00    -0.014 C 
ATOM     33  C   UNL     1       9.473  -2.219   3.392  0.00  0.00    -0.014 C 
ENDBRANCH   6  31
TORSDOF 5
