REMARK  Name = ZINC02794141
REMARK  9 active torsions:
REMARK  status: ('A' for Active; 'I' for Inactive)
REMARK    1  A    between atoms: C_1  and  C_2
REMARK    2  A    between atoms: C_2  and  N_3
REMARK    3  A    between atoms: C_5  and  C_9
REMARK    4  A    between atoms: C_6  and  C_8
REMARK    5  A    between atoms: C_9  and  C_11
REMARK    6  A    between atoms: C_9  and  N_12
REMARK    7  A    between atoms: C_13  and  C_15
REMARK    8  A    between atoms: C_19  and  C_28
REMARK    9  A    between atoms: C_21  and  C_24
REMARK                            x       y       z     vdW  Elec       q    Type
REMARK                         _______ _______ _______ _____ _____    ______ ____
ROOT
ATOM      1  C   UNL     1       0.761   9.632   0.044  0.00  0.00    +0.168 A 
ATOM      2  C   UNL     1      -0.198   8.612   0.048  0.00  0.00    +0.117 A 
ATOM      3  C   UNL     1       0.478   7.400   0.036  0.00  0.00    +0.176 A 
ATOM      4  N   UNL     1       0.051   6.131   0.028  0.00  0.00    -0.226 NA
ATOM      5  C   UNL     1       0.913   5.128   0.020  0.00  0.00    +0.082 A 
ATOM      6  C   UNL     1       2.305   5.390   0.008  0.00  0.00    +0.061 A 
ATOM      7  C   UNL     1       2.738   6.668   0.010  0.00  0.00    +0.149 A 
ATOM      8  N   UNL     1       1.821   7.687   0.024  0.00  0.00    -0.208 N 
ATOM      9  N   UNL     1       1.964   9.079   0.029  0.00  0.00    -0.158 NA
ATOM     10 CL   UNL     1      -1.921   8.825   0.065  0.00  0.00    -0.077 Cl
ENDROOT
BRANCH   5  11
ATOM     11  C   UNL     1       0.425   3.737   0.018  0.00  0.00    +0.038 A 
ATOM     12  C   UNL     1      -0.867   3.274   0.028  0.00  0.00    +0.017 A 
ATOM     13  C   UNL     1      -1.081   1.916   0.017  0.00  0.00    +0.008 A 
ATOM     14  C   UNL     1      -0.013   1.076   0.008  0.00  0.00    +0.046 A 
ATOM     15  S   UNL     1       1.361   2.217   0.001  0.00  0.00    -0.095 S 
ENDBRANCH   5  11
BRANCH   1  17
ATOM     16  N   UNL     1       1.494  11.967   0.048  0.00  0.00    -0.303 N 
ATOM     17  C   UNL     1       0.478  11.082   0.054  0.00  0.00    +0.266 C 
ATOM     18  O   UNL     1      -0.672  11.477   0.067  0.00  0.00    -0.268 OA
ATOM     19  H   UNL     1       2.412  11.652   0.038  0.00  0.00    +0.150 HD
BRANCH  16  20
ATOM     20  C   UNL     1       1.214  13.405   0.058  0.00  0.00    +0.104 C 
ATOM     21  C   UNL     1       0.979  13.889  -1.375  0.00  0.00    +0.033 C 
BRANCH  20  24
ATOM     22  N   UNL     1       4.410  14.653   1.291  0.00  0.00    -0.271 N 
ATOM     23  C   UNL     1       3.668  13.707   0.679  0.00  0.00    +0.114 A 
ATOM     24  C   UNL     1       2.387  14.142   0.651  0.00  0.00    +0.013 A 
ATOM     25  C   UNL     1       2.344  15.393   1.274  0.00  0.00    +0.065 A 
ATOM     26  N   UNL     1       3.556  15.701   1.658  0.00  0.00    -0.176 NA
ATOM     27  C   UNL     1       1.113  16.241   1.469  0.00  0.00    +0.068 C 
BRANCH  22  29
ATOM     28  C   UNL     1       6.522  15.839   0.946  0.00  0.00    +0.029 C 
ATOM     29  C   UNL     1       5.854  14.594   1.533  0.00  0.00    +0.140 C 
ENDBRANCH  22  29
ENDBRANCH  20  24
ENDBRANCH  16  20
ENDBRANCH   1  17
BRANCH   7  30
ATOM     30  C   UNL     1       4.214   6.973  -0.002  0.00  0.00    +0.434 C 
ATOM     31  F   UNL     1       4.935   5.781  -0.130  0.00  0.00    -0.164 F 
ATOM     32  F   UNL     1       4.508   7.813  -1.081  0.00  0.00    -0.164 F 
ATOM     33  F   UNL     1       4.569   7.607   1.193  0.00  0.00    -0.164 F 
ENDBRANCH   7  30
TORSDOF 6
