REMARK  Name = ZINC39549802
REMARK  13 active torsions:
REMARK  status: ('A' for Active; 'I' for Inactive)
REMARK    1  A    between atoms: C_1  and  C_2
REMARK    2  A    between atoms: C_4  and  C_38
REMARK    3  A    between atoms: C_5  and  C_9
REMARK    4  A    between atoms: C_7  and  C_8
REMARK    5  A    between atoms: C_11  and  N_20
REMARK    6  A    between atoms: N_12  and  C_14
REMARK    7  A    between atoms: C_21  and  C_23
REMARK    8  A    between atoms: C_23  and  O_24
REMARK    9  A    between atoms: O_24  and  C_25
REMARK   10  A    between atoms: C_25  and  C_27
REMARK   11  A    between atoms: C_27  and  C_29
REMARK   12  A    between atoms: C_27  and  N_30
REMARK   13  A    between atoms: C_31  and  C_33
REMARK                            x       y       z     vdW  Elec       q    Type
REMARK                         _______ _______ _______ _____ _____    ______ ____
ROOT
ATOM      1  C   UNL     1       0.061  -4.256  -0.021  0.00  0.00    +0.095 A 
ATOM      2  C   UNL     1       0.072  -5.088   1.114  0.00  0.00    +0.074 A 
ATOM      3  C   UNL     1       0.089  -6.377   0.685  0.00  0.00    +0.129 A 
ATOM      4  N   UNL     1       0.089  -6.359  -0.676  0.00  0.00    -0.218 N 
ATOM      5  N   UNL     1       0.065  -5.022  -1.092  0.00  0.00    -0.165 NA
ENDROOT
BRANCH   1  10
ATOM      6  C   UNL     1      -0.018   1.503   0.010  0.00  0.00    +0.044 C 
ATOM      7  C   UNL     1       0.002  -0.004   0.002  0.00  0.00    -0.047 A 
ATOM      8  C   UNL     1       0.006  -0.687  -1.201  0.00  0.00    +0.007 A 
ATOM      9  C   UNL     1       0.025  -2.066  -1.215  0.00  0.00    -0.041 A 
ATOM     10  C   UNL     1       0.041  -2.772  -0.013  0.00  0.00    +0.005 A 
ATOM     11  C   UNL     1       0.037  -2.080   1.196  0.00  0.00    +0.014 A 
ATOM     12  C   UNL     1       0.023  -0.699   1.197  0.00  0.00    -0.047 A 
ATOM     13  C   UNL     1       0.025   0.051   2.504  0.00  0.00    +0.044 C 
ATOM     14  C   UNL     1       0.028  -2.808  -2.526  0.00  0.00    +0.044 C 
ENDBRANCH   1  10
BRANCH   4  15
ATOM     15  C   UNL     1       0.104  -7.482  -1.514  0.00  0.00    +0.067 A 
ATOM     16  C   UNL     1       0.804  -8.621  -1.139  0.00  0.00    +0.028 A 
ATOM     17  C   UNL     1       0.817  -9.726  -1.967  0.00  0.00    +0.002 A 
ATOM     18  C   UNL     1       0.134  -9.700  -3.169  0.00  0.00    +0.000 A 
ATOM     19  C   UNL     1      -0.564  -8.567  -3.546  0.00  0.00    +0.002 A 
ATOM     20  C   UNL     1      -0.586  -7.460  -2.719  0.00  0.00    +0.028 A 
ENDBRANCH   4  15
BRANCH   3  21
ATOM     21  N   UNL     1       0.105  -7.513   1.494  0.00  0.00    -0.267 N 
ATOM     22  C   UNL     1       0.103  -7.385   2.836  0.00  0.00    +0.256 C 
ATOM     23  O   UNL     1       0.087  -6.282   3.340  0.00  0.00    -0.272 OA
ATOM     24  H   UNL     1       0.117  -8.395   1.091  0.00  0.00    +0.156 HD
BRANCH  22  25
ATOM     25  C   UNL     1       0.120  -8.613   3.709  0.00  0.00    +0.328 C 
BRANCH  25  26
ATOM     26  O   UNL     1       0.114  -8.220   5.083  0.00  0.00    -0.454 OA
BRANCH  26  27
ATOM     27  C   UNL     1       0.127  -9.202   5.998  0.00  0.00    +0.328 C 
ATOM     28  O   UNL     1       0.143 -10.357   5.644  0.00  0.00    -0.249 OA
BRANCH  27  29
ATOM     29  C   UNL     1       0.122  -8.864   7.466  0.00  0.00    +0.179 C 
ATOM     30  C   UNL     1       1.360  -8.030   7.802  0.00  0.00    +0.040 C 
BRANCH  29  31
ATOM     31  N   UNL     1       0.139 -10.101   8.252  0.00  0.00    -0.296 N 
ATOM     32  C   UNL     1      -0.354 -10.109   9.506  0.00  0.00    +0.280 C 
ATOM     33  O   UNL     1      -0.814  -9.089   9.986  0.00  0.00    -0.267 OA
ATOM     34  H   UNL     1       0.505 -10.913   7.870  0.00  0.00    +0.150 HD
BRANCH  32  35
ATOM     35  C   UNL     1      -0.338 -11.347  10.293  0.00  0.00    +0.189 A 
ATOM     36  C   UNL     1      -0.808 -11.495  11.566  0.00  0.00    +0.054 A 
ATOM     37  C   UNL     1      -0.592 -12.835  11.923  0.00  0.00    +0.042 A 
ATOM     38  C   UNL     1      -0.007 -13.439  10.865  0.00  0.00    +0.196 A 
ATOM     39  O   UNL     1       0.140 -12.540   9.883  0.00  0.00    -0.458 OA
ENDBRANCH  32  35
ENDBRANCH  29  31
ENDBRANCH  27  29
ENDBRANCH  26  27
ENDBRANCH  25  26
ENDBRANCH  22  25
ENDBRANCH   3  21
TORSDOF 9
