REMARK  Name = ZINC46772903
REMARK  7 active torsions:
REMARK  status: ('A' for Active; 'I' for Inactive)
REMARK    1  A    between atoms: C_3  and  S_8
REMARK    2  A    between atoms: S_8  and  C_9
REMARK    3  A    between atoms: C_9  and  C_10
REMARK    4  A    between atoms: N_12  and  N_13
REMARK    5  A    between atoms: N_13  and  C_14
REMARK    6  A    between atoms: C_14  and  N_16
REMARK    7  A    between atoms: N_16  and  C_17
REMARK                            x       y       z     vdW  Elec       q    Type
REMARK                         _______ _______ _______ _____ _____    ______ ____
ROOT
ATOM      1  N   UNL     1       8.860   1.459  -0.308  0.00  0.00    -0.246 N 
ATOM      2  H   UNL     1       8.912   2.412  -0.482  0.00  0.00    +0.172 HD
ENDROOT
BRANCH   1   5
ATOM      3  C   UNL     1       6.505   1.618   0.006  0.00  0.00    +0.239 C 
ATOM      4  O   UNL     1       6.570   2.809  -0.211  0.00  0.00    -0.273 OA
ATOM      5  N   UNL     1       7.623   0.865  -0.024  0.00  0.00    -0.234 N 
ATOM      6  H   UNL     1       7.571  -0.088   0.150  0.00  0.00    +0.173 HD
BRANCH   3   7
ATOM      7  C   UNL     1       5.175   0.979   0.311  0.00  0.00    +0.171 C 
BRANCH   7   8
ATOM      8  S   UNL     1       3.875   2.244   0.279  0.00  0.00    -0.116 S 
BRANCH   8  11
ATOM      9  C   UNL     1       0.030   1.312   1.000  0.00  0.00    +0.039 A 
ATOM     10  C   UNL     1       1.183   2.014   0.710  0.00  0.00    +0.017 A 
ATOM     11  C   UNL     1       2.402   1.350   0.649  0.00  0.00    +0.009 A 
ATOM     12  C   UNL     1       2.458  -0.018   0.880  0.00  0.00    +0.017 A 
ATOM     13  C   UNL     1       1.302  -0.716   1.170  0.00  0.00    +0.039 A 
ATOM     14  C   UNL     1       0.088  -0.053   1.230  0.00  0.00    +0.123 A 
ATOM     15  F   UNL     1      -1.042  -0.738   1.514  0.00  0.00    -0.205 F 
ENDBRANCH   8  11
ENDBRANCH   7   8
ENDBRANCH   3   7
ENDBRANCH   1   5
BRANCH   1  16
ATOM     16  C   UNL     1       9.978   0.707  -0.339  0.00  0.00    +0.151 C 
ATOM     17  S   UNL     1      11.489   1.433  -0.685  0.00  0.00    -0.017 S 
BRANCH  16  18
ATOM     18  N   UNL     1       9.906  -0.617  -0.096  0.00  0.00    -0.295 N 
ATOM     19  H   UNL     1       9.061  -1.018   0.162  0.00  0.00    +0.154 HD
BRANCH  18  20
ATOM     20  C   UNL     1      11.050  -1.414  -0.217  0.00  0.00    +0.051 A 
ATOM     21  C   UNL     1      12.244  -1.009   0.365  0.00  0.00    +0.026 A 
ATOM     22  C   UNL     1      13.372  -1.798   0.244  0.00  0.00    +0.022 A 
ATOM     23  C   UNL     1      13.313  -2.990  -0.455  0.00  0.00    +0.042 A 
ATOM     24  C   UNL     1      12.126  -3.397  -1.036  0.00  0.00    +0.041 A 
ATOM     25  C   UNL     1      10.992  -2.615  -0.914  0.00  0.00    +0.063 A 
ATOM     26 CL   UNL     1       9.500  -3.128  -1.637  0.00  0.00    -0.082 Cl
ATOM     27 CL   UNL     1      14.733  -3.978  -0.604  0.00  0.00    -0.083 Cl
ENDBRANCH  18  20
ENDBRANCH  16  18
ENDBRANCH   1  16
TORSDOF 7
