REMARK  Name = ZINC57335639
REMARK  11 active torsions:
REMARK  status: ('A' for Active; 'I' for Inactive)
REMARK    1  A    between atoms: C_1  and  C_2
REMARK    2  A    between atoms: C_2  and  C_3
REMARK    3  A    between atoms: C_2  and  C_4
REMARK    4  A    between atoms: C_2  and  C_5
REMARK    5  A    between atoms: C_12  and  N_16
REMARK    6  A    between atoms: C_13  and  C_14
REMARK    7  A    between atoms: C_17  and  C_19
REMARK    8  A    between atoms: C_19  and  C_20
REMARK    9  A    between atoms: C_19  and  C_21
REMARK   10  A    between atoms: C_19  and  O_22
REMARK   11  A    between atoms: O_22  and  C_23
REMARK                            x       y       z     vdW  Elec       q    Type
REMARK                         _______ _______ _______ _____ _____    ______ ____
ROOT
ATOM      1  C   UNL     1      -0.275  -0.816  -3.438  0.00  0.00    -0.000 C 
ATOM      2  C   UNL     1      -0.666  -0.147  -4.759  0.00  0.00    +0.009 C 
ATOM      3  C   UNL     1       0.200  -0.693  -5.896  0.00  0.00    +0.037 C 
ATOM      4  C   UNL     1       1.663  -0.576  -5.494  0.00  0.00    -0.018 A 
ATOM      5  C   UNL     1       2.025  -0.408  -4.203  0.00  0.00    -0.004 A 
ATOM      6  S   UNL     1       3.792  -0.326  -4.240  0.00  0.00    -0.077 S 
ATOM      7  C   UNL     1       4.052  -0.507  -5.890  0.00  0.00    +0.090 A 
ATOM      8  C   UNL     1       2.779  -0.631  -6.421  0.00  0.00    +0.084 A 
ATOM      9  C   UNL     1       1.115  -0.317  -3.017  0.00  0.00    +0.047 C 
ENDROOT
BRANCH   1  11
ATOM     10  C   UNL     1      -1.331   1.063  -2.175  0.00  0.00    +0.011 C 
ATOM     11  C   UNL     1      -1.298  -0.455  -2.359  0.00  0.00    -0.035 C 
ATOM     12  C   UNL     1      -0.902  -1.120  -1.039  0.00  0.00    +0.011 C 
ATOM     13  C   UNL     1      -2.683  -0.948  -2.783  0.00  0.00    +0.011 C 
ENDBRANCH   1  11
BRANCH   7  14
ATOM     14  N   UNL     1       5.265  -0.527  -6.565  0.00  0.00    -0.276 N 
ATOM     15  C   UNL     1       6.419  -0.392  -5.882  0.00  0.00    +0.261 C 
ATOM     16  O   UNL     1       6.398  -0.252  -4.678  0.00  0.00    -0.271 OA
ATOM     17  H   UNL     1       5.281  -0.639  -7.528  0.00  0.00    +0.155 HD
BRANCH  15  18
ATOM     18  C   UNL     1       7.735  -0.414  -6.615  0.00  0.00    +0.180 C 
ATOM     19  C   UNL     1       7.891  -1.750  -7.343  0.00  0.00    +0.065 C 
ATOM     20  C   UNL     1       7.771   0.728  -7.633  0.00  0.00    +0.065 C 
BRANCH  18  21
ATOM     21  O   UNL     1       8.804  -0.253  -5.680  0.00  0.00    -0.477 OA
BRANCH  21  22
ATOM     22  C   UNL     1       8.825   0.900  -4.960  0.00  0.00    +0.122 A 
ATOM     23  C   UNL     1       7.772   1.798  -5.055  0.00  0.00    +0.047 A 
ATOM     24  C   UNL     1       7.796   2.969  -4.323  0.00  0.00    +0.019 A 
ATOM     25  C   UNL     1       8.869   3.247  -3.495  0.00  0.00    +0.018 A 
ATOM     26  C   UNL     1       9.921   2.353  -3.399  0.00  0.00    +0.019 A 
ATOM     27  C   UNL     1       9.898   1.178  -4.125  0.00  0.00    +0.047 A 
ATOM     28 BR   UNL     1       8.899   4.850  -2.493  0.00  0.00    -0.050 Br
ENDBRANCH  21  22
ENDBRANCH  18  21
ENDBRANCH  15  18
ENDBRANCH   7  14
BRANCH   8  29
ATOM     29  C   UNL     1       2.572  -0.806  -7.827  0.00  0.00    +0.102 C 
ATOM     30  N   UNL     1       2.408  -0.946  -8.943  0.00  0.00    -0.191 NA
ENDBRANCH   8  29
TORSDOF 6
