REMARK  Name = ZINC45852216
REMARK  6 active torsions:
REMARK  status: ('A' for Active; 'I' for Inactive)
REMARK    1  A    between atoms: C_1  and  C_2
REMARK    2  A    between atoms: C_3  and  C_8
REMARK    3  A    between atoms: C_5  and  C_7
REMARK    4  A    between atoms: C_11  and  S_13
REMARK    5  A    between atoms: S_13  and  C_14
REMARK    6  A    between atoms: C_14  and  C_15
REMARK                            x       y       z     vdW  Elec       q    Type
REMARK                         _______ _______ _______ _____ _____    ______ ____
ROOT
ATOM      1  C   UNL     1      -0.065   0.887  -8.826  0.00  0.00    +0.143 A 
ATOM      2  N   UNL     1       1.085   0.781  -9.469  0.00  0.00    -0.216 NA
ATOM      3  C   UNL     1       1.152   0.405 -10.736  0.00  0.00    +0.128 A 
ATOM      4  C   UNL     1      -0.051   0.103 -11.432  0.00  0.00    +0.051 A 
ATOM      5  C   UNL     1      -0.218  -0.329 -12.824  0.00  0.00    -0.025 A 
ATOM      6  C   UNL     1      -1.479  -0.546 -13.244  0.00  0.00    -0.004 A 
ATOM      7  S   UNL     1      -2.505  -0.206 -11.836  0.00  0.00    -0.073 S 
ATOM      8  C   UNL     1      -1.235   0.238 -10.682  0.00  0.00    +0.114 A 
ATOM      9  N   UNL     1      -1.212   0.616  -9.418  0.00  0.00    -0.224 NA
ATOM     10  C   UNL     1      -1.934  -0.971 -14.606  0.00  0.00    +0.043 C 
ATOM     11  C   UNL     1      -1.106  -2.179 -15.063  0.00  0.00    +0.005 C 
ATOM     12  C   UNL     1       0.128  -1.666 -15.799  0.00  0.00    +0.001 C 
ATOM     13  C   UNL     1       0.584  -0.340 -15.191  0.00  0.00    +0.005 C 
ATOM     14  C   UNL     1       0.990  -0.530 -13.735  0.00  0.00    +0.037 C 
ATOM     15  N   UNL     1       2.375   0.306 -11.374  0.00  0.00    -0.343 N 
ATOM     16  H   UNL     1       2.485  -0.305 -12.119  0.00  0.00    +0.144 HD
ATOM     17  H   UNL     1       3.123   0.848 -11.076  0.00  0.00    +0.144 HD
ENDROOT
BRANCH   1  18
ATOM     18  C   UNL     1      -0.065   1.321  -7.383  0.00  0.00    +0.155 C 
BRANCH  18  19
ATOM     19  S   UNL     1       0.068  -0.137  -6.313  0.00  0.00    -0.058 S 
BRANCH  19  23
ATOM     20  C   UNL     1       0.088   0.734  -2.531  0.00  0.00    +0.258 A 
ATOM     21  N   UNL     1      -0.013   1.922  -3.082  0.00  0.00    -0.106 NA
ATOM     22  N   UNL     1      -0.033   1.799  -4.362  0.00  0.00    -0.101 NA
ATOM     23  C   UNL     1       0.055   0.529  -4.681  0.00  0.00    +0.278 A 
ATOM     24  O   UNL     1       0.138  -0.172  -3.534  0.00  0.00    -0.410 OA
BRANCH  20  27
ATOM     25  C   UNL     1      -0.025   2.793  -0.202  0.00  0.00    +0.067 C 
ATOM     26  C   UNL     1       0.097   1.303  -0.018  0.00  0.00    +0.058 A 
ATOM     27  C   UNL     1       0.142   0.443  -1.090  0.00  0.00    +0.098 A 
ATOM     28  S   UNL     1       0.285  -1.124  -0.247  0.00  0.00    -0.067 S 
ATOM     29  C   UNL     1       0.273  -0.540   1.332  0.00  0.00    +0.076 A 
ATOM     30  N   UNL     1       0.171   0.757   1.175  0.00  0.00    -0.249 NA
ATOM     31  C   UNL     1       0.362  -1.322   2.617  0.00  0.00    +0.073 C 
ENDBRANCH  20  27
ENDBRANCH  19  23
ENDBRANCH  18  19
ENDBRANCH   1  18
TORSDOF 4
