REMARK  Name = ZINC14563302
REMARK  7 active torsions:
REMARK  status: ('A' for Active; 'I' for Inactive)
REMARK    1  A    between atoms: C_1  and  C_2
REMARK    2  A    between atoms: C_7  and  C_8
REMARK    3  A    between atoms: C_8  and  C_9
REMARK    4  A    between atoms: N_11  and  C_12
REMARK    5  A    between atoms: C_12  and  N_14
REMARK    6  A    between atoms: N_14  and  N_15
REMARK    7  A    between atoms: C_16  and  C_18
REMARK                            x       y       z     vdW  Elec       q    Type
REMARK                         _______ _______ _______ _____ _____    ______ ____
ROOT
ATOM      1  C   UNL     1      -2.295  -2.784   0.009  0.00  0.00    +0.153 C 
ATOM      2  S   UNL     1      -2.272  -4.496  -0.000  0.00  0.00    -0.017 S 
ENDROOT
BRANCH   1   5
ATOM      3  C   UNL     1      -4.629  -2.816   0.031  0.00  0.00    +0.223 C 
ATOM      4  O   UNL     1      -4.612  -4.028   0.025  0.00  0.00    -0.275 OA
ATOM      5  N   UNL     1      -3.471  -2.126   0.024  0.00  0.00    -0.266 N 
ATOM      6  H   UNL     1      -3.484  -1.157   0.029  0.00  0.00    +0.157 HD
BRANCH   3   7
ATOM      7  C   UNL     1      -5.944  -2.080   0.048  0.00  0.00    +0.131 C 
BRANCH   7  14
ATOM      8  C   UNL     1      -6.861  -3.211   2.543  0.00  0.00    +0.044 C 
ATOM      9  C   UNL     1      -7.515  -3.616   1.247  0.00  0.00    -0.047 A 
ATOM     10  C   UNL     1      -8.554  -4.529   1.252  0.00  0.00    +0.003 A 
ATOM     11  C   UNL     1      -9.153  -4.900   0.063  0.00  0.00    +0.000 A 
ATOM     12  C   UNL     1      -8.714  -4.359  -1.131  0.00  0.00    +0.000 A 
ATOM     13  C   UNL     1      -7.679  -3.442  -1.135  0.00  0.00    +0.004 A 
ATOM     14  C   UNL     1      -7.076  -3.075   0.053  0.00  0.00    -0.036 A 
ENDBRANCH   7  14
ENDBRANCH   3   7
ENDBRANCH   1   5
BRANCH   1  15
ATOM     15  N   UNL     1      -1.137  -2.095   0.002  0.00  0.00    -0.245 N 
ATOM     16  H   UNL     1      -0.290  -2.568  -0.009  0.00  0.00    +0.172 HD
BRANCH  15  17
ATOM     17  N   UNL     1      -1.156  -0.694   0.009  0.00  0.00    -0.231 N 
ATOM     18  C   UNL     1       0.002  -0.004   0.002  0.00  0.00    +0.260 C 
ATOM     19  O   UNL     1       1.063  -0.597  -0.011  0.00  0.00    -0.269 OA
ATOM     20  H   UNL     1      -2.002  -0.220   0.020  0.00  0.00    +0.173 HD
BRANCH  18  21
ATOM     21  C   UNL     1      -0.018   1.474   0.010  0.00  0.00    +0.038 A 
ATOM     22  C   UNL     1      -1.234   2.159   0.020  0.00  0.00    +0.013 A 
ATOM     23  C   UNL     1      -1.246   3.538   0.033  0.00  0.00    +0.001 A 
ATOM     24  C   UNL     1      -0.056   4.243   0.025  0.00  0.00    +0.000 A 
ATOM     25  C   UNL     1       1.154   3.571   0.010  0.00  0.00    +0.001 A 
ATOM     26  C   UNL     1       1.179   2.192   0.003  0.00  0.00    +0.013 A 
ENDBRANCH  18  21
ENDBRANCH  15  17
ENDBRANCH   1  15
TORSDOF 6
