REMARK  Name = ZINC06046016
REMARK  6 active torsions:
REMARK  status: ('A' for Active; 'I' for Inactive)
REMARK    1  A    between atoms: C_1  and  C_2
REMARK    2  A    between atoms: C_2  and  C_3
REMARK    3  A    between atoms: C_3  and  C_4
REMARK    4  A    between atoms: C_11  and  N_16
REMARK    5  A    between atoms: C_12  and  C_13
REMARK    6  A    between atoms: N_19  and  C_20
REMARK                            x       y       z     vdW  Elec       q    Type
REMARK                         _______ _______ _______ _____ _____    ______ ____
ROOT
ATOM      1  C   UNL     1       5.484   4.206  -0.406  0.00  0.00    -0.006 C 
ATOM      2  C   UNL     1       5.865   2.967   0.410  0.00  0.00    +0.008 C 
ATOM      3  C   UNL     1       5.038   1.766  -0.050  0.00  0.00    +0.037 C 
ATOM      4  C   UNL     1       3.563   2.148  -0.028  0.00  0.00    -0.023 A 
ATOM      5  C   UNL     1       3.180   3.443  -0.007  0.00  0.00    -0.004 A 
ATOM      6  S   UNL     1       1.411   3.392   0.015  0.00  0.00    -0.077 S 
ATOM      7  C   UNL     1       1.180   1.675  -0.004  0.00  0.00    +0.086 A 
ATOM      8  C   UNL     1       2.477   1.182  -0.021  0.00  0.00    +0.068 A 
ATOM      9  C   UNL     1       4.070   4.648  -0.004  0.00  0.00    +0.046 C 
ENDROOT
BRANCH   7  10
ATOM     10  N   UNL     1      -0.011   0.966   0.002  0.00  0.00    -0.263 N 
ATOM     11  C   UNL     1      -1.187   1.624   0.018  0.00  0.00    +0.308 C 
ATOM     12  O   UNL     1      -1.204   2.839   0.034  0.00  0.00    -0.252 OA
ATOM     13  N   UNL     1      -2.345   0.934   0.018  0.00  0.00    -0.269 N 
ATOM     14  H   UNL     1       0.004  -0.134  -0.008  0.00  0.00    +0.157 HD
ATOM     15  H   UNL     1      -2.333  -0.162  -0.072  0.00  0.00    +0.156 HD
BRANCH  13  16
ATOM     16  C   UNL     1      -3.564   1.613   0.133  0.00  0.00    +0.035 A 
ATOM     17  C   UNL     1      -4.619   1.035   0.827  0.00  0.00    +0.023 A 
ATOM     18  C   UNL     1      -5.818   1.710   0.943  0.00  0.00    +0.002 A 
ATOM     19  C   UNL     1      -5.973   2.954   0.361  0.00  0.00    +0.000 A 
ATOM     20  C   UNL     1      -4.925   3.530  -0.335  0.00  0.00    +0.002 A 
ATOM     21  C   UNL     1      -3.722   2.863  -0.450  0.00  0.00    +0.023 A 
ENDBRANCH  13  16
ENDBRANCH   7  10
BRANCH   8  22
ATOM     22  C   UNL     1       2.743  -0.260  -0.035  0.00  0.00    +0.244 C 
ATOM     23  O   UNL     1       2.843  -0.850  -1.094  0.00  0.00    -0.270 OA
ATOM     24  N   UNL     1       2.875  -0.932   1.126  0.00  0.00    -0.325 N 
ATOM     25  H   UNL     1       3.074  -2.014   1.116  0.00  0.00    +0.145 HD
ATOM     26  H   UNL     1       2.784  -0.399   2.084  0.00  0.00    +0.145 HD
ENDBRANCH   8  22
BRANCH   1  27
ATOM     27  C   UNL     1       6.476   5.335  -0.119  0.00  0.00    +0.003 C 
BRANCH  27  29
ATOM     28  C   UNL     1       7.161   7.656  -0.739  0.00  0.00    +0.004 C 
ATOM     29  C   UNL     1       6.169   6.527  -1.027  0.00  0.00    -0.003 C 
ENDBRANCH  27  29
ENDBRANCH   1  27
TORSDOF 5
