REMARK  Name = ZINC65010139
REMARK  8 active torsions:
REMARK  status: ('A' for Active; 'I' for Inactive)
REMARK    1  A    between atoms: C_1  and  C_2
REMARK    2  A    between atoms: C_9  and  C_12
REMARK    3  A    between atoms: C_10  and  C_11
REMARK    4  A    between atoms: C_14  and  C_17
REMARK    5  A    between atoms: N_19  and  C_20
REMARK    6  A    between atoms: C_20  and  C_21
REMARK    7  A    between atoms: C_21  and  C_22
REMARK    8  A    between atoms: C_23  and  C_27
REMARK                            x       y       z     vdW  Elec       q    Type
REMARK                         _______ _______ _______ _____ _____    ______ ____
ROOT
ATOM      1  C   UNL     1       0.066  -1.347   4.786  0.00  0.00    +0.238 A 
ATOM      2  N   UNL     1       0.052  -0.227   5.528  0.00  0.00    -0.180 NA
ATOM      3  C   UNL     1       0.071  -0.533   6.800  0.00  0.00    +0.314 A 
ATOM      4  O   UNL     1       0.097  -1.872   6.914  0.00  0.00    -0.328 OA
ATOM      5  N   UNL     1       0.088  -2.386   5.590  0.00  0.00    -0.052 NA
ENDROOT
BRANCH   1  14
ATOM      6  C   UNL     1      -0.018   1.503   0.010  0.00  0.00    +0.047 C 
ATOM      7  C   UNL     1       0.002  -0.004   0.002  0.00  0.00    -0.008 A 
ATOM      8  C   UNL     1       0.006  -0.689  -1.195  0.00  0.00    +0.007 A 
ATOM      9  C   UNL     1       0.025  -2.076  -1.218  0.00  0.00    +0.001 A 
ATOM     10  C   UNL     1       0.041  -2.787  -0.051  0.00  0.00    +0.012 A 
ATOM     11  C   UNL     1       0.037  -2.113   1.171  0.00  0.00    +0.024 A 
ATOM     12  C   UNL     1       0.023  -0.707   1.200  0.00  0.00    +0.139 A 
ATOM     13  O   UNL     1       0.030  -0.328   2.494  0.00  0.00    -0.451 OA
ATOM     14  C   UNL     1       0.052  -1.402   3.309  0.00  0.00    +0.179 A 
ATOM     15  C   UNL     1       0.050  -2.538   2.572  0.00  0.00    +0.006 A 
ATOM     16  C   UNL     1       0.073  -3.953   3.090  0.00  0.00    +0.048 C 
ENDBRANCH   1  14
BRANCH   3  17
ATOM     17  C   UNL     1       0.064   0.434   7.925  0.00  0.00    +0.302 C 
ATOM     18  O   UNL     1       0.039   1.627   7.700  0.00  0.00    -0.265 OA
ATOM     19  N   UNL     1       0.085  -0.012   9.197  0.00  0.00    -0.307 N 
ATOM     20  H   UNL     1       0.105  -0.965   9.376  0.00  0.00    +0.149 HD
BRANCH  19  21
ATOM     21  C   UNL     1       0.078   0.943  10.308  0.00  0.00    +0.110 C 
BRANCH  21  22
ATOM     22  C   UNL     1       0.105   0.182  11.634  0.00  0.00    +0.061 C 
BRANCH  22  23
ATOM     23  C   UNL     1       0.098   1.164  12.777  0.00  0.00    -0.006 A 
ATOM     24  C   UNL     1      -0.958   1.696  13.439  0.00  0.00    -0.040 A 
ATOM     25  C   UNL     1      -0.724   2.588  14.469  0.00  0.00    +0.011 A 
ATOM     26  C   UNL     1       0.555   2.904  14.786  0.00  0.00    +0.046 A 
ATOM     27  S   UNL     1       1.479   1.922  13.617  0.00  0.00    -0.101 S 
ATOM     28  C   UNL     1      -2.367   1.321  13.057  0.00  0.00    +0.044 C 
ENDBRANCH  22  23
ENDBRANCH  21  22
ENDBRANCH  19  21
ENDBRANCH   3  17
TORSDOF 5
