REMARK  Name = ZINC66570642
REMARK  7 active torsions:
REMARK  status: ('A' for Active; 'I' for Inactive)
REMARK    1  A    between atoms: C_1  and  C_2
REMARK    2  A    between atoms: C_2  and  C_3
REMARK    3  A    between atoms: C_2  and  C_4
REMARK    4  A    between atoms: C_2  and  C_11
REMARK    5  A    between atoms: N_13  and  N_14
REMARK    6  A    between atoms: C_15  and  C_17
REMARK    7  A    between atoms: C_17  and  C_18
REMARK                            x       y       z     vdW  Elec       q    Type
REMARK                         _______ _______ _______ _____ _____    ______ ____
ROOT
ATOM      1  C   UNL     1       0.454  -0.531  -1.336  0.00  0.00    +0.239 C 
ATOM      2  O   UNL     1      -0.342  -1.073  -2.074  0.00  0.00    -0.273 OA
ATOM      3  N   UNL     1       1.741  -0.401  -1.712  0.00  0.00    -0.234 N 
ATOM      4  H   UNL     1       2.377   0.032  -1.121  0.00  0.00    +0.173 HD
ENDROOT
BRANCH   3   5
ATOM      5  N   UNL     1       2.161  -0.891  -2.955  0.00  0.00    -0.234 N 
ATOM      6  C   UNL     1       3.449  -0.761  -3.331  0.00  0.00    +0.229 C 
ATOM      7  O   UNL     1       4.244  -0.220  -2.593  0.00  0.00    -0.274 OA
ATOM      8  H   UNL     1       1.525  -1.325  -3.545  0.00  0.00    +0.173 HD
BRANCH   6   9
ATOM      9  C   UNL     1       3.900  -1.288  -4.669  0.00  0.00    +0.101 C 
BRANCH   9  10
ATOM     10  C   UNL     1       5.395  -1.014  -4.847  0.00  0.00    -0.002 C 
ATOM     11  C   UNL     1       6.187  -1.812  -3.809  0.00  0.00    +0.004 C 
ATOM     12  C   UNL     1       7.681  -1.538  -3.987  0.00  0.00    +0.000 C 
ATOM     13  C   UNL     1       8.113  -1.960  -5.393  0.00  0.00    +0.000 C 
ATOM     14  C   UNL     1       7.321  -1.163  -6.431  0.00  0.00    +0.000 C 
ATOM     15  C   UNL     1       5.827  -1.437  -6.253  0.00  0.00    +0.004 C 
ENDBRANCH   9  10
ENDBRANCH   6   9
ENDBRANCH   3   5
BRANCH   1  17
ATOM     16  C   UNL     1       0.381   1.474   0.122  0.00  0.00    +0.026 C 
ATOM     17  C   UNL     1       0.002  -0.004   0.002  0.00  0.00    +0.070 C 
ATOM     18  C   UNL     1       0.683  -0.797   1.119  0.00  0.00    +0.026 C 
BRANCH  17  19
ATOM     19  C   UNL     1      -1.493  -0.151   0.121  0.00  0.00    +0.002 A 
ATOM     20  C   UNL     1      -2.033  -0.933   1.124  0.00  0.00    +0.007 A 
ATOM     21  C   UNL     1      -3.405  -1.068   1.234  0.00  0.00    +0.000 A 
ATOM     22  C   UNL     1      -4.237  -0.420   0.340  0.00  0.00    +0.003 A 
ATOM     23  C   UNL     1      -3.700   0.363  -0.663  0.00  0.00    +0.038 A 
ATOM     24  C   UNL     1      -2.326   0.503  -0.770  0.00  0.00    +0.128 A 
ATOM     25  F   UNL     1      -1.800   1.272  -1.748  0.00  0.00    -0.205 F 
ENDBRANCH  17  19
ENDBRANCH   1  17
TORSDOF 5
