REMARK  Name = ZINC62534977
REMARK  2 active torsions:
REMARK  status: ('A' for Active; 'I' for Inactive)
REMARK    1  A    between atoms: C_1  and  N_2
REMARK    2  A    between atoms: C_6  and  N_14
REMARK                            x       y       z     vdW  Elec       q    Type
REMARK                         _______ _______ _______ _____ _____    ______ ____
ROOT
ATOM      1  C   UNL     1      -0.018   1.461   0.010  0.00  0.00    +0.138 C 
ATOM      2  N   UNL     1       0.002  -0.004   0.002  0.00  0.00    -0.267 N 
ATOM      3  C   UNL     1      -1.194  -0.735   0.109  0.00  0.00    +0.098 A 
ATOM      4  C   UNL     1      -2.418  -0.119  -0.096  0.00  0.00    +0.068 A 
ATOM      5  C   UNL     1      -3.586  -0.853   0.014  0.00  0.00    +0.046 A 
ATOM      6  C   UNL     1      -3.532  -2.204   0.330  0.00  0.00    +0.048 A 
ATOM      7  C   UNL     1      -2.305  -2.824   0.535  0.00  0.00    +0.105 A 
ATOM      8  C   UNL     1      -1.137  -2.091   0.425  0.00  0.00    +0.164 A 
ATOM      9  O   UNL     1       0.073  -2.682   0.621  0.00  0.00    -0.479 OA
ATOM     10  C   UNL     1       1.166  -2.181  -0.153  0.00  0.00    +0.325 C 
ATOM     11  C   UNL     1       1.169  -0.674  -0.114  0.00  0.00    +0.257 C 
ATOM     12  O   UNL     1       2.217  -0.065  -0.183  0.00  0.00    -0.272 OA
ATOM     13 CL   UNL     1      -2.239  -4.513   0.929  0.00  0.00    -0.078 Cl
ATOM     14 CL   UNL     1      -2.488   1.570  -0.491  0.00  0.00    -0.081 Cl
ENDROOT
BRANCH   6  15
ATOM     15  N   UNL     1      -4.715  -2.943   0.441  0.00  0.00    -0.357 N 
ATOM     16  H   UNL     1      -5.572  -2.512   0.297  0.00  0.00    +0.142 HD
ATOM     17  H   UNL     1      -4.679  -3.887   0.661  0.00  0.00    +0.142 HD
ENDBRANCH   6  15
TORSDOF 1
