REMARK  Name = ZINC63625222
REMARK  4 active torsions:
REMARK  status: ('A' for Active; 'I' for Inactive)
REMARK    1  A    between atoms: C_1  and  C_2
REMARK    2  A    between atoms: C_7  and  N_8
REMARK    3  A    between atoms: N_11  and  C_12
REMARK    4  A    between atoms: C_15  and  C_18
REMARK                            x       y       z     vdW  Elec       q    Type
REMARK                         _______ _______ _______ _____ _____    ______ ____
ROOT
ATOM      1  C   UNL     1       0.240  -0.826   5.890  0.00  0.00    +0.035 A 
ATOM      2  C   UNL     1       0.262  -2.214   5.874  0.00  0.00    +0.024 A 
ATOM      3  C   UNL     1       0.279  -2.917   7.063  0.00  0.00    +0.008 A 
ATOM      4  C   UNL     1       0.274  -2.240   8.268  0.00  0.00    -0.021 A 
ATOM      5  C   UNL     1       0.252  -0.857   8.288  0.00  0.00    +0.008 A 
ATOM      6  C   UNL     1       0.241  -0.148   7.102  0.00  0.00    +0.024 A 
ENDROOT
BRANCH   4   7
ATOM      7  C   UNL     1       0.292  -3.010   9.564  0.00  0.00    +0.133 C 
ATOM      8  C   UNL     1       1.681  -2.992  10.161  0.00  0.00    +0.012 C 
ATOM      9  C   UNL     1       1.564  -2.385  11.364  0.00  0.00    -0.002 A 
ATOM     10  C   UNL     1       2.537  -2.066  12.416  0.00  0.00    +0.029 A 
ATOM     11  C   UNL     1       2.110  -1.438  13.536  0.00  0.00    +0.042 A 
ATOM     12  C   UNL     1       0.764  -1.087  13.717  0.00  0.00    +0.022 A 
ATOM     13  C   UNL     1      -0.187  -1.347  12.796  0.00  0.00    +0.027 A 
ATOM     14  C   UNL     1       0.150  -2.003  11.580  0.00  0.00    +0.043 A 
ATOM     15  N   UNL     1      -0.580  -2.361  10.550  0.00  0.00    -0.374 N 
ATOM     16 CL   UNL     1       3.258  -1.059  14.782  0.00  0.00    -0.084 Cl
ATOM     17  H   UNL     1      -1.535  -2.221  10.455  0.00  0.00    +0.161 HD
ENDBRANCH   4   7
BRANCH   1  21
ATOM     18  N   UNL     1       0.756   1.812   3.476  0.00  0.00    -0.269 N 
ATOM     19  C   UNL     1       0.858   1.075   4.599  0.00  0.00    +0.308 C 
ATOM     20  O   UNL     1       1.522   1.480   5.534  0.00  0.00    -0.252 OA
ATOM     21  N   UNL     1       0.224  -0.111   4.687  0.00  0.00    -0.269 N 
ATOM     22  H   UNL     1       0.174   1.522   2.756  0.00  0.00    +0.156 HD
ATOM     23  H   UNL     1      -0.244  -0.469   3.917  0.00  0.00    +0.156 HD
BRANCH  18  30
ATOM     24  C   UNL     1       1.676   2.547   0.886  0.00  0.00    +0.045 C 
ATOM     25  C   UNL     1       1.958   3.393   2.101  0.00  0.00    -0.029 A 
ATOM     26  C   UNL     1       2.677   4.566   1.975  0.00  0.00    +0.006 A 
ATOM     27  C   UNL     1       2.937   5.342   3.089  0.00  0.00    +0.020 A 
ATOM     28  C   UNL     1       2.477   4.947   4.334  0.00  0.00    +0.043 A 
ATOM     29  C   UNL     1       1.757   3.775   4.465  0.00  0.00    +0.043 A 
ATOM     30  C   UNL     1       1.490   2.996   3.347  0.00  0.00    +0.039 A 
ATOM     31 CL   UNL     1       2.805   5.925   5.730  0.00  0.00    -0.083 Cl
ENDBRANCH  18  30
ENDBRANCH   1  21
TORSDOF 3
