REMARK  Name = ZINC67293052
REMARK  5 active torsions:
REMARK  status: ('A' for Active; 'I' for Inactive)
REMARK    1  A    between atoms: C_1  and  C_2
REMARK    2  A    between atoms: C_7  and  N_8
REMARK    3  A    between atoms: C_10  and  C_20
REMARK    4  A    between atoms: N_22  and  C_23
REMARK    5  A    between atoms: C_23  and  C_24
REMARK                            x       y       z     vdW  Elec       q    Type
REMARK                         _______ _______ _______ _____ _____    ______ ____
ROOT
ATOM      1  N   UNL     1      -0.037  -0.007   2.390  0.00  0.00    -0.325 N 
ATOM      2  C   UNL     1      -0.101  -0.684   3.517  0.00  0.00    +0.212 A 
ATOM      3  C   UNL     1      -0.185   0.010   4.817  0.00  0.00    +0.097 A 
ATOM      4  C   UNL     1      -0.800  -0.672   5.859  0.00  0.00    +0.030 A 
ATOM      5  C   UNL     1      -1.311  -2.015   5.575  0.00  0.00    +0.020 A 
ATOM      6  C   UNL     1      -2.170  -2.659   6.474  0.00  0.00    +0.031 A 
ATOM      7  C   UNL     1      -2.638  -3.921   6.182  0.00  0.00    +0.042 A 
ATOM      8  C   UNL     1      -2.263  -4.554   5.004  0.00  0.00    +0.023 A 
ATOM      9  C   UNL     1      -1.415  -3.932   4.110  0.00  0.00    +0.048 A 
ATOM     10  C   UNL     1      -0.931  -2.662   4.384  0.00  0.00    +0.138 A 
ATOM     11  O   UNL     1      -0.098  -2.041   3.518  0.00  0.00    -0.439 OA
ATOM     12 CL   UNL     1      -3.703  -4.725   7.293  0.00  0.00    -0.084 Cl
ATOM     13  H   UNL     1      -0.033   0.962   2.407  0.00  0.00    +0.169 HD
ENDROOT
BRANCH   1  20
ATOM     14  C   UNL     1      -1.890   0.740   0.370  0.00  0.00    +0.046 C 
ATOM     15  C   UNL     1      -0.864  -0.345   0.167  0.00  0.00    -0.027 A 
ATOM     16  C   UNL     1      -0.794  -1.014  -1.037  0.00  0.00    +0.007 A 
ATOM     17  C   UNL     1       0.147  -2.011  -1.226  0.00  0.00    +0.020 A 
ATOM     18  C   UNL     1       1.026  -2.344  -0.208  0.00  0.00    +0.043 A 
ATOM     19  C   UNL     1       0.967  -1.682   1.002  0.00  0.00    +0.046 A 
ATOM     20  C   UNL     1       0.023  -0.671   1.196  0.00  0.00    +0.046 A 
ATOM     21 CL   UNL     1       2.202  -3.596  -0.454  0.00  0.00    -0.083 Cl
ENDBRANCH   1  20
BRANCH   3  22
ATOM     22  C   UNL     1       0.360   1.365   5.002  0.00  0.00    +0.249 C 
ATOM     23  O   UNL     1       0.838   1.963   4.056  0.00  0.00    -0.270 OA
ATOM     24  N   UNL     1       0.330   1.944   6.218  0.00  0.00    -0.309 N 
ATOM     25  H   UNL     1      -0.105   1.494   6.959  0.00  0.00    +0.149 HD
BRANCH  24  26
ATOM     26  C   UNL     1       0.955   3.253   6.423  0.00  0.00    +0.136 C 
BRANCH  26  27
ATOM     27  C   UNL     1       0.780   3.680   7.881  0.00  0.00    +0.135 C 
ATOM     28  C   UNL     1       1.404   5.080   8.111  0.00  0.00    +0.035 C 
ATOM     29  C   UNL     1       0.591   5.566   9.342  0.00  0.00    +0.031 C 
ATOM     30  C   UNL     1      -0.796   4.938   9.088  0.00  0.00    +0.160 C 
ATOM     31  O   UNL     1      -0.614   3.833   8.193  0.00  0.00    -0.375 OA
ENDBRANCH  26  27
ENDBRANCH  24  26
ENDBRANCH   3  22
TORSDOF 4
