REMARK  Name = ZINC06839646
REMARK  10 active torsions:
REMARK  status: ('A' for Active; 'I' for Inactive)
REMARK    1  A    between atoms: C_1  and  C_2
REMARK    2  A    between atoms: C_5  and  C_7
REMARK    3  A    between atoms: C_9  and  C_17
REMARK    4  A    between atoms: C_17  and  O_19
REMARK    5  A    between atoms: O_19  and  C_20
REMARK    6  A    between atoms: C_20  and  C_21
REMARK    7  A    between atoms: N_26  and  C_27
REMARK    8  A    between atoms: C_27  and  C_28
REMARK    9  A    between atoms: C_28  and  C_29
REMARK   10  A    between atoms: C_28  and  C_30
REMARK                            x       y       z     vdW  Elec       q    Type
REMARK                         _______ _______ _______ _____ _____    ______ ____
ROOT
ATOM      1  C   UNL     1      -3.646   2.592   3.122  0.00  0.00    +0.107 A 
ATOM      2  C   UNL     1      -4.753   2.509   2.260  0.00  0.00    +0.047 A 
ATOM      3  C   UNL     1      -6.008   2.866   2.728  0.00  0.00    +0.070 A 
ATOM      4  C   UNL     1      -6.105   3.316   4.118  0.00  0.00    +0.014 A 
ATOM      5  C   UNL     1      -7.329   3.696   4.679  0.00  0.00    +0.011 A 
ATOM      6  C   UNL     1      -7.375   4.109   5.978  0.00  0.00    +0.001 A 
ATOM      7  C   UNL     1      -6.219   4.157   6.753  0.00  0.00    +0.002 A 
ATOM      8  C   UNL     1      -5.013   3.794   6.239  0.00  0.00    +0.028 A 
ATOM      9  C   UNL     1      -4.925   3.363   4.902  0.00  0.00    +0.073 A 
ATOM     10  N   UNL     1      -3.757   2.996   4.373  0.00  0.00    -0.244 NA
ENDROOT
BRANCH   1  15
ATOM     11  C   UNL     1      -0.024   1.020   0.028  0.00  0.00    +0.086 C 
ATOM     12  C   UNL     1      -0.726   1.522   1.263  0.00  0.00    +0.103 A 
ATOM     13  C   UNL     1      -0.139   1.793   2.447  0.00  0.00    +0.045 A 
ATOM     14  C   UNL     1      -1.151   2.234   3.319  0.00  0.00    +0.052 A 
ATOM     15  C   UNL     1      -2.315   2.209   2.613  0.00  0.00    +0.153 A 
ATOM     16  O   UNL     1      -2.039   1.780   1.366  0.00  0.00    -0.458 OA
ENDBRANCH   1  15
BRANCH   3  17
ATOM     17  C   UNL     1      -7.202   2.794   1.859  0.00  0.00    +0.340 C 
ATOM     18  O   UNL     1      -8.303   3.013   2.321  0.00  0.00    -0.245 OA
BRANCH  17  19
ATOM     19  O   UNL     1      -7.067   2.486   0.554  0.00  0.00    -0.452 OA
BRANCH  19  20
ATOM     20  C   UNL     1      -8.282   2.433  -0.239  0.00  0.00    +0.328 C 
BRANCH  20  21
ATOM     21  C   UNL     1      -7.937   2.076  -1.662  0.00  0.00    +0.258 C 
ATOM     22  O   UNL     1      -6.782   1.885  -1.976  0.00  0.00    -0.272 OA
ATOM     23  N   UNL     1      -8.914   1.970  -2.586  0.00  0.00    -0.237 N 
ATOM     24  C   UNL     1      -8.605   1.651  -3.858  0.00  0.00    +0.306 C 
ATOM     25  O   UNL     1      -7.447   1.459  -4.173  0.00  0.00    -0.252 OA
ATOM     26  N   UNL     1      -9.581   1.544  -4.781  0.00  0.00    -0.299 N 
ATOM     27  H   UNL     1      -9.838   2.123  -2.334  0.00  0.00    +0.159 HD
ATOM     28  H   UNL     1     -10.506   1.697  -4.530  0.00  0.00    +0.150 HD
BRANCH  26  29
ATOM     29  C   UNL     1      -9.246   1.197  -6.165  0.00  0.00    +0.108 C 
BRANCH  29  30
ATOM     30  C   UNL     1     -10.527   1.142  -7.001  0.00  0.00    -0.000 C 
ATOM     31  C   UNL     1     -11.149   2.538  -7.073  0.00  0.00    +0.009 C 
ATOM     32  C   UNL     1     -10.192   0.659  -8.414  0.00  0.00    +0.009 C 
ENDBRANCH  29  30
ENDBRANCH  26  29
ENDBRANCH  20  21
ENDBRANCH  19  20
ENDBRANCH  17  19
ENDBRANCH   3  17
TORSDOF 7
