REMARK  Name = ZINC22381206
REMARK  12 active torsions:
REMARK  status: ('A' for Active; 'I' for Inactive)
REMARK    1  A    between atoms: C_1  and  N_2
REMARK    2  A    between atoms: N_2  and  C_3
REMARK    3  A    between atoms: N_2  and  C_4
REMARK    4  A    between atoms: C_4  and  C_6
REMARK    5  A    between atoms: C_4  and  C_30
REMARK    6  A    between atoms: C_6  and  N_7
REMARK    7  A    between atoms: C_8  and  C_10
REMARK    8  A    between atoms: C_14  and  S_16
REMARK    9  A    between atoms: S_16  and  N_19
REMARK   10  A    between atoms: N_19  and  C_20
REMARK   11  A    between atoms: N_19  and  C_23
REMARK   12  A    between atoms: C_20  and  C_21
REMARK                            x       y       z     vdW  Elec       q    Type
REMARK                         _______ _______ _______ _____ _____    ______ ____
ROOT
ATOM      1  C   UNL     1       6.826  -2.157   3.368  0.00  0.00    +0.039 A 
ATOM      2  C   UNL     1       5.946  -1.383   4.128  0.00  0.00    +0.014 A 
ATOM      3  C   UNL     1       4.957  -0.655   3.502  0.00  0.00    +0.023 A 
ATOM      4  C   UNL     1       4.838  -0.685   2.123  0.00  0.00    +0.068 A 
ATOM      5  C   UNL     1       5.704  -1.455   1.364  0.00  0.00    +0.128 A 
ATOM      6  C   UNL     1       6.698  -2.188   1.978  0.00  0.00    +0.043 A 
ATOM      7 CL   UNL     1       3.594   0.240   1.341  0.00  0.00    -0.082 Cl
ENDROOT
BRANCH   1   9
ATOM      8  N   UNL     1       8.011  -2.908   5.374  0.00  0.00    -0.312 N 
ATOM      9  C   UNL     1       7.889  -2.939   4.032  0.00  0.00    +0.244 C 
ATOM     10  O   UNL     1       8.655  -3.611   3.368  0.00  0.00    -0.270 OA
ATOM     11  H   UNL     1       7.319  -2.299   5.975  0.00  0.00    +0.149 HD
BRANCH   8  12
ATOM     12  C   UNL     1       9.065  -3.683   6.033  0.00  0.00    +0.097 C 
BRANCH  12  13
ATOM     13  C   UNL     1       8.906  -3.574   7.551  0.00  0.00    +0.016 C 
BRANCH  13  14
ATOM     14  C   UNL     1       9.933  -4.445   8.227  0.00  0.00    +0.093 A 
ATOM     15  C   UNL     1      11.004  -4.009   8.914  0.00  0.00    +0.043 A 
ATOM     16  C   UNL     1      11.689  -5.156   9.376  0.00  0.00    +0.041 A 
ATOM     17  C   UNL     1      11.001  -6.224   8.937  0.00  0.00    +0.195 A 
ATOM     18  O   UNL     1       9.938  -5.788   8.241  0.00  0.00    -0.469 OA
ENDBRANCH  13  14
BRANCH  13  20
ATOM     19  C   UNL     1       7.333  -5.415   7.542  0.00  0.00    -0.096 C 
ATOM     20  N   UNL     1       7.559  -4.018   7.934  0.00  0.00    +0.384 N 
ATOM     21  C   UNL     1       7.334  -3.832   9.374  0.00  0.00    -0.096 C 
ATOM     22  H   UNL     1       6.831  -3.393   7.395  0.00  0.00    -0.082 HD
ENDBRANCH  13  20
ENDBRANCH  12  13
ENDBRANCH   8  12
ENDBRANCH   1   9
BRANCH   5  23
ATOM     23  S   UNL     1       5.540  -1.493  -0.390  0.00  0.00    +0.076 S 
ATOM     24  O   UNL     1       6.545  -2.374  -0.873  0.00  0.00    -0.150 OA
ATOM     25  O   UNL     1       5.442  -0.141  -0.818  0.00  0.00    -0.150 OA
BRANCH  23  26
ATOM     26  N   UNL     1       4.084  -2.204  -0.731  0.00  0.00    -0.199 N 
BRANCH  26  27
ATOM     27  C   UNL     1       2.964  -1.411  -0.992  0.00  0.00    +0.052 A 
ATOM     28  C   UNL     1       2.988  -0.494  -2.035  0.00  0.00    +0.025 A 
ATOM     29  C   UNL     1       1.878   0.287  -2.291  0.00  0.00    +0.002 A 
ATOM     30  C   UNL     1       0.745   0.159  -1.510  0.00  0.00    +0.000 A 
ATOM     31  C   UNL     1       0.718  -0.753  -0.470  0.00  0.00    +0.002 A 
ATOM     32  C   UNL     1       1.823  -1.538  -0.209  0.00  0.00    +0.025 A 
ENDBRANCH  26  27
BRANCH  26  33
ATOM     33  C   UNL     1       3.970  -3.664  -0.758  0.00  0.00    +0.158 C 
BRANCH  33  34
ATOM     34  C   UNL     1       4.133  -4.154  -2.174  0.00  0.00    -0.014 C 
ATOM     35  C   UNL     1       5.043  -5.054  -2.455  0.00  0.00    +0.005 C 
ENDBRANCH  33  34
ENDBRANCH  26  33
ENDBRANCH  23  26
ENDBRANCH   5  23
TORSDOF 10
