REMARK  Name = ZINC35442725
REMARK  12 active torsions:
REMARK  status: ('A' for Active; 'I' for Inactive)
REMARK    1  A    between atoms: C_1  and  C_2
REMARK    2  A    between atoms: C_4  and  C_26
REMARK    3  A    between atoms: C_6  and  C_23
REMARK    4  A    between atoms: C_9  and  C_11
REMARK    5  A    between atoms: C_11  and  C_12
REMARK    6  A    between atoms: C_15  and  C_17
REMARK    7  A    between atoms: N_21  and  C_22
REMARK    8  A    between atoms: C_23  and  C_24
REMARK    9  A    between atoms: C_23  and  C_25
REMARK   10  A    between atoms: C_26  and  N_27
REMARK   11  A    between atoms: N_27  and  C_28
REMARK   12  A    between atoms: C_28  and  C_29
REMARK                            x       y       z     vdW  Elec       q    Type
REMARK                         _______ _______ _______ _____ _____    ______ ____
ROOT
ATOM      1  C   UNL     1      -0.164   1.568  -0.393  0.00  0.00    +0.039 C 
ATOM      2  C   UNL     1      -0.053   0.069  -0.280  0.00  0.00    -0.073 C 
ATOM      3  C   UNL     1       0.164  -0.606  -1.363  0.00  0.00    -0.026 C 
ATOM      4  C   UNL     1       0.287  -2.101  -1.410  0.00  0.00    -0.002 C 
ATOM      5  C   UNL     1       0.547  -2.654  -0.007  0.00  0.00    -0.003 C 
ATOM      6  C   UNL     1      -0.484  -2.045   0.952  0.00  0.00    +0.012 C 
ATOM      7  C   UNL     1      -0.195  -0.546   1.081  0.00  0.00    +0.024 C 
ENDROOT
BRANCH   5   8
ATOM      8  C   UNL     1       0.407  -4.177  -0.020  0.00  0.00    -0.014 C 
ATOM      9  C   UNL     1       0.806  -4.738   1.346  0.00  0.00    +0.007 C 
ATOM     10  C   UNL     1      -1.046  -4.553  -0.321  0.00  0.00    +0.007 C 
ENDBRANCH   5   8
BRANCH   7  11
ATOM     11  C   UNL     1       1.101  -0.341   1.868  0.00  0.00    +0.105 C 
BRANCH  11  12
ATOM     12  C   UNL     1       1.311   1.131   2.115  0.00  0.00    +0.218 A 
ATOM     13  N   UNL     1       0.886   1.806   3.146  0.00  0.00    -0.112 NA
ATOM     14  N   UNL     1       1.244   3.037   3.032  0.00  0.00    -0.106 NA
ATOM     15  C   UNL     1       1.915   3.191   1.912  0.00  0.00    +0.266 A 
ATOM     16  O   UNL     1       1.975   1.984   1.314  0.00  0.00    -0.419 OA
BRANCH  15  17
ATOM     17  C   UNL     1       2.498   4.445   1.409  0.00  0.00    +0.125 A 
ATOM     18  C   UNL     1       3.191   4.615   0.246  0.00  0.00    +0.143 A 
ATOM     19  N   UNL     1       3.545   5.902   0.164  0.00  0.00    -0.243 NA
ATOM     20  C   UNL     1       3.109   6.544   1.216  0.00  0.00    +0.199 A 
ATOM     21  N   UNL     1       2.448   5.682   2.017  0.00  0.00    -0.329 N 
ATOM     22  C   UNL     1       1.802   6.000   3.292  0.00  0.00    +0.150 C 
ENDBRANCH  15  17
ENDBRANCH  11  12
ENDBRANCH   7  11
BRANCH   4  23
ATOM     23  C   UNL     1       1.450  -2.485  -2.327  0.00  0.00    -0.074 C 
BRANCH  23  24
ATOM     24  N   UNL     1       1.152  -2.060  -3.701  0.00  0.00    +0.382 N 
ATOM     25  H   UNL     1       0.309  -2.515  -4.019  0.00  0.00    -0.085 HD
ATOM     26  H   UNL     1       1.022  -1.059  -3.723  0.00  0.00    -0.085 HD
BRANCH  24  27
ATOM     27  C   UNL     1       2.268  -2.428  -4.581  0.00  0.00    -0.047 C 
BRANCH  27  28
ATOM     28  C   UNL     1       1.962  -1.992  -5.991  0.00  0.00    -0.064 A 
ATOM     29  C   UNL     1       1.298  -2.848  -6.850  0.00  0.00    +0.004 A 
ATOM     30  C   UNL     1       1.017  -2.448  -8.143  0.00  0.00    +0.038 A 
ATOM     31  C   UNL     1       1.400  -1.191  -8.577  0.00  0.00    +0.123 A 
ATOM     32  C   UNL     1       2.065  -0.335  -7.716  0.00  0.00    +0.038 A 
ATOM     33  C   UNL     1       2.341  -0.734  -6.422  0.00  0.00    +0.004 A 
ATOM     34  F   UNL     1       1.126  -0.800  -9.841  0.00  0.00    -0.205 F 
ENDBRANCH  27  28
ENDBRANCH  24  27
ENDBRANCH  23  24
ENDBRANCH   4  23
TORSDOF 8
