REMARK  Name = ZINC36665782
REMARK  12 active torsions:
REMARK  status: ('A' for Active; 'I' for Inactive)
REMARK    1  A    between atoms: C_1  and  C_2
REMARK    2  A    between atoms: C_2  and  C_3
REMARK    3  A    between atoms: C_3  and  C_4
REMARK    4  A    between atoms: C_4  and  N_5
REMARK    5  A    between atoms: C_11  and  S_12
REMARK    6  A    between atoms: S_12  and  C_13
REMARK    7  A    between atoms: C_13  and  C_14
REMARK    8  A    between atoms: N_16  and  C_17
REMARK    9  A    between atoms: C_22  and  S_23
REMARK   10  A    between atoms: S_23  and  N_26
REMARK   11  A    between atoms: N_26  and  C_27
REMARK   12  A    between atoms: N_26  and  C_28
REMARK                            x       y       z     vdW  Elec       q    Type
REMARK                         _______ _______ _______ _____ _____    ______ ____
ROOT
ATOM      1  C   UNL     1      -3.140  -3.676   6.155  0.00  0.00    +0.228 C 
ATOM      2  O   UNL     1      -4.124  -4.033   5.541  0.00  0.00    -0.275 OA
ATOM      3  N   UNL     1      -3.232  -3.397   7.470  0.00  0.00    -0.283 N 
ATOM      4  H   UNL     1      -2.431  -3.197   7.980  0.00  0.00    +0.155 HD
ENDROOT
BRANCH   3   5
ATOM      5  C   UNL     1      -4.481  -3.397   8.100  0.00  0.00    +0.060 A 
ATOM      6  C   UNL     1      -5.630  -3.127   7.368  0.00  0.00    +0.025 A 
ATOM      7  C   UNL     1      -6.861  -3.128   7.993  0.00  0.00    +0.002 A 
ATOM      8  C   UNL     1      -6.951  -3.396   9.347  0.00  0.00    +0.002 A 
ATOM      9  C   UNL     1      -5.809  -3.664  10.079  0.00  0.00    +0.030 A 
ATOM     10  C   UNL     1      -4.575  -3.672   9.458  0.00  0.00    +0.127 A 
BRANCH  10  11
ATOM     11  S   UNL     1      -3.121  -4.022  10.390  0.00  0.00    +0.063 S 
ATOM     12  O   UNL     1      -2.171  -3.021  10.052  0.00  0.00    -0.153 OA
ATOM     13  O   UNL     1      -3.542  -4.253  11.728  0.00  0.00    -0.153 OA
BRANCH  11  14
ATOM     14  N   UNL     1      -2.515  -5.458   9.830  0.00  0.00    -0.177 NA
ATOM     15  C   UNL     1      -1.426  -5.461   8.851  0.00  0.00    +0.132 C 
BRANCH  14  16
ATOM     16  C   UNL     1      -3.068  -6.725  10.315  0.00  0.00    +0.080 C 
ATOM     17  C   UNL     1      -1.963  -7.537  10.993  0.00  0.00    +0.020 C 
ATOM     18  C   UNL     1      -2.541  -8.861  11.499  0.00  0.00    +0.002 C 
ATOM     19  C   UNL     1      -3.106  -9.654  10.319  0.00  0.00    +0.000 C 
ATOM     20  C   UNL     1      -4.211  -8.842   9.641  0.00  0.00    +0.002 C 
ATOM     21  C   UNL     1      -3.634  -7.519   9.135  0.00  0.00    +0.020 C 
ENDBRANCH  14  16
ENDBRANCH  11  14
ENDBRANCH  10  11
ENDBRANCH   3   5
BRANCH   1  22
ATOM     22  C   UNL     1      -1.817  -3.545   5.446  0.00  0.00    +0.173 C 
BRANCH  22  23
ATOM     23  S   UNL     1      -2.019  -3.987   3.699  0.00  0.00    -0.077 S 
BRANCH  23  30
ATOM     24  N   UNL     1      -0.056  -4.008   1.706  0.00  0.00    -0.271 N 
ATOM     25  C   UNL     1       1.259  -3.743   1.568  0.00  0.00    +0.345 A 
ATOM     26  O   UNL     1       1.906  -3.827   0.539  0.00  0.00    -0.245 OA
ATOM     27  N   UNL     1       1.727  -3.367   2.776  0.00  0.00    -0.226 N 
ATOM     28  H   UNL     1       2.640  -3.114   2.984  0.00  0.00    +0.194 HD
ATOM     29  N   UNL     1       0.652  -3.408   3.674  0.00  0.00    -0.145 NA
ATOM     30  C   UNL     1      -0.407  -3.787   3.018  0.00  0.00    +0.192 A 
BRANCH  24  31
ATOM     31  C   UNL     1      -0.958  -4.449   0.640  0.00  0.00    +0.129 C 
BRANCH  31  32
ATOM     32  C   UNL     1      -1.576  -3.228  -0.044  0.00  0.00    +0.021 C 
BRANCH  32  34
ATOM     33  C   UNL     1      -3.136  -2.469  -1.842  0.00  0.00    +0.004 C 
ATOM     34  C   UNL     1      -2.518  -3.690  -1.158  0.00  0.00    -0.002 C 
ENDBRANCH  32  34
ENDBRANCH  31  32
ENDBRANCH  24  31
ENDBRANCH  23  30
ENDBRANCH  22  23
ENDBRANCH   1  22
TORSDOF 10
