REMARK  Name = ZINC35863255
REMARK  11 active torsions:
REMARK  status: ('A' for Active; 'I' for Inactive)
REMARK    1  A    between atoms: C_1  and  C_2
REMARK    2  A    between atoms: C_5  and  C_8
REMARK    3  A    between atoms: C_12  and  O_25
REMARK    4  A    between atoms: C_19  and  C_21
REMARK    5  A    between atoms: C_21  and  C_22
REMARK    6  A    between atoms: C_22  and  C_23
REMARK    7  A    between atoms: C_22  and  C_24
REMARK    8  A    between atoms: O_25  and  C_26
REMARK    9  A    between atoms: C_26  and  C_27
REMARK   10  A    between atoms: C_29  and  C_32
REMARK   11  A    between atoms: N_37  and  C_40
REMARK                            x       y       z     vdW  Elec       q    Type
REMARK                         _______ _______ _______ _____ _____    ______ ____
ROOT
ATOM      1  C   UNL     1      -0.106  -4.221  -0.276  0.00  0.00    +0.137 C 
ATOM      2  C   UNL     1       1.317  -4.694  -0.108  0.00  0.00    -0.016 A 
ATOM      3  C   UNL     1       2.180  -4.540  -1.184  0.00  0.00    +0.051 A 
ATOM      4  C   UNL     1       3.501  -4.944  -1.088  0.00  0.00    +0.122 A 
ATOM      5  C   UNL     1       3.961  -5.506   0.094  0.00  0.00    +0.046 A 
ATOM      6  C   UNL     1       3.100  -5.661   1.159  0.00  0.00    +0.007 A 
ATOM      7  C   UNL     1       1.772  -5.261   1.061  0.00  0.00    -0.040 A 
ATOM      8  C   UNL     1       0.886  -5.488   2.258  0.00  0.00    +0.054 C 
ATOM      9  C   UNL     1      -0.353  -4.596   2.194  0.00  0.00    +0.113 C 
ATOM     10  N   UNL     1      -0.922  -4.708   0.842  0.00  0.00    -0.290 N 
ATOM     11  C   UNL     1      -2.145  -5.236   0.638  0.00  0.00    +0.217 C 
ATOM     12  O   UNL     1      -2.591  -5.317  -0.486  0.00  0.00    -0.276 OA
ENDROOT
BRANCH   1  17
ATOM     13  C   UNL     1      -0.213   1.555  -0.368  0.00  0.00    +0.044 C 
ATOM     14  C   UNL     1      -0.185   0.049  -0.344  0.00  0.00    -0.050 A 
ATOM     15  C   UNL     1       0.360  -0.615   0.739  0.00  0.00    +0.004 A 
ATOM     16  C   UNL     1       0.386  -1.997   0.761  0.00  0.00    +0.006 A 
ATOM     17  C   UNL     1      -0.135  -2.715  -0.299  0.00  0.00    -0.023 A 
ATOM     18  C   UNL     1      -0.681  -2.051  -1.382  0.00  0.00    +0.006 A 
ATOM     19  C   UNL     1      -0.710  -0.669  -1.402  0.00  0.00    +0.004 A 
ENDBRANCH   1  17
BRANCH  11  20
ATOM     20  C   UNL     1      -2.958  -5.727   1.809  0.00  0.00    +0.099 C 
BRANCH  20  21
ATOM     21  C   UNL     1      -4.295  -6.274   1.307  0.00  0.00    -0.008 C 
ATOM     22  C   UNL     1      -4.047  -7.511   0.440  0.00  0.00    +0.008 C 
ATOM     23  C   UNL     1      -5.170  -6.657   2.502  0.00  0.00    +0.008 C 
ENDBRANCH  20  21
ENDBRANCH  11  20
BRANCH   4  24
ATOM     24  O   UNL     1       4.340  -4.792  -2.146  0.00  0.00    -0.483 OA
BRANCH  24  25
ATOM     25  C   UNL     1       5.689  -5.233  -1.972  0.00  0.00    +0.324 C 
BRANCH  25  26
ATOM     26  C   UNL     1       6.465  -4.987  -3.239  0.00  0.00    +0.234 A 
ATOM     27  N   UNL     1       7.126  -3.903  -3.518  0.00  0.00    -0.206 NA
ATOM     28  C   UNL     1       7.696  -4.049  -4.745  0.00  0.00    +0.164 A 
ATOM     29  C   UNL     1       7.348  -5.282  -5.204  0.00  0.00    +0.230 A 
ATOM     30  O   UNL     1       6.588  -5.853  -4.255  0.00  0.00    -0.444 OA
BRANCH  28  31
ATOM     31  C   UNL     1       8.532  -3.058  -5.446  0.00  0.00    +0.268 C 
ATOM     32  O   UNL     1       8.883  -3.260  -6.593  0.00  0.00    -0.268 OA
ATOM     33  N   UNL     1       8.908  -1.927  -4.816  0.00  0.00    -0.300 N 
ATOM     34  C   UNL     1       8.611  -1.722  -3.390  0.00  0.00    +0.089 C 
ATOM     35  C   UNL     1       9.903  -1.303  -2.680  0.00  0.00    -0.060 C 
ATOM     36  N   UNL     1      10.473  -0.130  -3.356  0.00  0.00    +0.380 N 
ATOM     37  C   UNL     1      10.872  -0.486  -4.723  0.00  0.00    -0.060 C 
ATOM     38  C   UNL     1       9.633  -0.867  -5.533  0.00  0.00    +0.089 C 
ATOM     39  C   UNL     1      11.650   0.337  -2.611  0.00  0.00    -0.096 C 
ATOM     40  H   UNL     1       9.784   0.606  -3.388  0.00  0.00    -0.082 HD
ENDBRANCH  28  31
ENDBRANCH  25  26
ENDBRANCH  24  25
ENDBRANCH   4  24
TORSDOF 7
