REMARK  Name = ZINC39668429
REMARK  10 active torsions:
REMARK  status: ('A' for Active; 'I' for Inactive)
REMARK    1  A    between atoms: C_1  and  C_2
REMARK    2  A    between atoms: C_2  and  C_4
REMARK    3  A    between atoms: C_2  and  O_31
REMARK    4  A    between atoms: C_4  and  N_5
REMARK    5  A    between atoms: C_6  and  C_8
REMARK    6  A    between atoms: C_19  and  C_21
REMARK    7  A    between atoms: C_26  and  O_27
REMARK    8  A    between atoms: O_27  and  C_28
REMARK    9  A    between atoms: C_28  and  C_30
REMARK   10  A    between atoms: O_31  and  C_32
REMARK                            x       y       z     vdW  Elec       q    Type
REMARK                         _______ _______ _______ _____ _____    ______ ____
ROOT
ATOM      1  C   UNL     1       2.340  -4.260  -2.800  0.00  0.00    +0.100 C 
ATOM      2  C   UNL     1       3.130  -4.827  -1.599  0.00  0.00    +0.121 C 
ATOM      3  N   UNL     1       4.097  -5.774  -2.200  0.00  0.00    -0.296 N 
ATOM      4  C   UNL     1       4.548  -5.102  -3.443  0.00  0.00    +0.115 C 
ATOM      5  C   UNL     1       3.274  -4.442  -4.008  0.00  0.00    -0.004 C 
ATOM      6  C   UNL     1       3.612  -3.087  -4.624  0.00  0.00    -0.010 C 
ATOM      7  C   UNL     1       4.494  -3.298  -5.857  0.00  0.00    -0.082 C 
ATOM      8  N   UNL     1       3.785  -4.137  -6.831  0.00  0.00    +0.379 N 
ATOM      9  C   UNL     1       3.546  -5.470  -6.263  0.00  0.00    -0.082 C 
ATOM     10  C   UNL     1       2.624  -5.351  -5.046  0.00  0.00    -0.010 C 
ATOM     11  C   UNL     1       4.481  -6.976  -1.726  0.00  0.00    +0.250 C 
ATOM     12  O   UNL     1       5.336  -7.615  -2.308  0.00  0.00    -0.270 OA
ATOM     13  H   UNL     1       2.901  -3.709  -7.062  0.00  0.00    -0.086 HD
ATOM     14  H   UNL     1       4.342  -4.224  -7.667  0.00  0.00    -0.086 HD
ENDROOT
BRANCH  11  15
ATOM     15  C   UNL     1       3.864  -7.516  -0.498  0.00  0.00    +0.079 A 
ATOM     16  C   UNL     1       3.525  -6.660   0.552  0.00  0.00    +0.017 A 
ATOM     17  C   UNL     1       2.948  -7.170   1.695  0.00  0.00    +0.001 A 
ATOM     18  C   UNL     1       2.703  -8.529   1.807  0.00  0.00    +0.004 A 
ATOM     19  C   UNL     1       3.034  -9.386   0.776  0.00  0.00    +0.047 A 
ATOM     20  C   UNL     1       3.610  -8.889  -0.383  0.00  0.00    +0.144 A 
BRANCH  20  21
ATOM     21  O   UNL     1       3.930  -9.729  -1.400  0.00  0.00    -0.425 OA
BRANCH  21  22
ATOM     22  C   UNL     1       3.126  -9.753  -2.475  0.00  0.00    +0.309 C 
ATOM     23  O   UNL     1       2.202  -8.979  -2.556  0.00  0.00    -0.251 OA
ATOM     24  C   UNL     1       3.376 -10.747  -3.580  0.00  0.00    +0.136 C 
ENDBRANCH  21  22
ENDBRANCH  20  21
ENDBRANCH  11  15
BRANCH   1  26
ATOM     25  N   UNL     1       0.920  -2.259  -3.114  0.00  0.00    -0.312 N 
ATOM     26  C   UNL     1       2.036  -2.800  -2.587  0.00  0.00    +0.218 C 
ATOM     27  O   UNL     1       2.796  -2.111  -1.940  0.00  0.00    -0.275 OA
ATOM     28  H   UNL     1       0.312  -2.810  -3.632  0.00  0.00    +0.149 HD
BRANCH  25  29
ATOM     29  C   UNL     1       0.625  -0.839  -2.907  0.00  0.00    +0.148 C 
BRANCH  29  31
ATOM     30  C   UNL     1      -0.997   0.999  -3.388  0.00  0.00    +0.053 C 
ATOM     31  C   UNL     1      -0.689  -0.484  -3.605  0.00  0.00    +0.187 C 
BRANCH  31  32
ATOM     32  O   UNL     1      -0.571  -0.746  -5.005  0.00  0.00    -0.486 OA
BRANCH  32  33
ATOM     33  C   UNL     1      -1.687  -1.180  -5.648  0.00  0.00    +0.139 A 
ATOM     34  C   UNL     1      -2.909  -1.232  -4.984  0.00  0.00    +0.049 A 
ATOM     35  C   UNL     1      -4.019  -1.681  -5.681  0.00  0.00    +0.023 A 
ATOM     36  C   UNL     1      -3.877  -2.059  -7.003  0.00  0.00    +0.111 A 
ATOM     37  N   UNL     1      -2.705  -1.998  -7.603  0.00  0.00    -0.260 NA
ATOM     38  C   UNL     1      -1.626  -1.572  -6.977  0.00  0.00    +0.156 A 
ENDBRANCH  32  33
ENDBRANCH  31  32
ENDBRANCH  29  31
ENDBRANCH  25  29
ENDBRANCH   1  26
TORSDOF 8
