REMARK  Name = ZINC63739176
REMARK  8 active torsions:
REMARK  status: ('A' for Active; 'I' for Inactive)
REMARK    1  A    between atoms: C_1  and  C_2
REMARK    2  A    between atoms: C_2  and  C_4
REMARK    3  A    between atoms: C_2  and  C_24
REMARK    4  A    between atoms: C_10  and  C_12
REMARK    5  A    between atoms: C_18  and  O_22
REMARK    6  A    between atoms: O_22  and  C_23
REMARK    7  A    between atoms: N_26  and  C_27
REMARK    8  A    between atoms: C_27  and  C_28
REMARK                            x       y       z     vdW  Elec       q    Type
REMARK                         _______ _______ _______ _____ _____    ______ ____
ROOT
ATOM      1  C   UNL     1       0.742  -0.511   1.242  0.00  0.00    +0.004 C 
ATOM      2  C   UNL     1       0.761  -2.041   1.234  0.00  0.00    +0.023 C 
ATOM      3  C   UNL     1       1.472  -2.545   2.493  0.00  0.00    +0.108 C 
ATOM      4  N   UNL     1       2.803  -1.926   2.566  0.00  0.00    -0.300 N 
ATOM      5  C   UNL     1       2.905  -0.462   2.490  0.00  0.00    +0.108 C 
ATOM      6  C   UNL     1       2.178   0.019   1.230  0.00  0.00    +0.023 C 
ATOM      7  C   UNL     1       3.908  -2.685   2.699  0.00  0.00    +0.242 C 
ATOM      8  O   UNL     1       3.810  -3.893   2.760  0.00  0.00    -0.273 OA
ENDROOT
BRANCH   7   9
ATOM      9  C   UNL     1       5.265  -2.035   2.771  0.00  0.00    +0.190 C 
ATOM     10  C   UNL     1       5.353  -1.146   3.992  0.00  0.00    +0.016 C 
ATOM     11  C   UNL     1       6.353  -1.645   4.750  0.00  0.00    -0.003 A 
ATOM     12  C   UNL     1       6.922  -1.233   6.040  0.00  0.00    +0.013 A 
ATOM     13  C   UNL     1       7.944  -1.944   6.564  0.00  0.00    +0.046 A 
ATOM     14  C   UNL     1       8.476  -3.068   5.904  0.00  0.00    +0.122 A 
ATOM     15  C   UNL     1       8.001  -3.506   4.710  0.00  0.00    +0.071 A 
ATOM     16  C   UNL     1       6.929  -2.831   4.075  0.00  0.00    +0.047 A 
ATOM     17  N   UNL     1       6.306  -3.055   2.939  0.00  0.00    -0.370 N 
ATOM     18  H   UNL     1       6.501  -3.773   2.317  0.00  0.00    +0.161 HD
BRANCH  14  19
ATOM     19  O   UNL     1       9.502  -3.739   6.484  0.00  0.00    -0.495 OA
ATOM     20  C   UNL     1       9.973  -3.245   7.739  0.00  0.00    +0.277 C 
ENDBRANCH  14  19
ENDBRANCH   7   9
BRANCH   1  22
ATOM     21  C   UNL     1      -0.019   1.526   0.010  0.00  0.00    +0.017 C 
ATOM     22  C   UNL     1       0.002  -0.004   0.002  0.00  0.00    +0.075 C 
BRANCH  22  23
ATOM     23  C   UNL     1      -1.412  -0.526   0.013  0.00  0.00    +0.216 C 
ATOM     24  O   UNL     1      -1.790  -1.233   0.922  0.00  0.00    -0.276 OA
ATOM     25  N   UNL     1      -2.256  -0.206  -0.988  0.00  0.00    -0.311 N 
ATOM     26  H   UNL     1      -1.953   0.360  -1.716  0.00  0.00    +0.149 HD
BRANCH  25  27
ATOM     27  C   UNL     1      -3.630  -0.713  -0.978  0.00  0.00    +0.139 C 
BRANCH  27  28
ATOM     28  C   UNL     1      -4.359  -0.214  -2.199  0.00  0.00    -0.029 A 
ATOM     29  C   UNL     1      -5.042   0.988  -2.153  0.00  0.00    +0.005 A 
ATOM     30  C   UNL     1      -5.710   1.446  -3.273  0.00  0.00    +0.001 A 
ATOM     31  C   UNL     1      -5.697   0.703  -4.439  0.00  0.00    +0.015 A 
ATOM     32  C   UNL     1      -5.013  -0.498  -4.485  0.00  0.00    +0.018 A 
ATOM     33  C   UNL     1      -4.340  -0.954  -3.366  0.00  0.00    +0.020 A 
ATOM     34 BR   UNL     1      -4.995  -1.515  -6.079  0.00  0.00    -0.050 Br
ENDBRANCH  27  28
ENDBRANCH  25  27
ENDBRANCH  22  23
ENDBRANCH   1  22
TORSDOF 6
