REMARK  Name = ZINC44879414
REMARK  10 active torsions:
REMARK  status: ('A' for Active; 'I' for Inactive)
REMARK    1  A    between atoms: C_1  and  C_2
REMARK    2  A    between atoms: N_7  and  C_9
REMARK    3  A    between atoms: C_9  and  C_10
REMARK    4  A    between atoms: C_13  and  C_16
REMARK    5  A    between atoms: C_16  and  N_17
REMARK    6  A    between atoms: N_17  and  S_18
REMARK    7  A    between atoms: S_18  and  C_21
REMARK    8  A    between atoms: C_24  and  S_36
REMARK    9  A    between atoms: C_25  and  C_27
REMARK   10  A    between atoms: S_36  and  C_37
REMARK                            x       y       z     vdW  Elec       q    Type
REMARK                         _______ _______ _______ _____ _____    ______ ____
ROOT
ATOM      1  S   UNL     1       0.408 -10.314   1.056  0.00  0.00    +0.059 S 
ATOM      2  O   UNL     1      -0.382 -10.502  -0.111  0.00  0.00    -0.153 OA
ATOM      3  O   UNL     1       1.783 -10.669   1.111  0.00  0.00    -0.153 OA
ENDROOT
BRANCH   1   4
ATOM      4  C   UNL     1      -0.393 -11.196   2.354  0.00  0.00    +0.106 A 
ATOM      5  C   UNL     1       0.339 -11.616   3.454  0.00  0.00    +0.029 A 
ATOM      6  C   UNL     1      -0.275 -12.307   4.478  0.00  0.00    +0.017 A 
ATOM      7  C   UNL     1      -1.635 -12.587   4.412  0.00  0.00    +0.020 A 
ATOM      8  C   UNL     1      -2.378 -12.162   3.299  0.00  0.00    +0.052 A 
ATOM      9  C   UNL     1      -1.742 -11.458   2.273  0.00  0.00    +0.042 A 
BRANCH   8  10
ATOM     10  C   UNL     1      -3.821 -12.452   3.215  0.00  0.00    +0.248 C 
ATOM     11  O   UNL     1      -4.560 -12.128   4.125  0.00  0.00    -0.270 OA
ATOM     12  N   UNL     1      -4.322 -13.075   2.130  0.00  0.00    -0.297 N 
ATOM     13  C   UNL     1      -5.755 -13.227   2.018  0.00  0.00    +0.108 C 
ATOM     14  C   UNL     1      -6.191 -14.552   2.691  0.00  0.00    +0.019 C 
ATOM     15  C   UNL     1      -5.758 -15.702   1.884  0.00  0.00    +0.002 C 
ATOM     16  C   UNL     1      -4.245 -15.834   1.738  0.00  0.00    +0.002 C 
ATOM     17  C   UNL     1      -3.776 -14.972   0.592  0.00  0.00    +0.019 C 
ATOM     18  C   UNL     1      -3.384 -13.570   1.103  0.00  0.00    +0.108 C 
ENDBRANCH   8  10
BRANCH   7  19
ATOM     19  S   UNL     1      -2.423 -13.470   5.718  0.00  0.00    -0.128 S 
ATOM     20  C   UNL     1      -1.084 -13.794   6.898  0.00  0.00    +0.090 C 
ENDBRANCH   7  19
ENDBRANCH   1   4
BRANCH   1  21
ATOM     21  N   UNL     1       0.320  -8.703   1.431  0.00  0.00    -0.186 NA
ATOM     22  H   UNL     1      -0.192  -8.101   0.869  0.00  0.00    +0.148 HD
BRANCH  21  23
ATOM     23  C   UNL     1       1.017  -8.187   2.612  0.00  0.00    +0.141 C 
BRANCH  23  27
ATOM     24  C   UNL     1       1.237  -3.927   2.390  0.00  0.00    -0.064 A 
ATOM     25  C   UNL     1       0.156  -4.532   3.005  0.00  0.00    +0.002 A 
ATOM     26  C   UNL     1       0.085  -5.911   3.076  0.00  0.00    +0.005 A 
ATOM     27  C   UNL     1       1.094  -6.684   2.533  0.00  0.00    -0.032 A 
ATOM     28  C   UNL     1       2.174  -6.079   1.918  0.00  0.00    +0.005 A 
ATOM     29  C   UNL     1       2.243  -4.700   1.843  0.00  0.00    +0.002 A 
BRANCH  24  30
ATOM     30  C   UNL     1       1.314  -2.424   2.312  0.00  0.00    -0.043 C 
BRANCH  30  36
ATOM     31  C   UNL     1      -0.163   1.517  -0.188  0.00  0.00    +0.005 C 
ATOM     32  C   UNL     1      -0.127  -0.012  -0.176  0.00  0.00    -0.031 C 
ATOM     33  C   UNL     1       0.593  -0.517  -1.429  0.00  0.00    -0.001 C 
ATOM     34  C   UNL     1       0.692  -2.044  -1.369  0.00  0.00    -0.018 C 
ATOM     35  C   UNL     1       1.413  -2.453  -0.083  0.00  0.00    -0.078 C 
ATOM     36  N   UNL     1       0.661  -1.963   1.080  0.00  0.00    +0.383 N 
ATOM     37  C   UNL     1       0.623  -0.496   1.067  0.00  0.00    -0.075 C 
ATOM     38  H   UNL     1      -0.281  -2.323   1.046  0.00  0.00    -0.081 HD
ENDBRANCH  30  36
ENDBRANCH  24  30
ENDBRANCH  23  27
ENDBRANCH  21  23
ENDBRANCH   1  21
TORSDOF 8
