REMARK  Name = ZINC39095924
REMARK  3 active torsions:
REMARK  status: ('A' for Active; 'I' for Inactive)
REMARK    1  A    between atoms: C_1  and  C_2
REMARK    2  A    between atoms: C_2  and  C_3
REMARK    3  A    between atoms: C_2  and  C_4
REMARK                            x       y       z     vdW  Elec       q    Type
REMARK                         _______ _______ _______ _____ _____    ______ ____
ROOT
ATOM      1  C   UNL     1      -1.433  -0.534   0.013  0.00  0.00    +0.084 C 
ATOM      2  C   UNL     1      -1.454  -2.079  -0.072  0.00  0.00    +0.117 C 
ATOM      3  C   UNL     1      -2.654  -2.337  -0.965  0.00  0.00    +0.228 C 
ATOM      4  O   UNL     1      -3.217  -3.401  -1.115  0.00  0.00    -0.274 OA
ATOM      5  N   UNL     1      -2.983  -1.176  -1.561  0.00  0.00    -0.251 N 
ATOM      6  N   UNL     1      -2.149  -0.150  -1.226  0.00  0.00    -0.237 NA
ATOM      7  H   UNL     1      -3.736  -1.078  -2.165  0.00  0.00    +0.169 HD
ATOM      8  H   UNL     1      -2.663   0.708  -1.096  0.00  0.00    +0.145 HD
ENDROOT
BRANCH   1  10
ATOM      9  C   UNL     1      -0.019   1.526   0.010  0.00  0.00    +0.009 C 
ATOM     10  C   UNL     1       0.002  -0.004   0.002  0.00  0.00    +0.002 C 
ATOM     11  C   UNL     1       0.742  -0.511   1.242  0.00  0.00    +0.009 C 
ENDBRANCH   1  10
TORSDOF 1
