REMARK  Name = ZINC36313615
REMARK  15 active torsions:
REMARK  status: ('A' for Active; 'I' for Inactive)
REMARK    1  A    between atoms: C_1  and  C_2
REMARK    2  A    between atoms: C_2  and  C_3
REMARK    3  A    between atoms: C_2  and  O_4
REMARK    4  A    between atoms: O_4  and  C_5
REMARK    5  A    between atoms: C_5  and  C_6
REMARK    6  A    between atoms: C_6  and  C_8
REMARK    7  A    between atoms: C_6  and  O_32
REMARK    8  A    between atoms: C_8  and  N_9
REMARK    9  A    between atoms: N_9  and  C_10
REMARK   10  A    between atoms: N_9  and  C_15
REMARK   11  A    between atoms: C_10  and  C_11
REMARK   12  A    between atoms: C_11  and  C_12
REMARK   13  A    between atoms: C_12  and  O_13
REMARK   14  A    between atoms: O_13  and  C_14
REMARK   15  A    between atoms: C_15  and  C_16
REMARK                            x       y       z     vdW  Elec       q    Type
REMARK                         _______ _______ _______ _____ _____    ______ ____
ROOT
ATOM      1  C   UNL     1      -4.789  -4.938  -1.650  0.00  0.00    -0.003 C 
ENDROOT
BRANCH   1   2
ATOM      2  C   UNL     1      -4.365  -5.982  -0.650  0.00  0.00    +0.094 A 
ATOM      3  N   UNL     1      -4.538  -7.296  -0.945  0.00  0.00    -0.312 N 
ATOM      4  H   UNL     1      -4.932  -7.545  -1.796  0.00  0.00    +0.170 HD
ATOM      5  C   UNL     1      -4.174  -8.262  -0.080  0.00  0.00    +0.260 A 
ATOM      6  O   UNL     1      -4.335  -9.437  -0.359  0.00  0.00    -0.267 OA
ATOM      7  C   UNL     1      -3.592  -7.883   1.174  0.00  0.00    +0.075 A 
ATOM      8  C   UNL     1      -3.126  -8.756   2.256  0.00  0.00    -0.023 A 
ATOM      9  C   UNL     1      -2.617  -8.149   3.347  0.00  0.00    -0.004 A 
ATOM     10  S   UNL     1      -2.716  -6.412   2.999  0.00  0.00    -0.073 S 
ATOM     11  C   UNL     1      -3.452  -6.505   1.388  0.00  0.00    +0.116 A 
ATOM     12  N   UNL     1      -3.832  -5.607   0.482  0.00  0.00    -0.229 NA
ATOM     13  C   UNL     1      -2.091  -8.790   4.594  0.00  0.00    +0.043 C 
ATOM     14  C   UNL     1      -1.108  -9.905   4.214  0.00  0.00    +0.005 C 
ATOM     15  C   UNL     1      -1.892 -11.204   4.055  0.00  0.00    +0.001 C 
ATOM     16  C   UNL     1      -3.291 -10.907   3.516  0.00  0.00    +0.005 C 
ATOM     17  C   UNL     1      -3.208 -10.275   2.132  0.00  0.00    +0.037 C 
ENDBRANCH   1   2
BRANCH   1  18
ATOM     18  N   UNL     1      -4.371  -3.611  -1.179  0.00  0.00    +0.386 N 
ATOM     19  H   UNL     1      -4.710  -3.465  -0.240  0.00  0.00    -0.081 HD
BRANCH  18  20
ATOM     20  C   UNL     1      -2.904  -3.527  -1.189  0.00  0.00    -0.044 C 
BRANCH  20  21
ATOM     21  C   UNL     1      -2.465  -2.193  -0.582  0.00  0.00    +0.124 C 
BRANCH  21  22
ATOM     22  O   UNL     1      -2.837  -2.152   0.797  0.00  0.00    -0.391 OA
ATOM     23  H   UNL     1      -2.441  -2.853   1.332  0.00  0.00    +0.210 HD
ENDBRANCH  21  22
BRANCH  21  24
ATOM     24  C   UNL     1      -0.947  -2.052  -0.706  0.00  0.00    +0.189 C 
BRANCH  24  25
ATOM     25  O   UNL     1      -0.549  -0.759  -0.246  0.00  0.00    -0.375 OA
BRANCH  25  27
ATOM     26  C   UNL     1       1.114   0.969  -0.544  0.00  0.00    +0.037 C 
ATOM     27  C   UNL     1       0.858  -0.523  -0.319  0.00  0.00    +0.112 C 
ATOM     28  C   UNL     1       1.517  -0.962   0.990  0.00  0.00    +0.037 C 
ENDBRANCH  25  27
ENDBRANCH  24  25
ENDBRANCH  21  24
ENDBRANCH  20  21
ENDBRANCH  18  20
BRANCH  18  29
ATOM     29  C   UNL     1      -4.926  -2.579  -2.066  0.00  0.00    -0.076 C 
BRANCH  29  30
ATOM     30  C   UNL     1      -6.452  -2.581  -1.958  0.00  0.00    +0.009 C 
BRANCH  30  31
ATOM     31  C   UNL     1      -7.022  -1.419  -2.774  0.00  0.00    +0.157 C 
BRANCH  31  32
ATOM     32  O   UNL     1      -8.448  -1.421  -2.673  0.00  0.00    -0.383 OA
ATOM     33  C   UNL     1      -9.083  -0.370  -3.403  0.00  0.00    +0.193 C 
ENDBRANCH  31  32
ENDBRANCH  30  31
ENDBRANCH  29  30
ENDBRANCH  18  29
ENDBRANCH   1  18
TORSDOF 12
