REMARK  Name = ZINC66954961
REMARK  10 active torsions:
REMARK  status: ('A' for Active; 'I' for Inactive)
REMARK    1  A    between atoms: C_1  and  C_2
REMARK    2  A    between atoms: C_8  and  C_12
REMARK    3  A    between atoms: C_12  and  C_13
REMARK    4  A    between atoms: C_13  and  N_14
REMARK    5  A    between atoms: N_17  and  C_18
REMARK    6  A    between atoms: C_23  and  S_24
REMARK    7  A    between atoms: S_24  and  C_25
REMARK    8  A    between atoms: C_25  and  C_27
REMARK    9  A    between atoms: C_25  and  C_28
REMARK   10  A    between atoms: C_28  and  C_29
REMARK                            x       y       z     vdW  Elec       q    Type
REMARK                         _______ _______ _______ _____ _____    ______ ____
ROOT
ATOM      1  N   UNL     1      -1.456   2.930   3.768  0.00  0.00    -0.299 N 
ATOM      2  C   UNL     1      -2.631   3.588   3.761  0.00  0.00    +0.304 C 
ATOM      3  O   UNL     1      -3.629   3.046   3.325  0.00  0.00    -0.253 OA
ATOM      4  N   UNL     1      -2.702   4.848   4.236  0.00  0.00    -0.268 N 
ATOM      5  H   UNL     1      -0.660   3.362   4.116  0.00  0.00    +0.150 HD
ATOM      6  H   UNL     1      -1.920   5.259   4.637  0.00  0.00    +0.156 HD
ENDROOT
BRANCH   4   7
ATOM      7  C   UNL     1      -3.905   5.563   4.151  0.00  0.00    +0.048 A 
ATOM      8  C   UNL     1      -5.117   4.896   4.236  0.00  0.00    +0.024 A 
ATOM      9  C   UNL     1      -6.302   5.604   4.152  0.00  0.00    +0.002 A 
ATOM     10  C   UNL     1      -6.283   6.976   3.982  0.00  0.00    +0.001 A 
ATOM     11  C   UNL     1      -5.079   7.649   3.896  0.00  0.00    +0.016 A 
ATOM     12  C   UNL     1      -3.885   6.948   3.986  0.00  0.00    +0.029 A 
BRANCH  12  13
ATOM     13  S   UNL     1      -2.348   7.804   3.884  0.00  0.00    -0.119 S 
BRANCH  13  14
ATOM     14  C   UNL     1      -2.823   9.553   3.830  0.00  0.00    +0.062 C 
ATOM     15  C   UNL     1      -3.410   9.964   5.182  0.00  0.00    +0.020 C 
BRANCH  14  16
ATOM     16  C   UNL     1      -1.589  10.408   3.530  0.00  0.00    +0.132 C 
BRANCH  16  17
ATOM     17  C   UNL     1      -1.095  10.097   2.179  0.00  0.00    +0.064 C 
ATOM     18  N   UNL     1      -0.713   9.857   1.136  0.00  0.00    -0.197 NA
ENDBRANCH  16  17
ENDBRANCH  14  16
ENDBRANCH  13  14
ENDBRANCH  12  13
ENDBRANCH   4   7
BRANCH   1  19
ATOM     19  C   UNL     1      -1.379   1.561   3.252  0.00  0.00    +0.110 C 
BRANCH  19  20
ATOM     20  C   UNL     1       0.057   1.049   3.375  0.00  0.00    +0.056 C 
BRANCH  20  28
ATOM     21  C   UNL     1       0.463   1.459   0.255  0.00  0.00    +0.044 C 
ATOM     22  C   UNL     1       0.473  -0.048   0.250  0.00  0.00    -0.041 A 
ATOM     23  C   UNL     1       0.637  -0.729  -0.924  0.00  0.00    +0.004 A 
ATOM     24  C   UNL     1       0.648  -2.116  -0.938  0.00  0.00    +0.002 A 
ATOM     25  C   UNL     1       0.494  -2.832   0.229  0.00  0.00    +0.026 A 
ATOM     26  C   UNL     1       0.327  -2.160   1.435  0.00  0.00    +0.047 A 
ATOM     27  C   UNL     1       0.322  -0.753   1.445  0.00  0.00    +0.006 A 
ATOM     28  C   UNL     1       0.136  -0.359   2.843  0.00  0.00    -0.021 A 
ATOM     29  C   UNL     1       0.049  -1.490   3.562  0.00  0.00    +0.087 A 
ATOM     30  N   UNL     1       0.153  -2.576   2.736  0.00  0.00    -0.360 N 
ATOM     31  H   UNL     1       0.119  -3.501   3.025  0.00  0.00    +0.165 HD
ENDBRANCH  20  28
ENDBRANCH  19  20
ENDBRANCH   1  19
TORSDOF 8
