REMARK  Name = ZINC08132259
REMARK  8 active torsions:
REMARK  status: ('A' for Active; 'I' for Inactive)
REMARK    1  A    between atoms: C_1  and  C_2
REMARK    2  A    between atoms: C_3  and  C_26
REMARK    3  A    between atoms: C_4  and  C_19
REMARK    4  A    between atoms: C_11  and  S_15
REMARK    5  A    between atoms: S_15  and  C_16
REMARK    6  A    between atoms: C_16  and  C_17
REMARK    7  A    between atoms: C_26  and  O_28
REMARK    8  A    between atoms: O_28  and  C_29
REMARK                            x       y       z     vdW  Elec       q    Type
REMARK                         _______ _______ _______ _____ _____    ______ ____
ROOT
ATOM      1  C   UNL     1       3.751  -0.531   0.481  0.00  0.00    +0.061 C 
ATOM      2  C   UNL     1       2.436   0.161   0.233  0.00  0.00    +0.017 C 
ATOM      3  C   UNL     1       1.307  -0.565   0.195  0.00  0.00    +0.065 C 
ATOM      4  C   UNL     1      -0.035   0.060  -0.057  0.00  0.00    +0.096 C 
ATOM      5  C   UNL     1       0.019   1.547   0.145  0.00  0.00    +0.069 A 
ATOM      6  C   UNL     1      -1.163   2.279   0.299  0.00  0.00    +0.258 A 
ATOM      7  O   UNL     1      -2.248   1.720   0.271  0.00  0.00    -0.267 OA
ATOM      8  N   UNL     1      -1.083   3.615   0.472  0.00  0.00    -0.302 N 
ATOM      9  H   UNL     1      -1.917   4.156   0.578  0.00  0.00    +0.171 HD
ATOM     10  C   UNL     1       0.134   4.228   0.504  0.00  0.00    +0.171 A 
ATOM     11  N   UNL     1       1.250   3.543   0.366  0.00  0.00    -0.208 NA
ATOM     12  C   UNL     1       1.230   2.217   0.190  0.00  0.00    +0.135 A 
ATOM     13  N   UNL     1       2.415   1.516   0.052  0.00  0.00    -0.302 N 
ATOM     14  H   UNL     1       3.233   1.987  -0.172  0.00  0.00    +0.153 HD
ENDROOT
BRANCH   4  15
ATOM     15  C   UNL     1      -0.459  -0.233  -1.473  0.00  0.00    -0.032 A 
ATOM     16  C   UNL     1      -1.611  -0.959  -1.714  0.00  0.00    +0.005 A 
ATOM     17  C   UNL     1      -2.001  -1.227  -3.012  0.00  0.00    +0.003 A 
ATOM     18  C   UNL     1      -1.240  -0.770  -4.072  0.00  0.00    +0.038 A 
ATOM     19  C   UNL     1      -0.086  -0.043  -3.832  0.00  0.00    +0.124 A 
ATOM     20  C   UNL     1       0.301   0.230  -2.531  0.00  0.00    +0.043 A 
ATOM     21  F   UNL     1       0.658   0.404  -4.867  0.00  0.00    -0.205 F 
ENDBRANCH   4  15
BRANCH   3  22
ATOM     22  C   UNL     1       1.385  -1.962   0.398  0.00  0.00    +0.337 C 
ATOM     23  O   UNL     1       1.009  -2.446   1.450  0.00  0.00    -0.245 OA
BRANCH  22  24
ATOM     24  O   UNL     1       1.875  -2.759  -0.574  0.00  0.00    -0.465 OA
ATOM     25  C   UNL     1       1.924  -4.160  -0.301  0.00  0.00    +0.280 C 
ENDBRANCH  22  24
ENDBRANCH   3  22
BRANCH  10  26
ATOM     26  S   UNL     1       0.215   5.973   0.735  0.00  0.00    -0.084 S 
BRANCH  26  27
ATOM     27  C   UNL     1       2.008   6.212   0.693  0.00  0.00    +0.104 C 
BRANCH  27  28
ATOM     28  C   UNL     1       2.324   7.674   0.876  0.00  0.00    -0.023 C 
ATOM     29  C   UNL     1       2.972   8.076   1.942  0.00  0.00    +0.005 C 
ENDBRANCH  27  28
ENDBRANCH  26  27
ENDBRANCH  10  26
TORSDOF 6
