REMARK  Name = ZINC54841623
REMARK  8 active torsions:
REMARK  status: ('A' for Active; 'I' for Inactive)
REMARK    1  A    between atoms: C_1  and  C_2
REMARK    2  A    between atoms: C_2  and  C_3
REMARK    3  A    between atoms: C_2  and  C_24
REMARK    4  A    between atoms: C_2  and  C_25
REMARK    5  A    between atoms: C_6  and  C_7
REMARK    6  A    between atoms: N_9  and  C_12
REMARK    7  A    between atoms: C_16  and  C_17
REMARK    8  A    between atoms: N_19  and  C_22
REMARK                            x       y       z     vdW  Elec       q    Type
REMARK                         _______ _______ _______ _____ _____    ______ ____
ROOT
ATOM      1  C   UNL     1       0.852  -1.155   1.020  0.00  0.00    +0.003 C 
ATOM      2  C   UNL     1       0.609  -2.663   1.129  0.00  0.00    +0.043 C 
ATOM      3  C   UNL     1       1.274  -3.177   2.390  0.00  0.00    +0.000 C 
ATOM      4  C   UNL     1       2.084  -4.258   2.375  0.00  0.00    +0.018 C 
ATOM      5  C   UNL     1       0.990  -2.434   3.637  0.00  0.00    +0.185 C 
ATOM      6  O   UNL     1       0.824  -2.993   4.708  0.00  0.00    -0.287 OA
ATOM      7  C   UNL     1       0.922  -0.964   3.490  0.00  0.00    +0.000 C 
ATOM      8  C   UNL     1       1.429  -0.133   4.427  0.00  0.00    +0.018 C 
ATOM      9  C   UNL     1       0.256  -0.439   2.235  0.00  0.00    +0.043 C 
ENDROOT
BRANCH   4  10
ATOM     10  C   UNL     1       2.189  -5.082   1.163  0.00  0.00    +0.013 A 
ATOM     11  C   UNL     1       3.245  -5.905   0.818  0.00  0.00    +0.116 A 
ATOM     12  N   UNL     1       2.941  -6.474  -0.361  0.00  0.00    -0.274 N 
ATOM     13  N   UNL     1       1.685  -6.011  -0.768  0.00  0.00    -0.179 NA
ATOM     14  C   UNL     1       1.225  -5.186   0.133  0.00  0.00    +0.142 A 
ATOM     15  C   UNL     1       3.783  -7.421  -1.097  0.00  0.00    +0.172 C 
ENDBRANCH   4  10
BRANCH   8  16
ATOM     16  C   UNL     1       1.168   1.311   4.346  0.00  0.00    +0.013 A 
ATOM     17  C   UNL     1       0.106   1.919   3.702  0.00  0.00    +0.116 A 
ATOM     18  N   UNL     1       0.241   3.246   3.869  0.00  0.00    -0.274 N 
ATOM     19  N   UNL     1       1.395   3.483   4.624  0.00  0.00    -0.179 NA
ATOM     20  C   UNL     1       1.952   2.340   4.918  0.00  0.00    +0.142 A 
ATOM     21  C   UNL     1      -0.666   4.272   3.349  0.00  0.00    +0.172 C 
ENDBRANCH   8  16
BRANCH   1  23
ATOM     22  C   UNL     1       0.448   0.879  -0.373  0.00  0.00    +0.011 C 
ATOM     23  C   UNL     1       0.194  -0.625  -0.255  0.00  0.00    -0.034 C 
ATOM     24  C   UNL     1      -1.312  -0.885  -0.198  0.00  0.00    +0.011 C 
ATOM     25  C   UNL     1       0.789  -1.339  -1.470  0.00  0.00    +0.011 C 
ENDBRANCH   1  23
TORSDOF 3
