REMARK  Name = ZINC37832131
REMARK  4 active torsions:
REMARK  status: ('A' for Active; 'I' for Inactive)
REMARK    1  A    between atoms: C_1  and  C_2
REMARK    2  A    between atoms: C_2  and  C_3
REMARK    3  A    between atoms: C_2  and  C_4
REMARK    4  A    between atoms: C_4  and  C_6
REMARK                            x       y       z     vdW  Elec       q    Type
REMARK                         _______ _______ _______ _____ _____    ______ ____
ROOT
ATOM      1  C   UNL     1      -1.274  -2.022   0.085  0.00  0.00    +0.230 C 
ATOM      2  O   UNL     1      -0.556  -2.524   0.924  0.00  0.00    -0.274 OA
ATOM      3  N   UNL     1      -1.942  -2.804  -0.786  0.00  0.00    -0.293 N 
ATOM      4  C   UNL     1      -2.895  -2.231  -1.749  0.00  0.00    +0.136 C 
ATOM      5  C   UNL     1      -2.551  -2.754  -3.148  0.00  0.00    +0.179 C 
ATOM      6  O   UNL     1      -2.459  -4.181  -3.112  0.00  0.00    -0.373 OA
ATOM      7  C   UNL     1      -1.434  -4.673  -2.249  0.00  0.00    +0.139 C 
ATOM      8  C   UNL     1      -1.740  -4.265  -0.810  0.00  0.00    +0.105 C 
ATOM      9  C   UNL     1      -3.038  -4.938  -0.355  0.00  0.00    +0.025 C 
ATOM     10  C   UNL     1      -2.897  -6.457  -0.459  0.00  0.00    +0.002 C 
ATOM     11  C   UNL     1      -2.624  -6.841  -1.915  0.00  0.00    +0.003 C 
ATOM     12  C   UNL     1      -1.335  -6.192  -2.351  0.00  0.00    +0.033 C 
ENDROOT
BRANCH   1  13
ATOM     13  C   UNL     1      -1.418  -0.523   0.015  0.00  0.00    +0.145 C 
ATOM     14 BR   UNL     1      -0.876   0.268   1.732  0.00  0.00    -0.078 Br
BRANCH  13  16
ATOM     15  C   UNL     1      -0.757   1.529  -1.248  0.00  0.00    +0.009 C 
ATOM     16  C   UNL     1      -0.527   0.023  -1.102  0.00  0.00    +0.005 C 
ATOM     17  C   UNL     1       0.941  -0.237  -0.757  0.00  0.00    +0.009 C 
ENDBRANCH  13  16
ENDBRANCH   1  13
TORSDOF 2
