REMARK  Name = ZINC35760409
REMARK  12 active torsions:
REMARK  status: ('A' for Active; 'I' for Inactive)
REMARK    1  A    between atoms: C_1  and  C_2
REMARK    2  A    between atoms: C_2  and  C_3
REMARK    3  A    between atoms: C_3  and  C_4
REMARK    4  A    between atoms: C_4  and  C_5
REMARK    5  A    between atoms: C_5  and  C_7
REMARK    6  A    between atoms: C_5  and  C_9
REMARK    7  A    between atoms: C_7  and  C_8
REMARK    8  A    between atoms: N_11  and  C_12
REMARK    9  A    between atoms: C_15  and  C_18
REMARK   10  A    between atoms: C_20  and  C_30
REMARK   11  A    between atoms: C_21  and  C_29
REMARK   12  A    between atoms: N_32  and  C_33
REMARK                            x       y       z     vdW  Elec       q    Type
REMARK                         _______ _______ _______ _____ _____    ______ ____
ROOT
ATOM      1  C   UNL     1       2.359  -9.482   2.392  0.00  0.00    +0.142 C 
ATOM      2  C   UNL     1       3.352 -10.522   1.931  0.00  0.00    +0.058 C 
ATOM      3  C   UNL     1       3.730 -11.514   2.785  0.00  0.00    +0.025 C 
ATOM      4  N   UNL     1       3.202 -11.602   4.006  0.00  0.00    -0.341 N 
ATOM      5  C   UNL     1       2.122 -10.922   4.336  0.00  0.00    +0.135 C 
ATOM      6  N   UNL     1       1.512 -10.088   3.437  0.00  0.00    -0.300 N 
ATOM      7  C   UNL     1       0.087  -9.819   3.433  0.00  0.00    +0.109 C 
ATOM      8  C   UNL     1      -0.562  -9.679   4.791  0.00  0.00    +0.030 C 
ATOM      9  C   UNL     1      -0.332 -10.914   5.664  0.00  0.00    +0.078 C 
ATOM     10  S   UNL     1       1.462 -11.046   5.972  0.00  0.00    -0.092 S 
ATOM     11  C   UNL     1       4.758 -12.524   2.344  0.00  0.00    +0.064 C 
ATOM     12  H   UNL     1       3.621 -12.178   4.665  0.00  0.00    +0.167 HD
ENDROOT
BRANCH   1  16
ATOM     13  C   UNL     1       4.439  -6.111   3.998  0.00  0.00    +0.033 A 
ATOM     14  C   UNL     1       3.929  -6.064   2.707  0.00  0.00    +0.023 A 
ATOM     15  C   UNL     1       3.257  -7.155   2.191  0.00  0.00    +0.007 A 
ATOM     16  C   UNL     1       3.092  -8.294   2.958  0.00  0.00    -0.022 A 
ATOM     17  C   UNL     1       3.599  -8.344   4.244  0.00  0.00    +0.007 A 
ATOM     18  C   UNL     1       4.277  -7.258   4.763  0.00  0.00    +0.023 A 
BRANCH  13  21
ATOM     19  C   UNL     1       4.762  -3.760   4.162  0.00  0.00    +0.220 C 
ATOM     20  O   UNL     1       3.793  -3.589   3.452  0.00  0.00    -0.275 OA
ATOM     21  N   UNL     1       5.120  -5.008   4.523  0.00  0.00    -0.285 N 
ATOM     22  H   UNL     1       5.851  -5.141   5.147  0.00  0.00    +0.155 HD
BRANCH  19  23
ATOM     23  C   UNL     1       5.564  -2.577   4.639  0.00  0.00    +0.075 C 
BRANCH  23  24
ATOM     24  C   UNL     1       7.006  -2.706   4.142  0.00  0.00    +0.009 C 
ATOM     25  C   UNL     1       7.839  -1.545   4.690  0.00  0.00    +0.004 C 
ENDBRANCH  23  24
BRANCH  23  26
ATOM     26  C   UNL     1       4.949  -1.288   4.090  0.00  0.00    +0.013 C 
BRANCH  26  27
ATOM     27  C   UNL     1       3.567  -1.079   4.710  0.00  0.00    +0.000 C 
BRANCH  27  29
ATOM     28  C   UNL     1       1.625   0.484   4.885  0.00  0.00    +0.004 C 
ATOM     29  C   UNL     1       3.008   0.274   4.265  0.00  0.00    -0.003 C 
ENDBRANCH  27  29
ENDBRANCH  26  27
ENDBRANCH  23  26
ENDBRANCH  19  23
ENDBRANCH  13  21
ENDBRANCH   1  16
BRANCH   2  30
ATOM     30  C   UNL     1       3.883 -10.467   0.629  0.00  0.00    +0.248 C 
ATOM     31  O   UNL     1       4.773 -11.232   0.301  0.00  0.00    -0.270 OA
ATOM     32  N   UNL     1       3.406  -9.569  -0.256  0.00  0.00    -0.282 N 
ATOM     33  H   UNL     1       2.750  -8.913   0.025  0.00  0.00    +0.155 HD
BRANCH  32  34
ATOM     34  C   UNL     1       3.858  -9.584  -1.579  0.00  0.00    +0.034 A 
ATOM     35  C   UNL     1       2.968  -9.352  -2.621  0.00  0.00    +0.023 A 
ATOM     36  C   UNL     1       3.417  -9.367  -3.926  0.00  0.00    +0.002 A 
ATOM     37  C   UNL     1       4.751  -9.612  -4.198  0.00  0.00    +0.000 A 
ATOM     38  C   UNL     1       5.639  -9.844  -3.163  0.00  0.00    +0.002 A 
ATOM     39  C   UNL     1       5.197  -9.825  -1.855  0.00  0.00    +0.023 A 
ENDBRANCH  32  34
ENDBRANCH   2  30
TORSDOF 9
