REMARK  Name = ZINC13039176
REMARK  6 active torsions:
REMARK  status: ('A' for Active; 'I' for Inactive)
REMARK    1  A    between atoms: C_1  and  C_2
REMARK    2  A    between atoms: N_8  and  C_9
REMARK    3  A    between atoms: C_9  and  C_10
REMARK    4  A    between atoms: N_12  and  C_13
REMARK    5  A    between atoms: C_16  and  S_19
REMARK    6  A    between atoms: S_19  and  N_22
REMARK                            x       y       z     vdW  Elec       q    Type
REMARK                         _______ _______ _______ _____ _____    ______ ____
ROOT
ATOM      1  C   UNL     1       1.115  -0.377   6.005  0.00  0.00    +0.033 A 
ATOM      2  C   UNL     1       2.280  -1.129   5.918  0.00  0.00    +0.025 A 
ATOM      3  C   UNL     1       2.922  -1.538   7.070  0.00  0.00    +0.031 A 
ATOM      4  C   UNL     1       2.408  -1.200   8.308  0.00  0.00    +0.113 A 
ATOM      5  C   UNL     1       1.249  -0.452   8.398  0.00  0.00    +0.031 A 
ATOM      6  C   UNL     1       0.604  -0.034   7.250  0.00  0.00    +0.025 A 
ENDROOT
BRANCH   1   9
ATOM      7  C   UNL     1       0.445  -0.759   3.754  0.00  0.00    +0.201 C 
ATOM      8  O   UNL     1       1.068  -1.800   3.757  0.00  0.00    -0.278 OA
ATOM      9  N   UNL     1       0.461   0.039   4.840  0.00  0.00    -0.287 N 
ATOM     10  H   UNL     1       0.020   0.902   4.813  0.00  0.00    +0.155 HD
BRANCH   7  11
ATOM     11  C   UNL     1      -0.346  -0.359   2.535  0.00  0.00    +0.019 C 
BRANCH  11  18
ATOM     12  C   UNL     1      -0.293   0.404  -0.166  0.00  0.00    -0.013 C 
ATOM     13  C   UNL     1      -0.874  -0.942   0.271  0.00  0.00    -0.071 C 
ATOM     14  C   UNL     1      -0.657  -1.975  -0.837  0.00  0.00    -0.016 C 
ATOM     15  C   UNL     1      -1.240  -3.320  -0.395  0.00  0.00    -0.003 C 
ATOM     16  C   UNL     1      -0.587  -3.740   0.925  0.00  0.00    -0.019 C 
ATOM     17  C   UNL     1      -0.805  -2.642   1.968  0.00  0.00    -0.078 C 
ATOM     18  N   UNL     1      -0.202  -1.389   1.498  0.00  0.00    +0.387 N 
ATOM     19  H   UNL     1       0.777  -1.538   1.308  0.00  0.00    -0.081 HD
ENDBRANCH  11  18
ENDBRANCH   7  11
ENDBRANCH   1   9
BRANCH   4  20
ATOM     20  S   UNL     1       3.231  -1.724   9.775  0.00  0.00    +0.100 S 
ATOM     21  O   UNL     1       2.253  -1.743  10.805  0.00  0.00    -0.146 OA
ATOM     22  O   UNL     1       3.992  -2.873   9.426  0.00  0.00    -0.146 OA
BRANCH  20  23
ATOM     23  N   UNL     1       4.318  -0.541  10.176  0.00  0.00    -0.118 NA
ATOM     24  C   UNL     1       5.063  -0.675  11.225  0.00  0.00    +0.117 C 
ATOM     25  C   UNL     1       4.946  -1.927  12.091  0.00  0.00    +0.073 C 
ATOM     26  C   UNL     1       6.220  -2.724  11.904  0.00  0.00    +0.008 C 
ATOM     27  C   UNL     1       7.334  -2.328  12.874  0.00  0.00    +0.002 C 
ATOM     28  C   UNL     1       7.466  -0.814  13.050  0.00  0.00    +0.019 C 
ATOM     29  C   UNL     1       7.358  -0.050  11.749  0.00  0.00    +0.102 C 
ATOM     30  N   UNL     1       5.928   0.266  11.546  0.00  0.00    -0.331 N 
ATOM     31  H   UNL     1       5.624   1.181  11.652  0.00  0.00    +0.147 HD
ENDBRANCH  20  23
ENDBRANCH   4  20
TORSDOF 5
