REMARK  Name = ZINC13074205
REMARK  14 active torsions:
REMARK  status: ('A' for Active; 'I' for Inactive)
REMARK    1  A    between atoms: C_1  and  C_2
REMARK    2  A    between atoms: C_4  and  C_34
REMARK    3  A    between atoms: C_5  and  S_9
REMARK    4  A    between atoms: C_6  and  C_8
REMARK    5  A    between atoms: S_9  and  N_12
REMARK    6  A    between atoms: N_12  and  C_13
REMARK    7  A    between atoms: C_13  and  C_14
REMARK    8  A    between atoms: C_14  and  O_16
REMARK    9  A    between atoms: O_16  and  C_17
REMARK   10  A    between atoms: C_17  and  C_18
REMARK   11  A    between atoms: C_18  and  C_20
REMARK   12  A    between atoms: C_22  and  C_33
REMARK   13  A    between atoms: N_23  and  C_26
REMARK   14  A    between atoms: C_24  and  C_25
REMARK                            x       y       z     vdW  Elec       q    Type
REMARK                         _______ _______ _______ _____ _____    ______ ____
ROOT
ATOM      1  O   UNL     1      -3.586   2.634  -5.415  0.00  0.00    -0.456 OA
ENDROOT
BRANCH   1   2
ATOM      2  C   UNL     1      -3.333   3.556  -4.473  0.00  0.00    +0.323 C 
ATOM      3  O   UNL     1      -3.437   4.731  -4.734  0.00  0.00    -0.249 OA
BRANCH   2   4
ATOM      4  C   UNL     1      -2.918   3.125  -3.090  0.00  0.00    +0.226 C 
BRANCH   4   5
ATOM      5  N   UNL     1      -2.702   4.309  -2.254  0.00  0.00    -0.179 NA
ATOM      6  H   UNL     1      -2.616   5.183  -2.665  0.00  0.00    +0.149 HD
BRANCH   5   7
ATOM      7  S   UNL     1      -2.605   4.154  -0.608  0.00  0.00    +0.059 S 
ATOM      8  O   UNL     1      -3.717   3.365  -0.208  0.00  0.00    -0.153 OA
ATOM      9  O   UNL     1      -2.369   5.456  -0.091  0.00  0.00    -0.153 OA
BRANCH   7  14
ATOM     10  C   UNL     1       2.334   0.900   0.586  0.00  0.00    +0.044 C 
ATOM     11  C   UNL     1       1.100   1.712   0.288  0.00  0.00    -0.050 A 
ATOM     12  C   UNL     1      -0.137   1.097   0.235  0.00  0.00    +0.008 A 
ATOM     13  C   UNL     1      -1.268   1.842  -0.043  0.00  0.00    -0.024 A 
ATOM     14  C   UNL     1      -1.163   3.203  -0.259  0.00  0.00    +0.111 A 
ATOM     15  C   UNL     1       0.074   3.819  -0.205  0.00  0.00    -0.024 A 
ATOM     16  C   UNL     1       1.205   3.073   0.069  0.00  0.00    +0.008 A 
ATOM     17  C   UNL     1       0.189   5.302  -0.445  0.00  0.00    +0.046 C 
ATOM     18  C   UNL     1      -2.615   1.170  -0.107  0.00  0.00    +0.046 C 
ENDBRANCH   7  14
ENDBRANCH   5   7
ENDBRANCH   4   5
ENDBRANCH   2   4
ENDBRANCH   1   2
BRANCH   1  19
ATOM     19  C   UNL     1      -3.980   3.121  -6.725  0.00  0.00    +0.311 C 
BRANCH  19  20
ATOM     20  C   UNL     1      -4.221   1.952  -7.645  0.00  0.00    +0.202 C 
ATOM     21  O   UNL     1      -4.075   0.819  -7.236  0.00  0.00    -0.288 OA
BRANCH  20  22
ATOM     22  C   UNL     1      -4.631   2.183  -9.031  0.00  0.00    +0.042 A 
ATOM     23  C   UNL     1      -4.852   3.481  -9.684  0.00  0.00    +0.034 A 
ATOM     24  C   UNL     1      -5.215   3.212 -10.950  0.00  0.00    +0.022 A 
ATOM     25  N   UNL     1      -5.236   1.857 -11.132  0.00  0.00    -0.317 N 
ATOM     26  C   UNL     1      -4.884   1.225  -9.995  0.00  0.00    +0.032 A 
ATOM     27  C   UNL     1      -4.787  -0.267  -9.807  0.00  0.00    +0.064 C 
ATOM     28  C   UNL     1      -5.546   4.240 -12.001  0.00  0.00    +0.064 C 
BRANCH  25  29
ATOM     29  C   UNL     1      -5.572   1.216 -12.333  0.00  0.00    +0.047 A 
ATOM     30  C   UNL     1      -6.706   0.418 -12.402  0.00  0.00    +0.029 A 
ATOM     31  C   UNL     1      -7.038  -0.208 -13.587  0.00  0.00    +0.040 A 
ATOM     32  C   UNL     1      -6.234  -0.050 -14.703  0.00  0.00    +0.124 A 
ATOM     33  C   UNL     1      -5.100   0.742 -14.636  0.00  0.00    +0.040 A 
ATOM     34  C   UNL     1      -4.768   1.374 -13.454  0.00  0.00    +0.029 A 
ATOM     35  F   UNL     1      -6.558  -0.668 -15.861  0.00  0.00    -0.205 F 
ENDBRANCH  25  29
ENDBRANCH  20  22
ENDBRANCH  19  20
ENDBRANCH   1  19
TORSDOF 9
