REMARK  Name = ZINC20583332
REMARK  14 active torsions:
REMARK  status: ('A' for Active; 'I' for Inactive)
REMARK    1  A    between atoms: C_1  and  C_2
REMARK    2  A    between atoms: C_2  and  C_3
REMARK    3  A    between atoms: C_3  and  C_4
REMARK    4  A    between atoms: C_4  and  O_5
REMARK    5  A    between atoms: O_5  and  C_6
REMARK    6  A    between atoms: C_6  and  C_8
REMARK    7  A    between atoms: C_9  and  N_32
REMARK    8  A    between atoms: C_18  and  C_24
REMARK    9  A    between atoms: C_19  and  C_23
REMARK   10  A    between atoms: C_24  and  O_26
REMARK   11  A    between atoms: O_26  and  C_27
REMARK   12  A    between atoms: C_27  and  C_28
REMARK   13  A    between atoms: C_28  and  O_29
REMARK   14  A    between atoms: O_29  and  C_30
REMARK                            x       y       z     vdW  Elec       q    Type
REMARK                         _______ _______ _______ _____ _____    ______ ____
ROOT
ATOM      1  C   UNL     1      -1.364   1.372   4.582  0.00  0.00    +0.098 C 
ATOM      2  C   UNL     1      -0.609   1.604   5.705  0.00  0.00    +0.097 C 
ATOM      3  N   UNL     1       0.040   2.797   5.877  0.00  0.00    -0.302 N 
ATOM      4  C   UNL     1      -0.330   3.916   5.125  0.00  0.00    +0.037 A 
ATOM      5  C   UNL     1       0.056   5.184   5.540  0.00  0.00    +0.024 A 
ATOM      6  C   UNL     1      -0.307   6.293   4.803  0.00  0.00    +0.017 A 
ATOM      7  C   UNL     1      -1.056   6.140   3.649  0.00  0.00    +0.018 A 
ATOM      8  C   UNL     1      -1.441   4.879   3.233  0.00  0.00    +0.022 A 
ATOM      9  C   UNL     1      -1.080   3.763   3.967  0.00  0.00    +0.001 A 
ATOM     10  C   UNL     1      -1.503   2.400   3.502  0.00  0.00    +0.164 C 
ATOM     11  C   UNL     1      -0.707   1.993   2.281  0.00  0.00    +0.100 C 
ATOM     12  C   UNL     1      -1.607   1.848   1.293  0.00  0.00    +0.117 C 
ATOM     13  O   UNL     1      -2.858   2.105   1.693  0.00  0.00    -0.429 OA
ATOM     14  C   UNL     1      -2.928   2.440   2.993  0.00  0.00    +0.332 C 
ATOM     15  O   UNL     1      -3.920   2.720   3.623  0.00  0.00    -0.249 OA
ATOM     16  C   UNL     1      -1.245   1.446  -0.114  0.00  0.00    +0.087 C 
ATOM     17 BR   UNL     1      -1.554   7.659   2.639  0.00  0.00    -0.050 Br
ATOM     18  H   UNL     1       0.856   2.879   6.610  0.00  0.00    +0.153 HD
ENDROOT
BRANCH   2  19
ATOM     19  N   UNL     1      -0.504   0.630   6.664  0.00  0.00    -0.346 N 
ATOM     20  H   UNL     1       0.099   0.810   7.566  0.00  0.00    +0.143 HD
ATOM     21  H   UNL     1      -1.024  -0.330   6.532  0.00  0.00    +0.143 HD
ENDBRANCH   2  19
BRANCH   1  22
ATOM     22  C   UNL     1      -2.022   0.144   4.444  0.00  0.00    +0.340 C 
ATOM     23  O   UNL     1      -2.015  -0.658   5.362  0.00  0.00    -0.245 OA
BRANCH  22  24
ATOM     24  O   UNL     1      -2.664  -0.152   3.293  0.00  0.00    -0.461 OA
BRANCH  24  25
ATOM     25  C   UNL     1      -3.313  -1.423   3.221  0.00  0.00    +0.232 C 
BRANCH  25  26
ATOM     26  C   UNL     1      -3.981  -1.579   1.853  0.00  0.00    +0.041 C 
BRANCH  26  28
ATOM     27  C   UNL     1      -5.343  -3.095   0.408  0.00  0.00    +0.004 C 
ATOM     28  C   UNL     1      -4.676  -2.939   1.776  0.00  0.00    -0.000 C 
ENDBRANCH  26  28
ENDBRANCH  25  26
ENDBRANCH  24  25
ENDBRANCH  22  24
ENDBRANCH   1  22
BRANCH  11  29
ATOM     29  C   UNL     1       0.695   1.803   2.197  0.00  0.00    +0.340 C 
ATOM     30  O   UNL     1       1.202   1.473   1.141  0.00  0.00    -0.245 OA
BRANCH  29  31
ATOM     31  O   UNL     1       1.468   1.989   3.287  0.00  0.00    -0.459 OA
BRANCH  31  32
ATOM     32  C   UNL     1       2.873   1.781   3.130  0.00  0.00    +0.260 C 
BRANCH  32  33
ATOM     33  C   UNL     1       3.578   2.036   4.463  0.00  0.00    +0.200 C 
BRANCH  33  34
ATOM     34  O   UNL     1       3.156   1.062   5.420  0.00  0.00    -0.380 OA
ATOM     35  C   UNL     1       3.760   1.212   6.707  0.00  0.00    +0.194 C 
ENDBRANCH  33  34
ENDBRANCH  32  33
ENDBRANCH  31  32
ENDBRANCH  29  31
ENDBRANCH  11  29
TORSDOF 11
