REMARK  Name = ZINC44731871
REMARK  8 active torsions:
REMARK  status: ('A' for Active; 'I' for Inactive)
REMARK    1  A    between atoms: C_1  and  C_2
REMARK    2  A    between atoms: C_4  and  C_8
REMARK    3  A    between atoms: C_5  and  C_7
REMARK    4  A    between atoms: C_8  and  C_10
REMARK    5  A    between atoms: C_8  and  N_11
REMARK    6  A    between atoms: N_11  and  C_12
REMARK    7  A    between atoms: C_15  and  C_19
REMARK    8  A    between atoms: C_17  and  N_18
REMARK                            x       y       z     vdW  Elec       q    Type
REMARK                         _______ _______ _______ _____ _____    ______ ____
ROOT
ATOM      1  C   UNL     1      -3.567  -4.076   1.048  0.00  0.00    +0.049 A 
ATOM      2  C   UNL     1      -3.063  -5.366   1.173  0.00  0.00    +0.025 A 
ATOM      3  C   UNL     1      -3.831  -6.356   1.743  0.00  0.00    +0.017 A 
ATOM      4  C   UNL     1      -5.122  -6.067   2.198  0.00  0.00    +0.065 A 
ATOM      5  C   UNL     1      -5.631  -4.768   2.073  0.00  0.00    +0.039 A 
ATOM      6  C   UNL     1      -4.854  -3.778   1.506  0.00  0.00    +0.046 A 
ENDROOT
BRANCH   6   7
ATOM      7  N   UNL     1      -5.356  -2.476   1.384  0.00  0.00    -0.357 N 
ATOM      8  H   UNL     1      -4.812  -1.782   0.982  0.00  0.00    +0.142 HD
ATOM      9  H   UNL     1      -6.249  -2.269   1.702  0.00  0.00    +0.142 HD
ENDBRANCH   6   7
BRANCH   4  10
ATOM     10  C   UNL     1      -5.944  -7.125   2.807  0.00  0.00    +0.387 C 
ATOM     11  O   UNL     1      -5.499  -8.259   2.915  0.00  0.00    -0.241 OA
ATOM     12  O   UNL     1      -7.073  -6.870   3.204  0.00  0.00    -0.241 OA
ENDBRANCH   4  10
BRANCH   1  13
ATOM     13  N   UNL     1      -2.786  -3.079   0.471  0.00  0.00    -0.336 N 
ATOM     14  H   UNL     1      -3.135  -2.178   0.387  0.00  0.00    +0.147 HD
BRANCH  13  15
ATOM     15  C   UNL     1      -1.437  -3.390  -0.009  0.00  0.00    +0.101 C 
ATOM     16  C   UNL     1      -1.518  -3.946  -1.432  0.00  0.00    +0.033 C 
BRANCH  15  20
ATOM     17  C   UNL     1      -0.018   1.503   0.010  0.00  0.00    +0.086 C 
ATOM     18  C   UNL     1       0.002  -0.004   0.002  0.00  0.00    +0.103 A 
ATOM     19  C   UNL     1      -1.078  -0.805   0.003  0.00  0.00    +0.050 A 
ATOM     20  C   UNL     1      -0.601  -2.136  -0.007  0.00  0.00    +0.013 A 
ATOM     21  C   UNL     1       0.742  -2.069  -0.013  0.00  0.00    +0.107 A 
ATOM     22  O   UNL     1       1.102  -0.775  -0.013  0.00  0.00    -0.465 OA
ATOM     23  C   UNL     1       1.684  -3.245  -0.023  0.00  0.00    +0.086 C 
ENDBRANCH  15  20
ENDBRANCH  13  15
ENDBRANCH   1  13
TORSDOF 5
