REMARK  Name = ZINC14478430
REMARK  5 active torsions:
REMARK  status: ('A' for Active; 'I' for Inactive)
REMARK    1  A    between atoms: C_1  and  N_2
REMARK    2  A    between atoms: N_2  and  C_3
REMARK    3  A    between atoms: C_9  and  C_11
REMARK    4  A    between atoms: C_24  and  C_27
REMARK    5  A    between atoms: C_32  and  N_33
REMARK                            x       y       z     vdW  Elec       q    Type
REMARK                         _______ _______ _______ _____ _____    ______ ____
ROOT
ATOM      1  C   UNL     1       2.354  -0.453  -0.218  0.00  0.00    +0.038 A 
ATOM      2  C   UNL     1       2.533   0.842   0.277  0.00  0.00    +0.015 A 
ATOM      3  C   UNL     1       1.483   1.729   0.277  0.00  0.00    +0.024 A 
ATOM      4  C   UNL     1       0.236   1.349  -0.214  0.00  0.00    +0.031 A 
ATOM      5  C   UNL     1       0.062   0.053  -0.724  0.00  0.00    -0.019 A 
ATOM      6  C   UNL     1       1.107  -0.838  -0.718  0.00  0.00    +0.019 A 
ATOM      7  C   UNL     1      -1.268  -0.290  -1.273  0.00  0.00    +0.049 C 
ATOM      8  C   UNL     1      -1.772  -1.687  -1.299  0.00  0.00    -0.023 C 
ATOM      9  C   UNL     1      -3.085  -1.676  -1.197  0.00  0.00    -0.030 C 
ATOM     10  C   UNL     1      -3.579  -0.239  -1.021  0.00  0.00    +0.033 C 
ATOM     11  C   UNL     1      -2.344   0.440  -0.415  0.00  0.00    +0.029 C 
ATOM     12  C   UNL     1      -2.155   1.919  -0.701  0.00  0.00    +0.107 C 
ATOM     13  N   UNL     1      -0.818   2.261  -0.170  0.00  0.00    -0.336 N 
ATOM     14  H   UNL     1      -0.671   3.138   0.217  0.00  0.00    +0.147 HD
ENDROOT
BRANCH  12  15
ATOM     15  C   UNL     1      -2.205   2.172  -2.186  0.00  0.00    +0.003 A 
ATOM     16  C   UNL     1      -1.032   2.268  -2.911  0.00  0.00    +0.008 A 
ATOM     17  C   UNL     1      -1.079   2.495  -4.274  0.00  0.00    +0.000 A 
ATOM     18  C   UNL     1      -2.298   2.636  -4.910  0.00  0.00    +0.002 A 
ATOM     19  C   UNL     1      -3.471   2.546  -4.184  0.00  0.00    +0.033 A 
ATOM     20  C   UNL     1      -3.424   2.313  -2.822  0.00  0.00    +0.131 A 
BRANCH  20  21
ATOM     21  N   UNL     1      -4.680   2.216  -2.044  0.00  0.00    +0.057 N 
ATOM     22  O   UNL     1      -5.754   2.230  -2.618  0.00  0.00    -0.126 OA
ATOM     23  O   UNL     1      -4.639   2.123  -0.831  0.00  0.00    -0.126 OA
ENDBRANCH  20  21
ENDBRANCH  12  15
BRANCH   1  26
ATOM     24  C   UNL     1       5.001   0.451  -0.605  0.00  0.00    +0.138 C 
ATOM     25  N   UNL     1       4.727  -0.983  -0.482  0.00  0.00    -0.271 N 
ATOM     26  C   UNL     1       3.477  -1.410  -0.213  0.00  0.00    +0.251 C 
ATOM     27  O   UNL     1       3.275  -2.583   0.033  0.00  0.00    -0.270 OA
BRANCH  25  28
ATOM     28  C   UNL     1       5.763  -1.909  -0.643  0.00  0.00    +0.036 A 
ATOM     29  C   UNL     1       5.485  -3.270  -0.645  0.00  0.00    +0.023 A 
ATOM     30  C   UNL     1       6.509  -4.182  -0.810  0.00  0.00    +0.002 A 
ATOM     31  C   UNL     1       7.812  -3.741  -0.961  0.00  0.00    +0.000 A 
ATOM     32  C   UNL     1       8.092  -2.387  -0.953  0.00  0.00    +0.002 A 
ATOM     33  C   UNL     1       7.072  -1.470  -0.795  0.00  0.00    +0.023 A 
ENDBRANCH  25  28
ENDBRANCH   1  26
TORSDOF 4
