REMARK  Name = ZINC35267251
REMARK  11 active torsions:
REMARK  status: ('A' for Active; 'I' for Inactive)
REMARK    1  A    between atoms: C_1  and  C_2
REMARK    2  A    between atoms: C_2  and  C_3
REMARK    3  A    between atoms: C_3  and  C_5
REMARK    4  A    between atoms: C_3  and  C_6
REMARK    5  A    between atoms: C_6  and  C_8
REMARK    6  A    between atoms: C_6  and  N_23
REMARK    7  A    between atoms: C_14  and  C_16
REMARK    8  A    between atoms: C_19  and  C_22
REMARK    9  A    between atoms: C_24  and  C_26
REMARK   10  A    between atoms: C_26  and  C_27
REMARK   11  A    between atoms: C_26  and  C_28
REMARK                            x       y       z     vdW  Elec       q    Type
REMARK                         _______ _______ _______ _____ _____    ______ ____
ROOT
ATOM      1  C   UNL     1      -3.541  -0.846   1.695  0.00  0.00    +0.239 C 
ATOM      2  O   UNL     1      -4.498  -0.163   1.992  0.00  0.00    -0.273 OA
ATOM      3  N   UNL     1      -3.665  -2.187   1.625  0.00  0.00    -0.262 N 
ATOM      4  C   UNL     1      -4.911  -2.779   1.791  0.00  0.00    +0.188 A 
ATOM      5  N   UNL     1      -6.079  -2.207   2.016  0.00  0.00    -0.125 NA
ATOM      6  N   UNL     1      -7.140  -2.882   2.145  0.00  0.00    -0.140 NA
ATOM      7  C   UNL     1      -7.073  -4.204   2.051  0.00  0.00    +0.134 A 
ATOM      8  S   UNL     1      -5.324  -4.412   1.748  0.00  0.00    -0.030 S 
ATOM      9  H   UNL     1      -2.884  -2.738   1.459  0.00  0.00    +0.157 HD
ENDROOT
BRANCH   7  10
ATOM     10  C   UNL     1      -8.143  -5.218   2.161  0.00  0.00    +0.009 A 
ATOM     11  C   UNL     1      -7.840  -6.574   2.034  0.00  0.00    +0.011 A 
ATOM     12  C   UNL     1      -8.844  -7.515   2.137  0.00  0.00    +0.004 A 
ATOM     13  C   UNL     1     -10.149  -7.116   2.367  0.00  0.00    -0.050 A 
ATOM     14  C   UNL     1     -10.456  -5.773   2.494  0.00  0.00    +0.004 A 
ATOM     15  C   UNL     1      -9.461  -4.822   2.399  0.00  0.00    +0.011 A 
ATOM     16  C   UNL     1     -11.240  -8.149   2.479  0.00  0.00    +0.044 C 
ENDBRANCH   7  10
BRANCH   1  17
ATOM     17  C   UNL     1      -2.213  -0.196   1.405  0.00  0.00    +0.162 C 
BRANCH  17  18
ATOM     18  N   UNL     1      -2.333   1.255   1.569  0.00  0.00    -0.304 N 
ATOM     19  C   UNL     1      -1.303   1.963   2.073  0.00  0.00    +0.216 C 
ATOM     20  O   UNL     1      -0.247   1.415   2.308  0.00  0.00    -0.276 OA
ATOM     21  H   UNL     1      -3.153   1.705   1.314  0.00  0.00    +0.149 HD
BRANCH  19  22
ATOM     22  C   UNL     1      -1.465   3.437   2.345  0.00  0.00    +0.069 C 
ATOM     23  C   UNL     1      -2.591   3.648   3.359  0.00  0.00    +0.017 C 
ATOM     24  C   UNL     1      -0.158   3.997   2.910  0.00  0.00    +0.017 C 
ENDBRANCH  19  22
ENDBRANCH  17  18
BRANCH  17  25
ATOM     25  C   UNL     1      -1.793  -0.514  -0.032  0.00  0.00    +0.015 C 
ATOM     26  C   UNL     1      -0.365  -0.017  -0.268  0.00  0.00    +0.010 C 
BRANCH  25  28
ATOM     27  C   UNL     1      -4.137  -0.438  -0.893  0.00  0.00    +0.004 C 
ATOM     28  C   UNL     1      -2.743   0.183  -1.007  0.00  0.00    +0.002 C 
ENDBRANCH  25  28
ENDBRANCH  17  25
ENDBRANCH   1  17
TORSDOF 6
