REMARK  Name = ZINC03419731
REMARK  9 active torsions:
REMARK  status: ('A' for Active; 'I' for Inactive)
REMARK    1  A    between atoms: C_1  and  C_2
REMARK    2  A    between atoms: C_2  and  C_4
REMARK    3  A    between atoms: C_4  and  C_6
REMARK    4  A    between atoms: C_4  and  N_13
REMARK    5  A    between atoms: C_6  and  C_7
REMARK    6  A    between atoms: C_14  and  C_16
REMARK    7  A    between atoms: C_16  and  N_54
REMARK    8  A    between atoms: N_19  and  S_22
REMARK    9  A    between atoms: S_22  and  C_25
REMARK                            x       y       z     vdW  Elec       q    Type
REMARK                         _______ _______ _______ _____ _____    ______ ____
ROOT
ATOM      1  C   UNL     1      -3.472   3.386   4.149  0.00  0.00    +0.019 C 
ENDROOT
BRANCH   1   7
ATOM      2  C   UNL     1      -4.287   2.298   6.152  0.00  0.00    -0.061 C 
ATOM      3  C   UNL     1      -3.963   2.028   7.626  0.00  0.00    +0.091 C 
ATOM      4  N   UNL     1      -3.868   3.318   8.327  0.00  0.00    -0.180 NA
ATOM      5  C   UNL     1      -3.001   4.359   7.755  0.00  0.00    +0.091 C 
ATOM      6  C   UNL     1      -3.363   4.537   6.277  0.00  0.00    -0.061 C 
ATOM      7  N   UNL     1      -3.272   3.223   5.604  0.00  0.00    +0.387 N 
ATOM      8  H   UNL     1      -2.338   2.829   5.770  0.00  0.00    -0.081 HD
BRANCH   4   9
ATOM      9  S   UNL     1      -4.716   3.590   9.723  0.00  0.00    +0.067 S 
ATOM     10  O   UNL     1      -4.974   2.316  10.296  0.00  0.00    -0.152 OA
ATOM     11  O   UNL     1      -4.026   4.616  10.424  0.00  0.00    -0.152 OA
BRANCH   9  12
ATOM     12  C   UNL     1      -6.279   4.261   9.261  0.00  0.00    +0.144 A 
ATOM     13  C   UNL     1      -7.436   3.613   8.983  0.00  0.00    +0.038 A 
ATOM     14  C   UNL     1      -8.553   4.353   8.638  0.00  0.00    +0.030 A 
ATOM     15  C   UNL     1      -8.455   5.705   8.589  0.00  0.00    +0.080 A 
ATOM     16  S   UNL     1      -6.750   5.969   9.044  0.00  0.00    -0.057 S 
ATOM     17 CL   UNL     1      -9.675   6.875   8.193  0.00  0.00    -0.076 Cl
ENDBRANCH   9  12
ENDBRANCH   4   9
ENDBRANCH   1   7
BRANCH   1  19
ATOM     18  N   UNL     1      -3.249   1.981   2.126  0.00  0.00    -0.307 N 
ATOM     19  C   UNL     1      -3.159   2.080   3.467  0.00  0.00    +0.197 C 
ATOM     20  O   UNL     1      -2.825   1.117   4.125  0.00  0.00    -0.278 OA
ATOM     21  H   UNL     1      -3.517   2.751   1.600  0.00  0.00    +0.149 HD
BRANCH  18  22
ATOM     22  C   UNL     1      -2.945   0.711   1.462  0.00  0.00    +0.143 C 
BRANCH  22  24
ATOM     23  C   UNL     1      -4.037  -1.652   1.268  0.00  0.00    +0.088 C 
ATOM     24  C   UNL     1      -4.172  -0.164   1.465  0.00  0.00    +0.151 C 
ATOM     25  O   UNL     1      -5.263   0.327   1.625  0.00  0.00    -0.296 OA
ENDBRANCH  22  24
BRANCH  22  26
ATOM     26  C   UNL     1      -2.514   0.980   0.019  0.00  0.00    +0.065 C 
BRANCH  26  27
ATOM     27  C   UNL     1      -1.219   1.751   0.017  0.00  0.00    -0.045 A 
ATOM     28  C   UNL     1      -0.013   1.076   0.008  0.00  0.00    +0.004 A 
ATOM     29  C   UNL     1       1.175   1.783   0.000  0.00  0.00    +0.000 A 
ATOM     30  C   UNL     1       1.156   3.165   0.008  0.00  0.00    +0.000 A 
ATOM     31  C   UNL     1      -0.050   3.840   0.022  0.00  0.00    +0.000 A 
ATOM     32  C   UNL     1      -1.238   3.133   0.030  0.00  0.00    +0.004 A 
ENDBRANCH  26  27
ENDBRANCH  22  26
ENDBRANCH  18  22
ENDBRANCH   1  19
TORSDOF 8
