REMARK  Name = ZINC09886759
REMARK  10 active torsions:
REMARK  status: ('A' for Active; 'I' for Inactive)
REMARK    1  A    between atoms: C_1  and  C_2
REMARK    2  A    between atoms: C_2  and  C_3
REMARK    3  A    between atoms: C_2  and  C_4
REMARK    4  A    between atoms: C_4  and  C_6
REMARK    5  A    between atoms: C_4  and  N_25
REMARK    6  A    between atoms: N_8  and  N_9
REMARK    7  A    between atoms: C_10  and  C_11
REMARK    8  A    between atoms: C_13  and  N_22
REMARK    9  A    between atoms: C_16  and  N_17
REMARK   10  A    between atoms: C_26  and  C_28
REMARK                            x       y       z     vdW  Elec       q    Type
REMARK                         _______ _______ _______ _____ _____    ______ ____
ROOT
ATOM      1  C   UNL     1      -1.150   1.439   0.899  0.00  0.00    +0.253 C 
ATOM      2  O   UNL     1      -1.181   2.558   0.430  0.00  0.00    -0.272 OA
ATOM      3  N   UNL     1      -0.010   0.968   1.442  0.00  0.00    -0.205 N 
ATOM      4  H   UNL     1       0.036   0.050   1.753  0.00  0.00    +0.177 HD
ENDROOT
BRANCH   3   5
ATOM      5  N   UNL     1       1.111   1.801   1.550  0.00  0.00    -0.188 NA
ATOM      6  C   UNL     1       2.179   1.377   2.155  0.00  0.00    +0.140 C 
BRANCH   6   7
ATOM      7  C   UNL     1       3.317   2.289   2.367  0.00  0.00    +0.018 A 
ATOM      8  C   UNL     1       4.423   1.871   3.110  0.00  0.00    +0.044 A 
ATOM      9  C   UNL     1       5.485   2.729   3.304  0.00  0.00    +0.127 A 
ATOM     10  C   UNL     1       5.461   4.005   2.765  0.00  0.00    +0.034 A 
ATOM     11  C   UNL     1       4.373   4.432   2.028  0.00  0.00    +0.026 A 
ATOM     12  C   UNL     1       3.298   3.580   1.818  0.00  0.00    +0.039 A 
BRANCH  12  13
ATOM     13  N   UNL     1       2.202   4.007   1.070  0.00  0.00    -0.329 N 
ATOM     14  C   UNL     1       1.677   5.298   1.584  0.00  0.00    +0.105 C 
ATOM     15  C   UNL     1       0.873   5.857   0.384  0.00  0.00    +0.020 C 
ATOM     16  C   UNL     1       1.733   5.441  -0.832  0.00  0.00    +0.020 C 
ATOM     17  C   UNL     1       2.586   4.259  -0.336  0.00  0.00    +0.105 C 
ENDBRANCH  12  13
BRANCH   9  18
ATOM     18  N   UNL     1       6.656   2.285   4.092  0.00  0.00    +0.056 N 
ATOM     19  O   UNL     1       6.681   1.163   4.567  0.00  0.00    -0.126 OA
ATOM     20  O   UNL     1       7.596   3.040   4.265  0.00  0.00    -0.126 OA
ENDBRANCH   9  18
ENDBRANCH   6   7
ENDBRANCH   3   5
BRANCH   1  21
ATOM     21  C   UNL     1      -2.386   0.577   0.875  0.00  0.00    +0.163 C 
BRANCH  21  22
ATOM     22  N   UNL     1      -3.541   1.390   0.488  0.00  0.00    -0.300 N 
ATOM     23  C   UNL     1      -4.782   1.022   0.865  0.00  0.00    +0.245 C 
ATOM     24  O   UNL     1      -4.941   0.014   1.526  0.00  0.00    -0.270 OA
ATOM     25  H   UNL     1      -3.413   2.194  -0.040  0.00  0.00    +0.150 HD
BRANCH  23  26
ATOM     26  C   UNL     1      -5.947   1.842   0.474  0.00  0.00    +0.038 A 
ATOM     27  C   UNL     1      -5.766   3.002  -0.281  0.00  0.00    +0.014 A 
ATOM     28  C   UNL     1      -6.857   3.762  -0.647  0.00  0.00    +0.022 A 
ATOM     29  C   UNL     1      -8.131   3.381  -0.258  0.00  0.00    +0.059 A 
ATOM     30  C   UNL     1      -8.317   2.233   0.496  0.00  0.00    +0.060 A 
ATOM     31  C   UNL     1      -7.233   1.463   0.863  0.00  0.00    +0.034 A 
ATOM     32 CL   UNL     1      -9.917   1.764   0.978  0.00  0.00    -0.082 Cl
ATOM     33 CL   UNL     1      -9.499   4.346  -0.717  0.00  0.00    -0.082 Cl
ENDBRANCH  23  26
ENDBRANCH  21  22
BRANCH  21  35
ATOM     34  C   UNL     1      -1.035  -1.447   0.307  0.00  0.00    +0.009 C 
ATOM     35  C   UNL     1      -2.198  -0.556  -0.136  0.00  0.00    +0.012 C 
ATOM     36  C   UNL     1      -3.478  -1.390  -0.212  0.00  0.00    +0.009 C 
ENDBRANCH  21  35
ENDBRANCH   1  21
TORSDOF 8
