REMARK  Name = ZINC39609278
REMARK  11 active torsions:
REMARK  status: ('A' for Active; 'I' for Inactive)
REMARK    1  A    between atoms: C_1  and  C_2
REMARK    2  A    between atoms: C_5  and  C_9
REMARK    3  A    between atoms: C_7  and  C_8
REMARK    4  A    between atoms: C_9  and  C_10
REMARK    5  A    between atoms: C_10  and  N_11
REMARK    6  A    between atoms: C_12  and  C_14
REMARK    7  A    between atoms: C_25  and  C_27
REMARK    8  A    between atoms: C_31  and  O_34
REMARK    9  A    between atoms: C_32  and  C_33
REMARK   10  A    between atoms: O_34  and  C_35
REMARK   11  A    between atoms: C_35  and  C_37
REMARK                            x       y       z     vdW  Elec       q    Type
REMARK                         _______ _______ _______ _____ _____    ______ ____
ROOT
ATOM      1  C   UNL     1       2.981  -8.844  -0.302  0.00  0.00    +0.100 C 
ATOM      2  C   UNL     1       2.416  -9.249   1.078  0.00  0.00    +0.121 C 
ATOM      3  N   UNL     1       3.161 -10.477   1.442  0.00  0.00    -0.296 N 
ATOM      4  C   UNL     1       4.547 -10.216   0.986  0.00  0.00    +0.115 C 
ATOM      5  C   UNL     1       4.380  -9.479  -0.358  0.00  0.00    -0.004 C 
ATOM      6  C   UNL     1       5.446  -8.398  -0.503  0.00  0.00    -0.010 C 
ATOM      7  C   UNL     1       6.824  -9.058  -0.616  0.00  0.00    -0.082 C 
ATOM      8  N   UNL     1       6.846  -9.954  -1.778  0.00  0.00    +0.379 N 
ATOM      9  C   UNL     1       5.882 -11.044  -1.588  0.00  0.00    -0.082 C 
ATOM     10  C   UNL     1       4.464 -10.469  -1.517  0.00  0.00    -0.010 C 
ATOM     11  C   UNL     1       2.686 -11.583   2.049  0.00  0.00    +0.247 C 
ATOM     12  O   UNL     1       3.446 -12.476   2.367  0.00  0.00    -0.270 OA
ATOM     13  H   UNL     1       6.603  -9.432  -2.607  0.00  0.00    -0.086 HD
ATOM     14  H   UNL     1       7.771 -10.340  -1.886  0.00  0.00    -0.086 HD
ENDROOT
BRANCH  11  15
ATOM     15  C   UNL     1       1.239 -11.709   2.328  0.00  0.00    +0.043 A 
ATOM     16  C   UNL     1       0.495 -10.584   2.689  0.00  0.00    +0.013 A 
ATOM     17  C   UNL     1      -0.855 -10.705   2.949  0.00  0.00    +0.004 A 
ATOM     18  C   UNL     1      -1.474 -11.937   2.852  0.00  0.00    +0.047 A 
ATOM     19  C   UNL     1      -0.742 -13.061   2.494  0.00  0.00    +0.135 A 
ATOM     20  C   UNL     1       0.612 -12.950   2.226  0.00  0.00    +0.004 A 
ATOM     21  C   UNL     1       1.407 -14.168   1.832  0.00  0.00    +0.048 C 
BRANCH  19  22
ATOM     22  O   UNL     1      -1.356 -14.271   2.401  0.00  0.00    -0.426 OA
BRANCH  22  23
ATOM     23  C   UNL     1      -1.341 -15.070   3.480  0.00  0.00    +0.309 C 
ATOM     24  O   UNL     1      -0.874 -14.671   4.521  0.00  0.00    -0.251 OA
ATOM     25  C   UNL     1      -1.905 -16.465   3.392  0.00  0.00    +0.136 C 
ENDBRANCH  22  23
ENDBRANCH  19  22
ENDBRANCH  11  15
BRANCH   1  27
ATOM     26  N   UNL     1       3.014  -6.747  -1.614  0.00  0.00    -0.315 N 
ATOM     27  C   UNL     1       3.081  -7.344  -0.407  0.00  0.00    +0.218 C 
ATOM     28  O   UNL     1       3.223  -6.673   0.593  0.00  0.00    -0.275 OA
ATOM     29  H   UNL     1       2.901  -7.283  -2.414  0.00  0.00    +0.149 HD
BRANCH  26  30
ATOM     30  C   UNL     1       3.112  -5.289  -1.717  0.00  0.00    +0.109 C 
BRANCH  30  31
ATOM     31  C   UNL     1       3.007  -4.873  -3.186  0.00  0.00    +0.054 C 
BRANCH  31  36
ATOM     32  C   UNL     1       3.393   0.878  -3.594  0.00  0.00    +0.044 C 
ATOM     33  C   UNL     1       3.292  -0.622  -3.488  0.00  0.00    -0.048 A 
ATOM     34  C   UNL     1       4.435  -1.397  -3.547  0.00  0.00    +0.004 A 
ATOM     35  C   UNL     1       4.343  -2.773  -3.450  0.00  0.00    +0.004 A 
ATOM     36  C   UNL     1       3.108  -3.373  -3.291  0.00  0.00    -0.046 A 
ATOM     37  C   UNL     1       1.965  -2.598  -3.231  0.00  0.00    +0.007 A 
ATOM     38  C   UNL     1       2.058  -1.222  -3.324  0.00  0.00    -0.047 A 
ATOM     39  C   UNL     1       0.812  -0.376  -3.253  0.00  0.00    +0.044 C 
ENDBRANCH  31  36
ENDBRANCH  30  31
ENDBRANCH  26  30
ENDBRANCH   1  27
TORSDOF 7
