REMARK  Name = ZINC11254228
REMARK  6 active torsions:
REMARK  status: ('A' for Active; 'I' for Inactive)
REMARK    1  A    between atoms: C_1  and  C_2
REMARK    2  A    between atoms: C_2  and  C_4
REMARK    3  A    between atoms: C_2  and  S_13
REMARK    4  A    between atoms: N_9  and  C_10
REMARK    5  A    between atoms: S_13  and  C_14
REMARK    6  A    between atoms: N_27  and  C_28
REMARK                            x       y       z     vdW  Elec       q    Type
REMARK                         _______ _______ _______ _____ _____    ______ ____
ROOT
ATOM      1  C   UNL     1       2.735  -3.001   0.587  0.00  0.00    +0.174 A 
ATOM      2  N   UNL     1       3.703  -2.185   0.223  0.00  0.00    -0.216 NA
ATOM      3  C   UNL     1       4.970  -2.583   0.236  0.00  0.00    +0.117 A 
ATOM      4  C   UNL     1       5.341  -3.881   0.624  0.00  0.00    +0.076 A 
ATOM      5  C   UNL     1       6.775  -4.176   0.581  0.00  0.00    -0.023 A 
ATOM      6  C   UNL     1       7.592  -3.181   0.180  0.00  0.00    -0.004 A 
ATOM      7  S   UNL     1       6.519  -1.813  -0.163  0.00  0.00    -0.073 S 
ATOM      8  C   UNL     1       9.084  -3.228   0.052  0.00  0.00    +0.043 C 
ATOM      9  C   UNL     1       9.596  -4.468   0.799  0.00  0.00    +0.005 C 
ATOM     10  C   UNL     1       8.747  -5.675   0.389  0.00  0.00    +0.005 C 
ATOM     11  C   UNL     1       7.338  -5.540   0.969  0.00  0.00    +0.037 C 
ATOM     12  C   UNL     1       4.269  -4.747   1.009  0.00  0.00    +0.263 A 
ATOM     13  O   UNL     1       4.496  -5.892   1.361  0.00  0.00    -0.267 OA
ATOM     14  N   UNL     1       3.008  -4.280   0.978  0.00  0.00    -0.284 N 
ENDROOT
BRANCH  14  15
ATOM     15  C   UNL     1       1.905  -5.162   1.371  0.00  0.00    +0.093 C 
ATOM     16  C   UNL     1       2.122  -5.668   2.812  0.00  0.00    +0.025 C 
ATOM     17  C   UNL     1       1.612  -7.131   2.780  0.00  0.00    +0.002 C 
ATOM     18  C   UNL     1       2.078  -7.626   1.389  0.00  0.00    +0.002 C 
ATOM     19  C   UNL     1       1.878  -6.406   0.466  0.00  0.00    +0.025 C 
ENDBRANCH  14  15
BRANCH   1  20
ATOM     20  S   UNL     1       1.067  -2.437   0.562  0.00  0.00    -0.075 S 
BRANCH  20  22
ATOM     21  C   UNL     1       1.871  -0.762  -1.441  0.00  0.00    +0.029 C 
ATOM     22  C   UNL     1       1.317  -0.740  -0.015  0.00  0.00    +0.137 C 
BRANCH  22  23
ATOM     23  C   UNL     1       0.002  -0.004   0.002  0.00  0.00    +0.233 C 
ATOM     24  O   UNL     1      -1.040  -0.625   0.009  0.00  0.00    -0.274 OA
ATOM     25  N   UNL     1      -0.016   1.344   0.009  0.00  0.00    -0.239 N 
ATOM     26  C   UNL     1      -1.192   2.002   0.019  0.00  0.00    +0.306 C 
ATOM     27  O   UNL     1      -2.237   1.380   0.020  0.00  0.00    -0.252 OA
ATOM     28  N   UNL     1      -1.211   3.349   0.026  0.00  0.00    -0.296 N 
ATOM     29  H   UNL     1       0.817   1.840   0.004  0.00  0.00    +0.159 HD
ATOM     30  H   UNL     1      -0.377   3.845   0.025  0.00  0.00    +0.151 HD
BRANCH  28  31
ATOM     31  C   UNL     1      -2.489   4.064   0.036  0.00  0.00    +0.075 C 
ATOM     32  C   UNL     1      -2.632   5.270  -0.895  0.00  0.00    +0.024 C 
ATOM     33  C   UNL     1      -2.502   5.480   0.615  0.00  0.00    +0.024 C 
ENDBRANCH  28  31
ENDBRANCH  22  23
ENDBRANCH  20  22
ENDBRANCH   1  20
TORSDOF 5
