REMARK  Name = ZINC63072262
REMARK  6 active torsions:
REMARK  status: ('A' for Active; 'I' for Inactive)
REMARK    1  A    between atoms: C_1  and  C_2
REMARK    2  A    between atoms: C_2  and  C_4
REMARK    3  A    between atoms: C_2  and  C_7
REMARK    4  A    between atoms: C_4  and  N_6
REMARK    5  A    between atoms: C_13  and  C_14
REMARK    6  A    between atoms: C_13  and  C_15
REMARK                            x       y       z     vdW  Elec       q    Type
REMARK                         _______ _______ _______ _____ _____    ______ ____
ROOT
ATOM      1  C   UNL     1       0.902  -0.269   1.181  0.00  0.00    +0.225 C 
ATOM      2  O   UNL     1       2.020  -0.705   1.005  0.00  0.00    -0.275 OA
ATOM      3  N   UNL     1       0.465  -0.021   2.432  0.00  0.00    -0.296 N 
ATOM      4  C   UNL     1      -0.867   0.500   2.789  0.00  0.00    +0.108 C 
ATOM      5  C   UNL     1      -1.100   0.030   4.246  0.00  0.00    +0.021 C 
ATOM      6  C   UNL     1       0.324   0.163   4.848  0.00  0.00    +0.027 C 
ATOM      7  C   UNL     1       1.234  -0.233   3.667  0.00  0.00    +0.032 C 
ATOM      8  C   UNL     1       1.634  -1.705   3.785  0.00  0.00    +0.031 C 
ATOM      9  C   UNL     1       2.485   0.649   3.658  0.00  0.00    +0.031 C 
ENDROOT
BRANCH   1  11
ATOM     10  C   UNL     1       0.244   1.415  -0.516  0.00  0.00    +0.024 C 
ATOM     11  C   UNL     1       0.002  -0.004   0.002  0.00  0.00    +0.123 C 
BRANCH  11  12
ATOM     12  C   UNL     1       0.302  -0.996  -1.092  0.00  0.00    +0.058 C 
ATOM     13  S   UNL     1       1.162  -0.548  -2.363  0.00  0.00    -0.040 S 
BRANCH  12  14
ATOM     14  N   UNL     1      -0.154  -2.261  -0.999  0.00  0.00    -0.355 N 
ATOM     15  H   UNL     1      -0.676  -2.533  -0.227  0.00  0.00    +0.143 HD
ATOM     16  H   UNL     1       0.039  -2.900  -1.703  0.00  0.00    +0.143 HD
ENDBRANCH  12  14
ENDBRANCH  11  12
ENDBRANCH   1  11
TORSDOF 3
