REMARK  Name = ZINC06598045
REMARK  2 active torsions:
REMARK  status: ('A' for Active; 'I' for Inactive)
REMARK    1  A    between atoms: C_4  and  C_7
REMARK    2  A    between atoms: C_15  and  O_24
REMARK                            x       y       z     vdW  Elec       q    Type
REMARK                         _______ _______ _______ _____ _____    ______ ____
ROOT
ATOM      1  C   UNL     1       3.797   1.925  -0.732  0.00  0.00    +0.067 C 
ATOM      2  C   UNL     1       4.268   2.726  -1.953  0.00  0.00    +0.059 C 
ATOM      3  C   UNL     1       5.700   2.474  -2.390  0.00  0.00    +0.009 C 
ATOM      4  C   UNL     1       5.926   3.298  -3.677  0.00  0.00    +0.001 C 
ATOM      5  C   UNL     1       4.936   2.908  -4.771  0.00  0.00    +0.005 C 
ATOM      6  C   UNL     1       3.483   3.021  -4.279  0.00  0.00    +0.065 C 
ATOM      7  C   UNL     1       3.350   2.134  -3.059  0.00  0.00    +0.172 C 
ATOM      8  O   UNL     1       2.078   2.084  -2.421  0.00  0.00    -0.334 OA
ATOM      9  C   UNL     1       2.341   1.561  -1.100  0.00  0.00    +0.137 C 
ATOM     10  C   UNL     1       2.168   0.045  -1.099  0.00  0.00    +0.043 C 
ATOM     11  C   UNL     1       0.693  -0.300  -1.321  0.00  0.00    +0.004 C 
ATOM     12  C   UNL     1      -0.146   0.253  -0.168  0.00  0.00    +0.008 C 
ATOM     13  C   UNL     1      -0.066   1.783  -0.161  0.00  0.00    +0.077 C 
ATOM     14  C   UNL     1       1.393   2.185  -0.108  0.00  0.00    +0.166 C 
ATOM     15  O   UNL     1       1.787   2.983   0.707  0.00  0.00    -0.294 OA
ENDROOT
BRANCH   1  19
ATOM     16  C   UNL     1       3.910   4.325   2.800  0.00  0.00    +0.000 A 
ATOM     17  C   UNL     1       3.960   2.947   2.899  0.00  0.00    +0.000 A 
ATOM     18  C   UNL     1       3.923   2.171   1.756  0.00  0.00    +0.004 A 
ATOM     19  C   UNL     1       3.836   2.772   0.514  0.00  0.00    -0.041 A 
ATOM     20  C   UNL     1       3.791   4.150   0.415  0.00  0.00    +0.004 A 
ATOM     21  C   UNL     1       3.823   4.926   1.558  0.00  0.00    +0.000 A 
ENDBRANCH   1  19
BRANCH   7  22
ATOM     22  O   UNL     1       3.779   0.808  -3.380  0.00  0.00    -0.364 OA
ATOM     23  H   UNL     1       3.248   0.379  -4.065  0.00  0.00    +0.213 HD
ENDBRANCH   7  22
TORSDOF 2
