REMARK  Name = ZINC39357783
REMARK  13 active torsions:
REMARK  status: ('A' for Active; 'I' for Inactive)
REMARK    1  A    between atoms: C_1  and  C_2
REMARK    2  A    between atoms: C_7  and  C_8
REMARK    3  A    between atoms: N_10  and  C_11
REMARK    4  A    between atoms: C_16  and  C_26
REMARK    5  A    between atoms: C_20  and  C_22
REMARK    6  A    between atoms: C_22  and  O_24
REMARK    7  A    between atoms: O_24  and  C_25
REMARK    8  A    between atoms: C_26  and  N_27
REMARK    9  A    between atoms: N_27  and  C_28
REMARK   10  A    between atoms: N_27  and  C_29
REMARK   11  A    between atoms: C_29  and  C_30
REMARK   12  A    between atoms: C_31  and  C_37
REMARK   13  A    between atoms: C_34  and  C_36
REMARK                            x       y       z     vdW  Elec       q    Type
REMARK                         _______ _______ _______ _____ _____    ______ ____
ROOT
ATOM      1  C   UNL     1       0.628  -0.525   5.286  0.00  0.00    +0.130 C 
ATOM      2  C   UNL     1       1.930   0.233   5.241  0.00  0.00    +0.006 A 
ATOM      3  C   UNL     1       2.135   1.519   4.733  0.00  0.00    +0.010 A 
ATOM      4  C   UNL     1       3.405   2.064   4.754  0.00  0.00    +0.022 A 
ATOM      5  C   UNL     1       4.458   1.338   5.273  0.00  0.00    +0.026 A 
ATOM      6  N   UNL     1       4.248   0.127   5.756  0.00  0.00    -0.247 NA
ATOM      7  C   UNL     1       3.048  -0.420   5.760  0.00  0.00    +0.103 A 
ATOM      8  S   UNL     1       2.473  -1.989   6.372  0.00  0.00    -0.089 S 
ATOM      9  C   UNL     1       0.665  -1.659   6.336  0.00  0.00    +0.186 C 
ENDROOT
BRANCH   1  12
ATOM     10  C   UNL     1      -0.414  -0.449   3.085  0.00  0.00    +0.245 C 
ATOM     11  O   UNL     1      -0.900   0.624   3.385  0.00  0.00    -0.270 OA
ATOM     12  N   UNL     1       0.366  -1.105   3.966  0.00  0.00    -0.303 N 
ATOM     13  H   UNL     1       0.754  -1.961   3.727  0.00  0.00    +0.150 HD
BRANCH  10  20
ATOM     14  C   UNL     1      -2.309   0.829   1.312  0.00  0.00    +0.044 C 
ATOM     15  C   UNL     1      -1.590  -0.426   0.889  0.00  0.00    -0.038 A 
ATOM     16  C   UNL     1      -1.828  -0.974  -0.355  0.00  0.00    +0.004 A 
ATOM     17  C   UNL     1      -1.168  -2.126  -0.744  0.00  0.00    +0.000 A 
ATOM     18  C   UNL     1      -0.267  -2.737   0.110  0.00  0.00    +0.001 A 
ATOM     19  C   UNL     1      -0.020  -2.199   1.356  0.00  0.00    +0.013 A 
ATOM     20  C   UNL     1      -0.678  -1.034   1.753  0.00  0.00    +0.040 A 
ENDBRANCH  10  20
ENDBRANCH   1  12
BRANCH   9  21
ATOM     21  C   UNL     1      -0.103  -2.868   5.867  0.00  0.00    +0.322 C 
ATOM     22  O   UNL     1      -1.298  -2.927   6.036  0.00  0.00    -0.250 OA
BRANCH  21  23
ATOM     23  O   UNL     1       0.541  -3.878   5.262  0.00  0.00    -0.467 OA
ATOM     24  C   UNL     1      -0.250  -4.993   4.843  0.00  0.00    +0.280 C 
ENDBRANCH  21  23
ENDBRANCH   9  21
BRANCH   5  25
ATOM     25  C   UNL     1       5.845   1.926   5.288  0.00  0.00    -0.022 C 
BRANCH  25  26
ATOM     26  N   UNL     1       6.096   2.556   6.591  0.00  0.00    +0.384 N 
ATOM     27  C   UNL     1       5.188   3.698   6.766  0.00  0.00    -0.095 C 
ATOM     28  H   UNL     1       5.936   1.884   7.327  0.00  0.00    -0.081 HD
BRANCH  26  29
ATOM     29  C   UNL     1       7.487   3.024   6.650  0.00  0.00    -0.043 C 
BRANCH  29  30
ATOM     30  C   UNL     1       7.784   3.545   8.033  0.00  0.00    -0.038 C 
ATOM     31  C   UNL     1       7.771   4.811   8.455  0.00  0.00    +0.060 C 
ATOM     32  N   UNL     1       8.092   4.883   9.765  0.00  0.00    -0.159 NA
ATOM     33  N   UNL     1       8.327   3.795  10.296  0.00  0.00    -0.180 NA
ATOM     34  C   UNL     1       8.161   2.751   9.271  0.00  0.00    +0.151 C 
ATOM     35  C   UNL     1       9.475   1.998   9.052  0.00  0.00    +0.039 C 
ATOM     36  C   UNL     1       7.443   5.999   7.587  0.00  0.00    +0.067 C 
ENDBRANCH  29  30
ENDBRANCH  26  29
ENDBRANCH  25  26
ENDBRANCH   5  25
TORSDOF 8
