REMARK  Name = ZINC06810467
REMARK  10 active torsions:
REMARK  status: ('A' for Active; 'I' for Inactive)
REMARK    1  A    between atoms: C_1  and  C_2
REMARK    2  A    between atoms: C_3  and  C_22
REMARK    3  A    between atoms: C_4  and  N_10
REMARK    4  A    between atoms: C_6  and  C_7
REMARK    5  A    between atoms: C_7  and  C_9
REMARK    6  A    between atoms: C_11  and  C_13
REMARK    7  A    between atoms: C_17  and  S_19
REMARK    8  A    between atoms: S_19  and  C_20
REMARK    9  A    between atoms: C_22  and  O_24
REMARK   10  A    between atoms: O_24  and  C_25
REMARK                            x       y       z     vdW  Elec       q    Type
REMARK                         _______ _______ _______ _____ _____    ______ ____
ROOT
ATOM      1  C   UNL     1      -8.597  -2.637   0.071  0.00  0.00    +0.046 C 
ATOM      2  C   UNL     1      -7.166  -3.111   0.054  0.00  0.00    -0.017 A 
ATOM      3  C   UNL     1      -6.112  -2.216   0.050  0.00  0.00    +0.091 A 
ATOM      4  C   UNL     1      -4.811  -2.736   0.034  0.00  0.00    +0.087 A 
ATOM      5  S   UNL     1      -5.073  -4.449   0.021  0.00  0.00    -0.069 S 
ATOM      6  C   UNL     1      -6.856  -4.460   0.044  0.00  0.00    +0.060 A 
ENDROOT
BRANCH   4   7
ATOM      7  N   UNL     1      -3.614  -2.052   0.026  0.00  0.00    -0.274 N 
ATOM      8  C   UNL     1      -2.450  -2.731   0.011  0.00  0.00    +0.269 C 
ATOM      9  O   UNL     1      -2.455  -3.945   0.005  0.00  0.00    -0.268 OA
ATOM     10  H   UNL     1      -3.610  -1.082   0.031  0.00  0.00    +0.156 HD
BRANCH   8  11
ATOM     11  C   UNL     1      -1.163  -1.994   0.002  0.00  0.00    +0.148 A 
ATOM     12  C   UNL     1       0.050  -2.687  -0.013  0.00  0.00    +0.090 A 
ATOM     13  C   UNL     1       1.230  -1.953  -0.020  0.00  0.00    +0.136 A 
ATOM     14  N   UNL     1       1.169  -0.634  -0.013  0.00  0.00    -0.229 NA
ATOM     15  C   UNL     1       0.002  -0.004   0.002  0.00  0.00    +0.189 A 
ATOM     16  N   UNL     1      -1.145  -0.664   0.015  0.00  0.00    -0.216 NA
ATOM     17 CL   UNL     1       0.083  -4.423  -0.023  0.00  0.00    -0.080 Cl
BRANCH  15  18
ATOM     18  S   UNL     1      -0.022   1.758   0.012  0.00  0.00    -0.089 S 
ATOM     19  C   UNL     1       1.756   2.096  -0.004  0.00  0.00    +0.093 C 
ENDBRANCH  15  18
ENDBRANCH   8  11
ENDBRANCH   4   7
BRANCH   6  20
ATOM     20  C   UNL     1      -7.730  -5.566   0.046  0.00  0.00    +0.167 C 
ATOM     21  O   UNL     1      -8.932  -5.389   0.058  0.00  0.00    -0.292 OA
ATOM     22  C   UNL     1      -7.174  -6.966   0.033  0.00  0.00    +0.092 C 
ENDBRANCH   6  20
BRANCH   3  23
ATOM     23  C   UNL     1      -6.348  -0.767   0.060  0.00  0.00    +0.342 C 
ATOM     24  O   UNL     1      -6.456  -0.161  -0.988  0.00  0.00    -0.245 OA
BRANCH  23  25
ATOM     25  O   UNL     1      -6.445  -0.108   1.233  0.00  0.00    -0.464 OA
ATOM     26  C   UNL     1      -6.679   1.323   1.168  0.00  0.00    +0.280 C 
ENDBRANCH  23  25
ENDBRANCH   3  23
TORSDOF 6
