REMARK  Name = ZINC43764237
REMARK  6 active torsions:
REMARK  status: ('A' for Active; 'I' for Inactive)
REMARK    1  A    between atoms: C_1  and  C_2
REMARK    2  A    between atoms: C_5  and  O_28
REMARK    3  A    between atoms: C_18  and  C_27
REMARK    4  A    between atoms: C_23  and  C_25
REMARK    5  A    between atoms: C_25  and  O_26
REMARK    6  A    between atoms: O_28  and  C_29
REMARK                            x       y       z     vdW  Elec       q    Type
REMARK                         _______ _______ _______ _____ _____    ______ ____
ROOT
ATOM      1  C   UNL     1       0.027   1.474  -0.118  0.00  0.00    +0.012 C 
ATOM      2  C   UNL     1       0.025  -0.064  -0.116  0.00  0.00    -0.026 C 
ATOM      3  C   UNL     1       0.716  -0.538  -1.397  0.00  0.00    +0.010 C 
ATOM      4  C   UNL     1       2.169  -0.069  -1.427  0.00  0.00    +0.032 C 
ATOM      5  C   UNL     1       2.917  -0.606  -0.205  0.00  0.00    +0.122 C 
ATOM      6  C   UNL     1       2.237  -0.126   1.078  0.00  0.00    +0.035 C 
ATOM      7  C   UNL     1       0.784  -0.587   1.098  0.00  0.00    -0.002 C 
ATOM      8  C   UNL     1       0.094  -0.098   2.371  0.00  0.00    +0.004 C 
ATOM      9  C   UNL     1      -1.315  -0.673   2.419  0.00  0.00    +0.004 C 
ATOM     10  C   UNL     1      -2.155  -0.234   1.212  0.00  0.00    -0.004 C 
ATOM     11  C   UNL     1      -1.424  -0.525  -0.096  0.00  0.00    -0.001 C 
ATOM     12  C   UNL     1      -1.605  -1.986  -0.489  0.00  0.00    +0.005 C 
ATOM     13  C   UNL     1      -3.054  -2.179  -0.991  0.00  0.00    +0.007 C 
ATOM     14  C   UNL     1      -3.992  -1.356  -0.148  0.00  0.00    -0.024 C 
ATOM     15  C   UNL     1      -3.427  -1.070   1.252  0.00  0.00    -0.001 C 
ATOM     16  C   UNL     1      -4.622  -0.402   1.950  0.00  0.00    +0.005 C 
ATOM     17  C   UNL     1      -5.857  -1.153   1.387  0.00  0.00    +0.006 C 
ATOM     18  C   UNL     1      -5.338  -2.017   0.209  0.00  0.00    +0.021 C 
ATOM     19  C   UNL     1      -4.353  -0.053  -0.880  0.00  0.00    +0.012 C 
ENDROOT
BRANCH  18  20
ATOM     20  C   UNL     1      -5.154  -3.456   0.669  0.00  0.00    +0.160 C 
BRANCH  20  21
ATOM     21  O   UNL     1      -6.433  -4.058   0.876  0.00  0.00    -0.395 OA
ATOM     22  H   UNL     1      -6.392  -4.978   1.171  0.00  0.00    +0.209 HD
ENDBRANCH  20  21
ENDBRANCH  18  20
BRANCH   5  23
ATOM     23  O   UNL     1       4.270  -0.145  -0.238  0.00  0.00    -0.348 OA
BRANCH  23  24
ATOM     24  C   UNL     1       5.166  -1.018  -0.928  0.00  0.00    +0.250 C 
ATOM     25  C   UNL     1       6.608  -0.563  -0.691  0.00  0.00    +0.061 C 
ATOM     26  C   UNL     1       7.558  -1.467  -1.483  0.00  0.00    +0.007 C 
ATOM     27  C   UNL     1       7.170  -1.423  -2.965  0.00  0.00    +0.028 C 
ATOM     28  C   UNL     1       5.706  -1.845  -3.114  0.00  0.00    +0.163 C 
ATOM     29  O   UNL     1       4.880  -0.983  -2.328  0.00  0.00    -0.351 OA
ENDBRANCH  23  24
ENDBRANCH   5  23
TORSDOF 4
