REMARK  Name = ZINC17075838
REMARK  4 active torsions:
REMARK  status: ('A' for Active; 'I' for Inactive)
REMARK    1  A    between atoms: C_1  and  C_2
REMARK    2  A    between atoms: C_3  and  C_18
REMARK    3  A    between atoms: C_7  and  C_13
REMARK    4  A    between atoms: C_10  and  C_12
REMARK                            x       y       z     vdW  Elec       q    Type
REMARK                         _______ _______ _______ _____ _____    ______ ____
ROOT
ATOM      1  C   UNL     1       0.974   6.537  -2.302  0.00  0.00    +0.068 C 
ATOM      2  C   UNL     1       0.376   6.986  -0.993  0.00  0.00    +0.070 A 
ATOM      3  C   UNL     1      -0.081   6.138   0.035  0.00  0.00    +0.049 A 
ATOM      4  C   UNL     1      -0.556   6.944   1.047  0.00  0.00    +0.160 A 
ATOM      5  N   UNL     1      -0.373   8.244   0.645  0.00  0.00    -0.235 N 
ATOM      6  N   UNL     1       0.196   8.230  -0.622  0.00  0.00    -0.173 NA
ATOM      7  C   UNL     1      -0.749   9.377   1.496  0.00  0.00    +0.180 C 
ATOM      8  C   UNL     1      -1.937   8.938   2.366  0.00  0.00    +0.085 C 
ATOM      9  C   UNL     1      -1.727   7.554   2.912  0.00  0.00    +0.021 C 
ATOM     10  N   UNL     1      -1.094   6.633   2.258  0.00  0.00    -0.237 NA
ATOM     11  C   UNL     1      -2.275   7.224   4.276  0.00  0.00    +0.061 C 
ENDROOT
BRANCH   3  12
ATOM     12  C   UNL     1      -0.061   4.655   0.028  0.00  0.00    -0.013 A 
ATOM     13  C   UNL     1       1.154   3.972   0.012  0.00  0.00    +0.010 A 
ATOM     14  C   UNL     1       1.167   2.593   0.005  0.00  0.00    +0.016 A 
ATOM     15  C   UNL     1      -0.024   1.887   0.012  0.00  0.00    +0.018 A 
ATOM     16  C   UNL     1      -1.233   2.560   0.022  0.00  0.00    +0.016 A 
ATOM     17  C   UNL     1      -1.258   3.939   0.035  0.00  0.00    +0.010 A 
ATOM     18 BR   UNL     1       0.002  -0.004   0.002  0.00  0.00    -0.050 Br
ENDBRANCH   3  12
BRANCH   7  19
ATOM     19  C   UNL     1       0.417   9.772   2.364  0.00  0.00    +0.130 A 
ATOM     20  C   UNL     1       1.020  10.975   2.372  0.00  0.00    +0.047 A 
ATOM     21  C   UNL     1       2.058  10.906   3.330  0.00  0.00    +0.041 A 
ATOM     22  C   UNL     1       2.027   9.666   3.850  0.00  0.00    +0.195 A 
ATOM     23  O   UNL     1       1.028   8.985   3.265  0.00  0.00    -0.466 OA
ENDBRANCH   7  19
TORSDOF 2
