REMARK  Name = ZINC14540133
REMARK  6 active torsions:
REMARK  status: ('A' for Active; 'I' for Inactive)
REMARK    1  A    between atoms: C_1  and  C_2
REMARK    2  A    between atoms: C_2  and  C_3
REMARK    3  A    between atoms: C_2  and  N_53
REMARK    4  A    between atoms: C_4  and  N_53
REMARK    5  A    between atoms: C_10  and  C_14
REMARK    6  A    between atoms: N_12  and  C_13
REMARK                            x       y       z     vdW  Elec       q    Type
REMARK                         _______ _______ _______ _____ _____    ______ ____
ROOT
ATOM      1  C   UNL     1       2.823   0.250   0.369  0.00  0.00    -0.067 C 
ATOM      2  C   UNL     1       1.869  -0.499  -0.566  0.00  0.00    -0.009 C 
ATOM      3  C   UNL     1       0.419  -0.135  -0.224  0.00  0.00    +0.054 C 
ATOM      4  C   UNL     1       0.310   1.367  -0.161  0.00  0.00    +0.043 A 
ATOM      5  C   UNL     1       1.376   2.198  -0.052  0.00  0.00    +0.004 A 
ATOM      6  C   UNL     1       0.849   3.501  -0.029  0.00  0.00    +0.151 A 
ATOM      7  N   UNL     1      -0.464   3.380  -0.120  0.00  0.00    -0.166 NA
ATOM      8  N   UNL     1      -0.790   2.136  -0.202  0.00  0.00    -0.270 N 
ATOM      9  C   UNL     1      -2.162   1.634  -0.320  0.00  0.00    +0.172 C 
ATOM     10  C   UNL     1       2.808   1.746   0.024  0.00  0.00    +0.023 C 
ENDROOT
BRANCH   6  11
ATOM     11  C   UNL     1       1.614   4.760   0.077  0.00  0.00    +0.267 C 
ATOM     12  O   UNL     1       2.829   4.737   0.049  0.00  0.00    -0.268 OA
ATOM     13  N   UNL     1       0.965   5.934   0.204  0.00  0.00    -0.292 N 
ATOM     14  C   UNL     1       1.691   7.215   0.206  0.00  0.00    +0.113 C 
ATOM     15  C   UNL     1       1.254   8.006  -1.025  0.00  0.00    +0.054 C 
ATOM     16  C   UNL     1      -0.247   8.006  -1.157  0.00  0.00    -0.041 A 
ATOM     17  C   UNL     1      -0.825   8.999  -1.940  0.00  0.00    +0.004 A 
ATOM     18  C   UNL     1      -2.192   9.050  -2.110  0.00  0.00    +0.000 A 
ATOM     19  C   UNL     1      -2.998   8.106  -1.500  0.00  0.00    +0.000 A 
ATOM     20  C   UNL     1      -2.427   7.122  -0.719  0.00  0.00    +0.005 A 
ATOM     21  C   UNL     1      -1.051   7.073  -0.542  0.00  0.00    -0.027 A 
ATOM     22  C   UNL     1      -0.495   5.988   0.339  0.00  0.00    +0.143 C 
ENDBRANCH   6  11
BRANCH   1  23
ATOM     23  N   UNL     1       4.188  -0.282   0.196  0.00  0.00    +0.383 N 
ATOM     24  H   UNL     1       4.142  -1.302   0.084  0.00  0.00    -0.085 HD
ATOM     25  H   UNL     1       4.611   0.135  -0.641  0.00  0.00    -0.085 HD
BRANCH  23  27
ATOM     26  C   UNL     1       4.723  -0.957   2.494  0.00  0.00    -0.014 C 
ATOM     27  C   UNL     1       5.016   0.041   1.372  0.00  0.00    -0.078 C 
ATOM     28  C   UNL     1       6.494  -0.046   0.985  0.00  0.00    -0.014 C 
ENDBRANCH  23  27
ENDBRANCH   1  23
TORSDOF 3
