REMARK  Name = ZINC63598850
REMARK  5 active torsions:
REMARK  status: ('A' for Active; 'I' for Inactive)
REMARK    1  A    between atoms: C_4  and  N_7
REMARK    2  A    between atoms: N_10  and  N_11
REMARK    3  A    between atoms: C_12  and  C_14
REMARK    4  A    between atoms: C_19  and  O_24
REMARK    5  A    between atoms: O_24  and  C_25
REMARK                            x       y       z     vdW  Elec       q    Type
REMARK                         _______ _______ _______ _____ _____    ______ ____
ROOT
ATOM      1  N   UNL     1       6.023  -1.922   0.136  0.00  0.00    -0.231 N 
ATOM      2  C   UNL     1       7.201  -2.571   0.223  0.00  0.00    +0.255 C 
ATOM      3  O   UNL     1       7.222  -3.781   0.307  0.00  0.00    -0.272 OA
ATOM      4  H   UNL     1       6.006  -0.955   0.068  0.00  0.00    +0.173 HD
ENDROOT
BRANCH   2   5
ATOM      5  C   UNL     1       8.492  -1.794   0.214  0.00  0.00    +0.191 C 
ATOM      6  C   UNL     1       8.874  -1.433  -1.205  0.00  0.00    +0.016 C 
ATOM      7  C   UNL     1      10.069  -2.022  -1.433  0.00  0.00    -0.000 A 
ATOM      8  C   UNL     1      10.958  -2.052  -2.600  0.00  0.00    +0.055 A 
ATOM      9  C   UNL     1      12.122  -2.742  -2.534  0.00  0.00    +0.131 A 
ATOM     10  C   UNL     1      12.518  -3.438  -1.379  0.00  0.00    +0.048 A 
ATOM     11  C   UNL     1      11.769  -3.469  -0.256  0.00  0.00    +0.029 A 
ATOM     12  C   UNL     1      10.488  -2.756  -0.216  0.00  0.00    +0.043 A 
ATOM     13  N   UNL     1       9.586  -2.626   0.727  0.00  0.00    -0.370 N 
ATOM     14  H   UNL     1       9.634  -3.014   1.615  0.00  0.00    +0.161 HD
BRANCH   9  15
ATOM     15  O   UNL     1      12.935  -2.761  -3.623  0.00  0.00    -0.406 OA
BRANCH  15  16
ATOM     16  C   UNL     1      14.152  -3.501  -3.511  0.00  0.00    +0.575 C 
ATOM     17  F   UNL     1      13.860  -4.841  -3.236  0.00  0.00    -0.133 F 
ATOM     18  F   UNL     1      14.863  -3.416  -4.713  0.00  0.00    -0.133 F 
ATOM     19  F   UNL     1      14.926  -2.970  -2.473  0.00  0.00    -0.133 F 
ENDBRANCH  15  16
ENDBRANCH   9  15
ENDBRANCH   2   5
BRANCH   1  23
ATOM     20  N   UNL     1       3.622  -0.651  -0.036  0.00  0.00    -0.268 N 
ATOM     21  C   UNL     1       3.645  -1.995   0.058  0.00  0.00    +0.320 C 
ATOM     22  O   UNL     1       2.603  -2.622   0.065  0.00  0.00    -0.251 OA
ATOM     23  N   UNL     1       4.823  -2.644   0.144  0.00  0.00    -0.218 N 
ATOM     24  H   UNL     1       4.452  -0.156  -0.120  0.00  0.00    +0.156 HD
ATOM     25  H   UNL     1       4.839  -3.612   0.212  0.00  0.00    +0.174 HD
BRANCH  20  29
ATOM     26  C   UNL     1      -0.015   1.381   0.032  0.00  0.00    +0.000 A 
ATOM     27  C   UNL     1       0.140   0.219   0.766  0.00  0.00    +0.002 A 
ATOM     28  C   UNL     1       1.344  -0.457   0.745  0.00  0.00    +0.023 A 
ATOM     29  C   UNL     1       2.400   0.031  -0.013  0.00  0.00    +0.035 A 
ATOM     30  C   UNL     1       2.241   1.198  -0.749  0.00  0.00    +0.023 A 
ATOM     31  C   UNL     1       1.034   1.870  -0.724  0.00  0.00    +0.002 A 
ENDBRANCH  20  29
ENDBRANCH   1  23
TORSDOF 5
