REMARK  Name = ZINC08834891
REMARK  13 active torsions:
REMARK  status: ('A' for Active; 'I' for Inactive)
REMARK    1  A    between atoms: C_1  and  N_61
REMARK    2  A    between atoms: C_2  and  N_61
REMARK    3  A    between atoms: C_3  and  C_4
REMARK    4  A    between atoms: C_3  and  N_61
REMARK    5  A    between atoms: C_4  and  C_5
REMARK    6  A    between atoms: C_5  and  N_6
REMARK    7  A    between atoms: C_7  and  C_23
REMARK    8  A    between atoms: C_25  and  O_33
REMARK    9  A    between atoms: C_26  and  O_31
REMARK   10  A    between atoms: C_27  and  O_29
REMARK   11  A    between atoms: O_29  and  C_30
REMARK   12  A    between atoms: O_31  and  C_32
REMARK   13  A    between atoms: O_33  and  C_34
REMARK                            x       y       z     vdW  Elec       q    Type
REMARK                         _______ _______ _______ _____ _____    ______ ____
ROOT
ATOM      1  N   UNL     1       3.432   2.873  -0.015  0.00  0.00    -0.284 N 
ATOM      2  C   UNL     1       2.678   1.613  -0.015  0.00  0.00    +0.145 C 
ATOM      3  C   UNL     1       1.222   2.000   0.001  0.00  0.00    +0.072 A 
ATOM      4  C   UNL     1      -0.014   1.214   0.009  0.00  0.00    +0.199 A 
ATOM      5  O   UNL     1       0.002  -0.004   0.002  0.00  0.00    -0.287 OA
ATOM      6  C   UNL     1      -1.281   1.972   0.019  0.00  0.00    +0.066 A 
ATOM      7  C   UNL     1      -2.515   1.324   0.021  0.00  0.00    +0.035 A 
ATOM      8  C   UNL     1      -3.674   2.071   0.030  0.00  0.00    +0.042 A 
ATOM      9  C   UNL     1      -3.611   3.459   0.037  0.00  0.00    +0.023 A 
ATOM     10  C   UNL     1      -2.396   4.109   0.046  0.00  0.00    +0.048 A 
ATOM     11  C   UNL     1      -1.213   3.376   0.032  0.00  0.00    +0.140 A 
ATOM     12  O   UNL     1      -0.021   4.000   0.024  0.00  0.00    -0.450 OA
ATOM     13  C   UNL     1       1.161   3.354   0.009  0.00  0.00    +0.199 A 
ATOM     14  C   UNL     1       2.548   3.885  -0.001  0.00  0.00    +0.283 C 
ATOM     15  O   UNL     1       2.841   5.064   0.002  0.00  0.00    -0.267 OA
ATOM     16 CL   UNL     1      -5.217   1.275   0.032  0.00  0.00    -0.084 Cl
ENDROOT
BRANCH   2  17
ATOM     17  C   UNL     1       3.014   0.807   1.214  0.00  0.00    -0.015 A 
ATOM     18  C   UNL     1       3.217   1.446   2.423  0.00  0.00    +0.055 A 
ATOM     19  C   UNL     1       3.521   0.707   3.557  0.00  0.00    +0.165 A 
ATOM     20  C   UNL     1       3.631  -0.676   3.474  0.00  0.00    +0.204 A 
ATOM     21  C   UNL     1       3.432  -1.313   2.255  0.00  0.00    +0.165 A 
ATOM     22  C   UNL     1       3.124  -0.568   1.127  0.00  0.00    +0.055 A 
BRANCH  21  23
ATOM     23  O   UNL     1       3.540  -2.666   2.169  0.00  0.00    -0.491 OA
ATOM     24  C   UNL     1       3.322  -3.254   0.884  0.00  0.00    +0.277 C 
ENDBRANCH  21  23
BRANCH  20  25
ATOM     25  O   UNL     1       3.935  -1.404   4.583  0.00  0.00    -0.488 OA
ATOM     26  C   UNL     1       5.320  -1.635   4.848  0.00  0.00    +0.277 C 
ENDBRANCH  20  25
BRANCH  19  27
ATOM     27  O   UNL     1       3.715   1.336   4.747  0.00  0.00    -0.491 OA
ATOM     28  C   UNL     1       3.585   2.759   4.758  0.00  0.00    +0.277 C 
ENDBRANCH  19  27
ENDBRANCH   2  17
BRANCH   1  29
ATOM     29  C   UNL     1       4.891   3.003  -0.028  0.00  0.00    +0.107 C 
BRANCH  29  30
ATOM     30  C   UNL     1       5.386   3.057  -1.474  0.00  0.00    +0.000 C 
BRANCH  30  31
ATOM     31  C   UNL     1       6.909   3.193  -1.488  0.00  0.00    -0.078 C 
BRANCH  31  34
ATOM     32  C   UNL     1       8.806   3.612  -2.934  0.00  0.00    -0.097 C 
ATOM     33  C   UNL     1       7.142   1.969  -3.564  0.00  0.00    -0.097 C 
ATOM     34  N   UNL     1       7.369   3.265  -2.891  0.00  0.00    +0.376 N 
ATOM     35  H   UNL     1       6.835   3.993  -3.380  0.00  0.00    -0.083 HD
ENDBRANCH  31  34
ENDBRANCH  30  31
ENDBRANCH  29  30
ENDBRANCH   1  29
TORSDOF 8
