REMARK  Name = ZINC06409681
REMARK  11 active torsions:
REMARK  status: ('A' for Active; 'I' for Inactive)
REMARK    1  A    between atoms: C_1  and  C_2
REMARK    2  A    between atoms: C_7  and  C_14
REMARK    3  A    between atoms: C_14  and  N_65
REMARK    4  A    between atoms: C_15  and  C_16
REMARK    5  A    between atoms: C_15  and  N_65
REMARK    6  A    between atoms: C_19  and  O_22
REMARK    7  A    between atoms: O_22  and  C_23
REMARK    8  A    between atoms: C_24  and  C_25
REMARK    9  A    between atoms: C_24  and  N_65
REMARK   10  A    between atoms: N_29  and  C_30
REMARK   11  A    between atoms: C_30  and  C_31
REMARK                            x       y       z     vdW  Elec       q    Type
REMARK                         _______ _______ _______ _____ _____    ______ ____
ROOT
ATOM      1  N   UNL     1       1.621  -3.052  -5.247  0.00  0.00    +0.390 N 
ATOM      2  H   UNL     1       1.404  -2.124  -5.628  0.00  0.00    -0.080 HD
ENDROOT
BRANCH   1   3
ATOM      3  C   UNL     1       0.361  -3.718  -4.857  0.00  0.00    -0.036 C 
BRANCH   3  10
ATOM      4  C   UNL     1       1.811 -10.842  -1.575  0.00  0.00    +0.044 C 
ATOM      5  C   UNL     1       1.548  -9.414  -1.977  0.00  0.00    -0.048 A 
ATOM      6  C   UNL     1       1.499  -8.424  -1.004  0.00  0.00    +0.004 A 
ATOM      7  C   UNL     1       1.262  -7.123  -1.347  0.00  0.00    +0.010 A 
ATOM      8  C   UNL     1       1.066  -6.785  -2.690  0.00  0.00    -0.001 A 
ATOM      9  C   UNL     1       0.809  -5.401  -3.092  0.00  0.00    +0.017 A 
ATOM     10  C   UNL     1       0.627  -5.132  -4.409  0.00  0.00    +0.001 A 
ATOM     11  C   UNL     1       0.681  -6.173  -5.361  0.00  0.00    +0.251 A 
ATOM     12  O   UNL     1       0.510  -5.910  -6.538  0.00  0.00    -0.268 OA
ATOM     13  N   UNL     1       0.922  -7.446  -5.001  0.00  0.00    -0.322 N 
ATOM     14  H   UNL     1       0.955  -8.136  -5.682  0.00  0.00    +0.169 HD
ATOM     15  C   UNL     1       1.115  -7.785  -3.679  0.00  0.00    +0.049 A 
ATOM     16  C   UNL     1       1.358  -9.103  -3.306  0.00  0.00    +0.029 A 
ENDBRANCH   3  10
ENDBRANCH   1   3
BRANCH   1  17
ATOM     17  C   UNL     1       2.496  -2.893  -4.067  0.00  0.00    -0.042 C 
BRANCH  17  18
ATOM     18  C   UNL     1       1.977  -1.753  -3.230  0.00  0.00    -0.064 A 
ATOM     19  C   UNL     1       1.014  -1.987  -2.266  0.00  0.00    +0.005 A 
ATOM     20  C   UNL     1       0.536  -0.943  -1.498  0.00  0.00    +0.046 A 
ATOM     21  C   UNL     1       1.023   0.341  -1.694  0.00  0.00    +0.120 A 
ATOM     22  C   UNL     1       1.985   0.574  -2.666  0.00  0.00    +0.046 A 
ATOM     23  C   UNL     1       2.464  -0.474  -3.428  0.00  0.00    +0.005 A 
BRANCH  21  24
ATOM     24  O   UNL     1       0.554   1.370  -0.940  0.00  0.00    -0.495 OA
ATOM     25  C   UNL     1       1.101   2.665  -1.197  0.00  0.00    +0.277 C 
ENDBRANCH  21  24
ENDBRANCH  17  18
ENDBRANCH   1  17
BRANCH   1  26
ATOM     26  C   UNL     1       2.312  -3.847  -6.285  0.00  0.00    +0.001 C 
BRANCH  26  27
ATOM     27  C   UNL     1       3.444  -3.028  -6.850  0.00  0.00    +0.135 A 
ATOM     28  N   UNL     1       4.698  -3.059  -6.471  0.00  0.00    -0.115 NA
ATOM     29  N   UNL     1       5.353  -2.217  -7.194  0.00  0.00    -0.023 NA
ATOM     30  N   UNL     1       4.549  -1.649  -8.024  0.00  0.00    -0.044 NA
ATOM     31  N   UNL     1       3.364  -2.127  -7.847  0.00  0.00    -0.229 N 
BRANCH  31  32
ATOM     32  C   UNL     1       2.156  -1.755  -8.589  0.00  0.00    +0.178 C 
BRANCH  32  33
ATOM     33  C   UNL     1       1.548  -0.493  -7.974  0.00  0.00    +0.140 C 
ATOM     34  C   UNL     1       0.263  -0.088  -8.738  0.00  0.00    +0.035 C 
ATOM     35  C   UNL     1      -0.491   0.714  -7.641  0.00  0.00    +0.031 C 
ATOM     36  C   UNL     1      -0.088  -0.034  -6.351  0.00  0.00    +0.160 C 
ATOM     37  O   UNL     1       1.121  -0.750  -6.627  0.00  0.00    -0.375 OA
ENDBRANCH  32  33
ENDBRANCH  31  32
ENDBRANCH  26  27
ENDBRANCH   1  26
TORSDOF 9
