REMARK  Name = ZINC64565643
REMARK  10 active torsions:
REMARK  status: ('A' for Active; 'I' for Inactive)
REMARK    1  A    between atoms: C_1  and  C_2
REMARK    2  A    between atoms: N_8  and  C_9
REMARK    3  A    between atoms: C_9  and  C_10
REMARK    4  A    between atoms: C_10  and  N_11
REMARK    5  A    between atoms: C_12  and  C_14
REMARK    6  A    between atoms: C_14  and  C_15
REMARK    7  A    between atoms: C_15  and  C_16
REMARK    8  A    between atoms: C_23  and  C_27
REMARK    9  A    between atoms: N_25  and  C_26
REMARK   10  A    between atoms: N_29  and  C_30
REMARK                            x       y       z     vdW  Elec       q    Type
REMARK                         _______ _______ _______ _____ _____    ______ ____
ROOT
ATOM      1  C   UNL     1       0.276   0.664   9.752  0.00  0.00    +0.216 C 
ATOM      2  O   UNL     1      -0.738   1.323   9.652  0.00  0.00    -0.276 OA
ATOM      3  N   UNL     1       0.810   0.430  10.967  0.00  0.00    -0.297 N 
ATOM      4  C   UNL     1       2.042  -0.361  11.109  0.00  0.00    +0.114 C 
ATOM      5  C   UNL     1       3.154   0.529  11.679  0.00  0.00    +0.074 C 
ATOM      6  C   UNL     1       2.595   1.326  12.829  0.00  0.00    +0.046 A 
ATOM      7  C   UNL     1       1.272   1.520  13.052  0.00  0.00    +0.023 A 
ATOM      8  C   UNL     1       1.184   2.312  14.208  0.00  0.00    +0.152 A 
ATOM      9  N   UNL     1       2.425   2.540  14.605  0.00  0.00    -0.166 NA
ATOM     10  N   UNL     1       3.258   1.966  13.807  0.00  0.00    -0.270 N 
ATOM     11  C   UNL     1       4.716   2.006  13.946  0.00  0.00    +0.172 C 
ATOM     12  C   UNL     1       0.177   0.965  12.187  0.00  0.00    +0.147 C 
ENDROOT
BRANCH   8  13
ATOM     13  C   UNL     1      -0.052   2.797  14.854  0.00  0.00    +0.269 C 
ATOM     14  O   UNL     1      -1.136   2.514  14.382  0.00  0.00    -0.268 OA
ATOM     15  N   UNL     1       0.021   3.554  15.967  0.00  0.00    -0.280 N 
ATOM     16  H   UNL     1       0.882   3.725  16.381  0.00  0.00    +0.155 HD
BRANCH  15  17
ATOM     17  C   UNL     1      -1.143   4.094  16.523  0.00  0.00    +0.034 A 
ATOM     18  C   UNL     1      -1.113   5.349  17.117  0.00  0.00    +0.023 A 
ATOM     19  C   UNL     1      -2.264   5.879  17.666  0.00  0.00    +0.002 A 
ATOM     20  C   UNL     1      -3.446   5.161  17.625  0.00  0.00    +0.000 A 
ATOM     21  C   UNL     1      -3.478   3.911  17.034  0.00  0.00    +0.002 A 
ATOM     22  C   UNL     1      -2.332   3.378  16.479  0.00  0.00    +0.023 A 
ENDBRANCH  15  17
ENDBRANCH   8  13
BRANCH   1  23
ATOM     23  C   UNL     1       0.938   0.108   8.518  0.00  0.00    +0.105 C 
BRANCH  23  24
ATOM     24  C   UNL     1       0.136   0.517   7.280  0.00  0.00    +0.105 C 
BRANCH  24  26
ATOM     25  N   UNL     1       0.264   0.195   4.831  0.00  0.00    -0.317 N 
ATOM     26  C   UNL     1       0.798  -0.040   6.046  0.00  0.00    +0.213 C 
ATOM     27  O   UNL     1       1.812  -0.698   6.146  0.00  0.00    -0.276 OA
ATOM     28  H   UNL     1      -0.547   0.722   4.751  0.00  0.00    +0.149 HD
BRANCH  25  29
ATOM     29  C   UNL     1       0.907  -0.346   3.631  0.00  0.00    +0.085 C 
BRANCH  29  30
ATOM     30  C   UNL     1       0.105   0.063   2.394  0.00  0.00    -0.059 C 
BRANCH  30  37
ATOM     31  C   UNL     1       0.039   1.542   0.008  0.00  0.00    -0.013 C 
ATOM     32  C   UNL     1       0.050   0.012  -0.002  0.00  0.00    -0.072 C 
ATOM     33  C   UNL     1       0.767  -0.484  -1.259  0.00  0.00    -0.016 C 
ATOM     34  C   UNL     1       0.776  -2.015  -1.264  0.00  0.00    -0.003 C 
ATOM     35  C   UNL     1       1.442  -2.517   0.020  0.00  0.00    -0.019 C 
ATOM     36  C   UNL     1       0.700  -1.946   1.230  0.00  0.00    -0.078 C 
ATOM     37  N   UNL     1       0.750  -0.479   1.191  0.00  0.00    +0.382 N 
ATOM     38  H   UNL     1       1.713  -0.177   1.163  0.00  0.00    -0.081 HD
ENDBRANCH  30  37
ENDBRANCH  29  30
ENDBRANCH  25  29
ENDBRANCH  24  26
ENDBRANCH  23  24
ENDBRANCH   1  23
TORSDOF 8
