REMARK  Name = ZINC10996798
REMARK  6 active torsions:
REMARK  status: ('A' for Active; 'I' for Inactive)
REMARK    1  A    between atoms: C_10  and  C_11
REMARK    2  A    between atoms: C_12  and  C_13
REMARK    3  A    between atoms: N_15  and  N_16
REMARK    4  A    between atoms: N_16  and  C_17
REMARK    5  A    between atoms: C_17  and  N_19
REMARK    6  A    between atoms: N_19  and  C_20
REMARK                            x       y       z     vdW  Elec       q    Type
REMARK                         _______ _______ _______ _____ _____    ______ ____
ROOT
ATOM      1  C   UNL     1       2.854   3.009   5.200  0.00  0.00    +0.253 C 
ATOM      2  O   UNL     1       2.506   2.996   6.366  0.00  0.00    -0.269 OA
ATOM      3  N   UNL     1       1.982   2.667   4.231  0.00  0.00    -0.232 N 
ATOM      4  H   UNL     1       2.259   2.678   3.302  0.00  0.00    +0.173 HD
ENDROOT
BRANCH   1   6
ATOM      5  C   UNL     1       5.096   3.739   5.820  0.00  0.00    +0.013 C 
ATOM      6  C   UNL     1       4.221   3.396   4.849  0.00  0.00    +0.069 C 
BRANCH   5  16
ATOM      7  C   UNL     1       9.288   5.237   8.422  0.00  0.00    +0.001 A 
ATOM      8  C   UNL     1       7.997   4.875   8.796  0.00  0.00    +0.001 A 
ATOM      9  C   UNL     1       7.072   4.514   7.860  0.00  0.00    +0.009 A 
ATOM     10  C   UNL     1       7.425   4.507   6.506  0.00  0.00    -0.011 A 
ATOM     11  C   UNL     1       8.739   4.869   6.123  0.00  0.00    -0.017 A 
ATOM     12  C   UNL     1       9.668   5.229   7.114  0.00  0.00    +0.008 A 
ATOM     13  C   UNL     1       9.088   4.867   4.762  0.00  0.00    +0.008 A 
ATOM     14  C   UNL     1       8.178   4.516   3.812  0.00  0.00    +0.001 A 
ATOM     15  C   UNL     1       6.881   4.147   4.140  0.00  0.00    +0.008 A 
ATOM     16  C   UNL     1       6.466   4.127   5.468  0.00  0.00    -0.017 A 
ENDBRANCH   5  16
ENDBRANCH   1   6
BRANCH   3  17
ATOM     17  N   UNL     1       0.673   2.296   4.567  0.00  0.00    -0.246 N 
ATOM     18  H   UNL     1       0.395   2.286   5.497  0.00  0.00    +0.172 HD
BRANCH  17  19
ATOM     19  C   UNL     1      -0.200   1.954   3.599  0.00  0.00    +0.147 C 
ATOM     20  S   UNL     1      -1.799   1.502   4.009  0.00  0.00    -0.017 S 
BRANCH  19  21
ATOM     21  N   UNL     1       0.186   1.969   2.308  0.00  0.00    -0.323 N 
ATOM     22  H   UNL     1       1.092   2.226   2.075  0.00  0.00    +0.148 HD
BRANCH  21  23
ATOM     23  C   UNL     1      -0.763   1.597   1.255  0.00  0.00    +0.072 C 
ATOM     24  C   UNL     1      -0.013   1.086   0.008  0.00  0.00    +0.022 C 
ATOM     25  C   UNL     1      -0.784   1.609  -1.216  0.00  0.00    +0.002 C 
ATOM     26  C   UNL     1      -1.978   2.421  -0.670  0.00  0.00    +0.002 C 
ATOM     27  C   UNL     1      -1.531   2.845   0.750  0.00  0.00    +0.022 C 
ENDBRANCH  21  23
ENDBRANCH  19  21
ENDBRANCH  17  19
ENDBRANCH   3  17
TORSDOF 6
