REMARK  Name = ZINC19921391
REMARK  12 active torsions:
REMARK  status: ('A' for Active; 'I' for Inactive)
REMARK    1  A    between atoms: C_1  and  C_2
REMARK    2  A    between atoms: C_2  and  N_21
REMARK    3  A    between atoms: C_4  and  C_16
REMARK    4  A    between atoms: N_6  and  C_9
REMARK    5  A    between atoms: C_16  and  C_17
REMARK    6  A    between atoms: C_17  and  O_19
REMARK    7  A    between atoms: O_19  and  C_20
REMARK    8  A    between atoms: N_21  and  C_22
REMARK    9  A    between atoms: C_24  and  C_30
REMARK   10  A    between atoms: C_24  and  C_31
REMARK   11  A    between atoms: C_26  and  C_28
REMARK   12  A    between atoms: C_26  and  C_29
REMARK                            x       y       z     vdW  Elec       q    Type
REMARK                         _______ _______ _______ _____ _____    ______ ____
ROOT
ATOM      1  C   UNL     1      -4.947   4.983  -0.061  0.00  0.00    +0.061 C 
ATOM      2  C   UNL     1      -3.446   4.904   0.046  0.00  0.00    +0.015 C 
ATOM      3  C   UNL     1      -2.814   3.672   0.029  0.00  0.00    +0.079 C 
ATOM      4  C   UNL     1      -3.444   2.343   0.022  0.00  0.00    +0.084 C 
ATOM      5  N   UNL     1      -2.494   1.459  -0.001  0.00  0.00    -0.176 NA
ATOM      6  N   UNL     1      -1.238   2.065   0.001  0.00  0.00    -0.156 N 
ATOM      7  C   UNL     1      -1.371   3.407   0.015  0.00  0.00    +0.274 C 
ATOM      8  O   UNL     1      -0.473   4.233   0.015  0.00  0.00    -0.268 OA
ENDROOT
BRANCH   6   9
ATOM      9  C   UNL     1      -0.016   1.379  -0.015  0.00  0.00    +0.061 A 
ATOM     10  C   UNL     1       1.179   2.088  -0.025  0.00  0.00    +0.028 A 
ATOM     11  C   UNL     1       2.382   1.410  -0.046  0.00  0.00    +0.040 A 
ATOM     12  C   UNL     1       2.398   0.025  -0.059  0.00  0.00    +0.124 A 
ATOM     13  C   UNL     1       1.208  -0.683  -0.051  0.00  0.00    +0.040 A 
ATOM     14  C   UNL     1       0.003  -0.009  -0.029  0.00  0.00    +0.028 A 
ATOM     15  F   UNL     1       3.576  -0.636  -0.080  0.00  0.00    -0.205 F 
ENDBRANCH   6   9
BRANCH   2  16
ATOM     16  N   UNL     1      -2.717   6.033   0.157  0.00  0.00    -0.344 N 
ATOM     17  H   UNL     1      -1.621   5.975   0.235  0.00  0.00    +0.146 HD
BRANCH  16  18
ATOM     18  C   UNL     1      -3.386   7.340   0.175  0.00  0.00    +0.068 C 
ATOM     19  C   UNL     1      -3.606   7.813  -1.262  0.00  0.00    +0.009 C 
ATOM     20  C   UNL     1      -4.283   9.181  -1.273  0.00  0.00    -0.072 C 
ATOM     21  N   UNL     1      -3.636  10.138  -0.401  0.00  0.00    +0.386 N 
ATOM     22  C   UNL     1      -3.154   9.730   0.902  0.00  0.00    -0.072 C 
ATOM     23  C   UNL     1      -2.493   8.354   0.889  0.00  0.00    +0.009 C 
ATOM     24  C   UNL     1      -4.282   9.746   1.940  0.00  0.00    -0.010 C 
ATOM     25  C   UNL     1      -2.092  10.752   1.366  0.00  0.00    -0.010 C 
ATOM     26  C   UNL     1      -5.766   9.021  -0.918  0.00  0.00    -0.010 C 
ATOM     27  C   UNL     1      -4.215   9.722  -2.719  0.00  0.00    -0.010 C 
ATOM     28  H   UNL     1      -2.741  10.541  -0.897  0.00  0.00    -0.084 HD
ATOM     29  H   UNL     1      -4.333  10.960  -0.177  0.00  0.00    -0.084 HD
ENDBRANCH  16  18
ENDBRANCH   2  16
BRANCH   4  30
ATOM     30  C   UNL     1      -4.924   2.059   0.030  0.00  0.00    +0.178 C 
BRANCH  30  31
ATOM     31  C   UNL     1      -5.150   0.573   0.143  0.00  0.00    +0.313 C 
ATOM     32  O   UNL     1      -4.206  -0.178   0.209  0.00  0.00    -0.250 OA
BRANCH  31  33
ATOM     33  O   UNL     1      -6.399   0.084   0.169  0.00  0.00    -0.468 OA
ATOM     34  C   UNL     1      -6.542  -1.357   0.279  0.00  0.00    +0.280 C 
ENDBRANCH  31  33
ENDBRANCH  30  31
ENDBRANCH   4  30
TORSDOF 6
