REMARK  Name = ZINC32955470
REMARK  8 active torsions:
REMARK  status: ('A' for Active; 'I' for Inactive)
REMARK    1  A    between atoms: C_1  and  C_2
REMARK    2  A    between atoms: C_2  and  C_3
REMARK    3  A    between atoms: C_3  and  C_5
REMARK    4  A    between atoms: C_3  and  N_6
REMARK    5  A    between atoms: C_7  and  C_9
REMARK    6  A    between atoms: C_14  and  N_15
REMARK    7  A    between atoms: C_16  and  C_18
REMARK    8  A    between atoms: N_20  and  C_25
REMARK                            x       y       z     vdW  Elec       q    Type
REMARK                         _______ _______ _______ _____ _____    ______ ____
ROOT
ATOM      1  N   UNL     1      -1.901  -1.703  -3.489  0.00  0.00    -0.278 N 
ATOM      2  C   UNL     1      -2.428  -2.306  -4.573  0.00  0.00    +0.283 C 
ATOM      3  O   UNL     1      -1.856  -3.250  -5.083  0.00  0.00    -0.267 OA
ATOM      4  H   UNL     1      -2.457  -0.903  -2.979  0.00  0.00    +0.155 HD
ENDROOT
BRANCH   2   5
ATOM      5  C   UNL     1      -3.699  -1.821  -5.140  0.00  0.00    +0.200 C 
ATOM      6  N   UNL     1      -4.318  -0.809  -4.598  0.00  0.00    -0.152 NA
ATOM      7  N   UNL     1      -5.519  -0.332  -5.133  0.00  0.00    -0.158 N 
ATOM      8  C   UNL     1      -6.224  -1.071  -6.014  0.00  0.00    +0.256 C 
ATOM      9  O   UNL     1      -7.256  -0.642  -6.485  0.00  0.00    -0.272 OA
ATOM     10  C   UNL     1      -5.716  -2.438  -6.409  0.00  0.00    +0.201 C 
ATOM     11  N   UNL     1      -4.249  -2.438  -6.268  0.00  0.00    -0.315 N 
ATOM     12  H   UNL     1      -3.623  -2.913  -7.037  0.00  0.00    +0.148 HD
BRANCH   7  13
ATOM     13  C   UNL     1      -5.997   0.926  -4.749  0.00  0.00    +0.060 A 
ATOM     14  C   UNL     1      -5.146   2.024  -4.755  0.00  0.00    +0.025 A 
ATOM     15  C   UNL     1      -5.622   3.265  -4.380  0.00  0.00    +0.002 A 
ATOM     16  C   UNL     1      -6.940   3.413  -3.989  0.00  0.00    +0.000 A 
ATOM     17  C   UNL     1      -7.787   2.321  -3.977  0.00  0.00    +0.002 A 
ATOM     18  C   UNL     1      -7.320   1.078  -4.356  0.00  0.00    +0.025 A 
ENDBRANCH   7  13
ENDBRANCH   2   5
BRANCH   1  24
ATOM     19  C   UNL     1      -0.341  -1.958  -1.654  0.00  0.00    +0.058 A 
ATOM     20  C   UNL     1       0.914  -2.360  -1.190  0.00  0.00    +0.015 A 
ATOM     21  C   UNL     1       1.839  -2.878  -2.070  0.00  0.00    +0.001 A 
ATOM     22  C   UNL     1       1.531  -3.004  -3.415  0.00  0.00    +0.002 A 
ATOM     23  C   UNL     1       0.295  -2.613  -3.889  0.00  0.00    +0.024 A 
ATOM     24  C   UNL     1      -0.652  -2.093  -3.015  0.00  0.00    +0.046 A 
BRANCH  19  26
ATOM     25  N   UNL     1      -1.055  -1.332   0.600  0.00  0.00    -0.309 N 
ATOM     26  C   UNL     1      -1.335  -1.403  -0.717  0.00  0.00    +0.246 C 
ATOM     27  O   UNL     1      -2.408  -1.009  -1.132  0.00  0.00    -0.270 OA
ATOM     28  H   UNL     1      -0.085  -1.688   0.975  0.00  0.00    +0.149 HD
BRANCH  25  29
ATOM     29  C   UNL     1      -2.043  -0.780   1.530  0.00  0.00    +0.070 C 
ATOM     30  C   UNL     1      -1.911   0.744   1.569  0.00  0.00    +0.028 C 
BRANCH  29  32
ATOM     31  C   UNL     1      -2.053  -2.858   2.917  0.00  0.00    +0.005 C 
ATOM     32  C   UNL     1      -1.799  -1.349   2.929  0.00  0.00    +0.018 C 
ENDBRANCH  29  32
ENDBRANCH  25  29
ENDBRANCH  19  26
ENDBRANCH   1  24
TORSDOF 6
