REMARK  Name = ZINC09467400
REMARK  12 active torsions:
REMARK  status: ('A' for Active; 'I' for Inactive)
REMARK    1  A    between atoms: C_1  and  C_2
REMARK    2  A    between atoms: C_4  and  C_30
REMARK    3  A    between atoms: C_6  and  C_29
REMARK    4  A    between atoms: C_7  and  C_8
REMARK    5  A    between atoms: C_8  and  C_9
REMARK    6  A    between atoms: C_9  and  N_10
REMARK    7  A    between atoms: N_13  and  N_14
REMARK    8  A    between atoms: C_15  and  C_17
REMARK    9  A    between atoms: C_19  and  C_23
REMARK   10  A    between atoms: C_30  and  C_31
REMARK   11  A    between atoms: C_30  and  C_32
REMARK   12  A    between atoms: C_30  and  C_33
REMARK                            x       y       z     vdW  Elec       q    Type
REMARK                         _______ _______ _______ _____ _____    ______ ____
ROOT
ATOM      1  N   UNL     1      -0.871   6.322   0.041  0.00  0.00    -0.298 N 
ATOM      2  C   UNL     1      -2.098   5.764   0.044  0.00  0.00    +0.316 C 
ATOM      3  O   UNL     1      -3.087   6.471   0.052  0.00  0.00    -0.251 OA
ATOM      4  N   UNL     1      -2.228   4.423   0.037  0.00  0.00    -0.218 N 
ATOM      5  H   UNL     1      -0.082   5.758   0.034  0.00  0.00    +0.150 HD
ATOM      6  H   UNL     1      -3.111   4.021   0.039  0.00  0.00    +0.174 HD
ENDROOT
BRANCH   4   7
ATOM      7  N   UNL     1      -1.089   3.608   0.027  0.00  0.00    -0.228 N 
ATOM      8  C   UNL     1      -1.219   2.267   0.020  0.00  0.00    +0.280 C 
ATOM      9  O   UNL     1      -2.326   1.764   0.023  0.00  0.00    -0.267 OA
ATOM     10  H   UNL     1      -0.205   4.010   0.025  0.00  0.00    +0.173 HD
BRANCH   8  11
ATOM     11  C   UNL     1      -0.017   1.408   0.010  0.00  0.00    +0.149 A 
ATOM     12  C   UNL     1       0.002  -0.004   0.002  0.00  0.00    +0.062 A 
ATOM     13  C   UNL     1       1.324  -0.350  -0.013  0.00  0.00    +0.066 A 
ATOM     14  N   UNL     1       2.036   0.813  -0.013  0.00  0.00    -0.276 N 
ATOM     15  H   UNL     1       3.034   0.875  -0.022  0.00  0.00    +0.189 HD
ATOM     16  N   UNL     1       1.236   1.817   0.000  0.00  0.00    -0.169 NA
BRANCH  13  17
ATOM     17  C   UNL     1       1.877  -1.723  -0.025  0.00  0.00    -0.000 A 
ATOM     18  C   UNL     1       1.019  -2.823  -0.018  0.00  0.00    +0.010 A 
ATOM     19  C   UNL     1       1.541  -4.101  -0.037  0.00  0.00    +0.001 A 
ATOM     20  C   UNL     1       2.911  -4.292  -0.051  0.00  0.00    +0.000 A 
ATOM     21  C   UNL     1       3.767  -3.205  -0.052  0.00  0.00    +0.001 A 
ATOM     22  C   UNL     1       3.257  -1.922  -0.040  0.00  0.00    +0.010 A 
ENDBRANCH  13  17
ENDBRANCH   8  11
ENDBRANCH   4   7
BRANCH   1  23
ATOM     23  C   UNL     1      -0.729   7.780   0.048  0.00  0.00    +0.110 C 
BRANCH  23  24
ATOM     24  C   UNL     1       0.756   8.148   0.043  0.00  0.00    +0.054 C 
BRANCH  24  31
ATOM     25  C   UNL     1       0.895   9.598  -2.453  0.00  0.00    +0.044 C 
ATOM     26  C   UNL     1       0.969  10.342  -1.144  0.00  0.00    -0.047 A 
ATOM     27  C   UNL     1       1.098  11.718  -1.137  0.00  0.00    +0.007 A 
ATOM     28  C   UNL     1       1.170  12.399   0.064  0.00  0.00    -0.041 A 
ATOM     29  C   UNL     1       1.108  11.705   1.257  0.00  0.00    +0.007 A 
ATOM     30  C   UNL     1       0.975  10.329   1.251  0.00  0.00    -0.047 A 
ATOM     31  C   UNL     1       0.902   9.648   0.050  0.00  0.00    -0.040 A 
ATOM     32  C   UNL     1       0.908   9.572   2.552  0.00  0.00    +0.044 C 
BRANCH  28  33
ATOM     33  C   UNL     1       1.316  13.899   0.071  0.00  0.00    -0.013 C 
ATOM     34  C   UNL     1       2.612  14.282   0.789  0.00  0.00    +0.015 C 
ATOM     35  C   UNL     1       1.359  14.415  -1.369  0.00  0.00    +0.015 C 
ATOM     36  C   UNL     1       0.125  14.524   0.801  0.00  0.00    +0.015 C 
ENDBRANCH  28  33
ENDBRANCH  24  31
ENDBRANCH  23  24
ENDBRANCH   1  23
TORSDOF 7
