REMARK  Name = ZINC06133841
REMARK  8 active torsions:
REMARK  status: ('A' for Active; 'I' for Inactive)
REMARK    1  A    between atoms: C_1  and  S_2
REMARK    2  A    between atoms: S_2  and  C_3
REMARK    3  A    between atoms: C_6  and  C_9
REMARK    4  A    between atoms: N_10  and  N_11
REMARK    5  A    between atoms: C_12  and  C_14
REMARK    6  A    between atoms: C_14  and  N_53
REMARK    7  A    between atoms: N_17  and  S_20
REMARK    8  A    between atoms: S_20  and  C_23
REMARK                            x       y       z     vdW  Elec       q    Type
REMARK                         _______ _______ _______ _____ _____    ______ ____
ROOT
ATOM      1  C   UNL     1      -0.898   1.815  -0.852  0.00  0.00    -0.061 C 
ATOM      2  C   UNL     1      -0.242   1.513   0.499  0.00  0.00    +0.091 C 
ATOM      3  N   UNL     1      -0.993   2.209   1.554  0.00  0.00    -0.180 NA
ATOM      4  C   UNL     1      -1.266   3.645   1.381  0.00  0.00    +0.091 C 
ATOM      5  C   UNL     1      -1.882   3.863  -0.005  0.00  0.00    -0.061 C 
ATOM      6  N   UNL     1      -0.979   3.282  -1.022  0.00  0.00    +0.387 N 
ATOM      7  H   UNL     1      -0.042   3.684  -0.903  0.00  0.00    -0.081 HD
ENDROOT
BRANCH   3   8
ATOM      8  S   UNL     1      -1.523   1.398   2.897  0.00  0.00    +0.061 S 
ATOM      9  O   UNL     1      -2.628   2.132   3.406  0.00  0.00    -0.153 OA
ATOM     10  O   UNL     1      -1.622   0.028   2.532  0.00  0.00    -0.153 OA
BRANCH   8  11
ATOM     11  C   UNL     1      -0.247   1.505   4.108  0.00  0.00    +0.106 A 
ATOM     12  C   UNL     1       0.734   0.533   4.166  0.00  0.00    +0.029 A 
ATOM     13  C   UNL     1       1.738   0.620   5.113  0.00  0.00    +0.017 A 
ATOM     14  C   UNL     1       1.754   1.674   6.008  0.00  0.00    +0.018 A 
ATOM     15  C   UNL     1       0.769   2.644   5.953  0.00  0.00    +0.017 A 
ATOM     16  C   UNL     1      -0.231   2.559   5.003  0.00  0.00    +0.029 A 
ATOM     17 BR   UNL     1       3.123   1.789   7.307  0.00  0.00    -0.050 Br
ENDBRANCH   8  11
ENDBRANCH   3   8
BRANCH   6  18
ATOM     18  C   UNL     1      -1.472   3.606  -2.377  0.00  0.00    +0.020 C 
BRANCH  18  20
ATOM     19  N   UNL     1      -3.552   3.382  -3.697  0.00  0.00    -0.209 N 
ATOM     20  C   UNL     1      -2.874   3.090  -2.569  0.00  0.00    +0.216 C 
ATOM     21  O   UNL     1      -3.394   2.410  -1.709  0.00  0.00    -0.276 OA
ATOM     22  H   UNL     1      -3.136   3.925  -4.385  0.00  0.00    +0.177 HD
BRANCH  19  24
ATOM     23  C   UNL     1      -5.508   3.183  -4.962  0.00  0.00    +0.138 C 
ATOM     24  N   UNL     1      -4.856   2.902  -3.876  0.00  0.00    -0.188 NA
BRANCH  23  28
ATOM     25  C   UNL     1      -9.459   1.727  -5.503  0.00  0.00    +0.008 A 
ATOM     26  C   UNL     1      -8.865   2.507  -6.491  0.00  0.00    +0.015 A 
ATOM     27  C   UNL     1      -7.584   2.981  -6.319  0.00  0.00    +0.010 A 
ATOM     28  C   UNL     1      -6.880   2.678  -5.150  0.00  0.00    -0.005 A 
ATOM     29  C   UNL     1      -7.478   1.890  -4.162  0.00  0.00    +0.010 A 
ATOM     30  C   UNL     1      -8.761   1.424  -4.338  0.00  0.00    +0.015 A 
BRANCH  25  32
ATOM     31  C   UNL     1     -11.431   0.182  -4.213  0.00  0.00    +0.090 C 
ATOM     32  S   UNL     1     -11.099   1.122  -5.728  0.00  0.00    -0.129 S 
ENDBRANCH  25  32
ENDBRANCH  23  28
ENDBRANCH  19  24
ENDBRANCH  18  20
ENDBRANCH   6  18
TORSDOF 7
