REMARK  Name = ZINC38788870
REMARK  5 active torsions:
REMARK  status: ('A' for Active; 'I' for Inactive)
REMARK    1  A    between atoms: C_1  and  C_2
REMARK    2  A    between atoms: C_2  and  C_3
REMARK    3  A    between atoms: C_10  and  C_15
REMARK    4  A    between atoms: C_15  and  N_16
REMARK    5  A    between atoms: N_16  and  C_17
REMARK                            x       y       z     vdW  Elec       q    Type
REMARK                         _______ _______ _______ _____ _____    ______ ____
ROOT
ATOM      1  C   UNL     1      -1.412  -0.526   0.013  0.00  0.00    -0.047 A 
ATOM      2  C   UNL     1      -2.043  -0.763   1.234  0.00  0.00    +0.005 A 
ATOM      3  C   UNL     1      -3.315  -1.232   1.323  0.00  0.00    +0.024 A 
ATOM      4  C   UNL     1      -4.059  -1.502   0.160  0.00  0.00    +0.040 A 
ATOM      5  N   UNL     1      -5.307  -1.962   0.259  0.00  0.00    -0.284 N 
ATOM      6  C   UNL     1      -6.061  -2.236  -0.792  0.00  0.00    +0.226 C 
ATOM      7  O   UNL     1      -7.193  -2.653  -0.639  0.00  0.00    -0.275 OA
ATOM      8  C   UNL     1      -5.511  -2.028  -2.185  0.00  0.00    +0.115 C 
ATOM      9  C   UNL     1      -4.092  -1.505  -2.303  0.00  0.00    -0.003 C 
ATOM     10  C   UNL     1      -3.418  -1.260  -1.144  0.00  0.00    -0.007 A 
ATOM     11  C   UNL     1      -2.047  -0.749  -1.167  0.00  0.00    +0.013 A 
ATOM     12  H   UNL     1      -5.678  -2.102   1.144  0.00  0.00    +0.155 HD
ENDROOT
BRANCH   1  14
ATOM     13  C   UNL     1      -0.019   1.526   0.010  0.00  0.00    +0.009 C 
ATOM     14  C   UNL     1       0.002  -0.004   0.002  0.00  0.00    +0.032 C 
ENDBRANCH   1  14
BRANCH   8  15
ATOM     15  C   UNL     1      -5.579  -3.367  -2.921  0.00  0.00    +0.118 C 
BRANCH  15  16
ATOM     16  N   UNL     1      -6.980  -3.759  -3.093  0.00  0.00    -0.343 N 
ATOM     17  H   UNL     1      -7.688  -3.188  -2.756  0.00  0.00    +0.146 HD
BRANCH  16  18
ATOM     18  C   UNL     1      -7.297  -4.957  -3.743  0.00  0.00    +0.031 A 
ATOM     19  C   UNL     1      -6.283  -5.777  -4.221  0.00  0.00    +0.027 A 
ATOM     20  C   UNL     1      -6.595  -6.960  -4.863  0.00  0.00    +0.051 A 
ATOM     21  C   UNL     1      -7.919  -7.332  -5.032  0.00  0.00    +0.166 A 
ATOM     22  C   UNL     1      -8.938  -6.512  -4.554  0.00  0.00    +0.168 A 
ATOM     23  C   UNL     1      -8.625  -5.329  -3.906  0.00  0.00    +0.072 A 
ATOM     24  O   UNL     1     -10.138  -7.094  -4.842  0.00  0.00    -0.453 OA
ATOM     25  C   UNL     1      -9.857  -8.073  -5.860  0.00  0.00    +0.466 C 
ATOM     26  O   UNL     1      -8.482  -8.429  -5.621  0.00  0.00    -0.453 OA
ENDBRANCH  16  18
ENDBRANCH  15  16
ENDBRANCH   8  15
TORSDOF 4
