REMARK  Name = ZINC39631324
REMARK  15 active torsions:
REMARK  status: ('A' for Active; 'I' for Inactive)
REMARK    1  A    between atoms: C_1  and  C_2
REMARK    2  A    between atoms: C_2  and  C_4
REMARK    3  A    between atoms: C_2  and  N_11
REMARK    4  A    between atoms: C_4  and  C_5
REMARK    5  A    between atoms: C_5  and  C_6
REMARK    6  A    between atoms: C_6  and  C_7
REMARK    7  A    between atoms: C_7  and  C_8
REMARK    8  A    between atoms: C_7  and  C_9
REMARK    9  A    between atoms: C_7  and  O_10
REMARK   10  A    between atoms: C_12  and  C_14
REMARK   11  A    between atoms: C_25  and  C_27
REMARK   12  A    between atoms: C_30  and  O_35
REMARK   13  A    between atoms: C_31  and  O_33
REMARK   14  A    between atoms: O_33  and  C_34
REMARK   15  A    between atoms: O_35  and  C_36
REMARK                            x       y       z     vdW  Elec       q    Type
REMARK                         _______ _______ _______ _____ _____    ______ ____
ROOT
ATOM      1  C   UNL     1       0.363  -1.559   3.227  0.00  0.00    +0.100 C 
ATOM      2  C   UNL     1       1.069  -2.933   3.216  0.00  0.00    +0.121 C 
ATOM      3  N   UNL     1       0.898  -3.453   4.593  0.00  0.00    -0.296 N 
ATOM      4  C   UNL     1      -0.482  -3.060   4.967  0.00  0.00    +0.115 C 
ATOM      5  C   UNL     1      -0.654  -1.646   4.377  0.00  0.00    -0.004 C 
ATOM      6  C   UNL     1      -2.072  -1.467   3.842  0.00  0.00    -0.010 C 
ATOM      7  C   UNL     1      -3.061  -1.500   5.011  0.00  0.00    -0.082 C 
ATOM      8  N   UNL     1      -2.735  -0.428   5.960  0.00  0.00    +0.379 N 
ATOM      9  C   UNL     1      -1.407  -0.659   6.539  0.00  0.00    -0.082 C 
ATOM     10  C   UNL     1      -0.347  -0.591   5.435  0.00  0.00    -0.010 C 
ATOM     11  C   UNL     1       1.794  -4.129   5.338  0.00  0.00    +0.247 C 
ATOM     12  O   UNL     1       2.936  -4.265   4.941  0.00  0.00    -0.270 OA
ATOM     13  H   UNL     1      -2.742   0.459   5.479  0.00  0.00    -0.086 HD
ATOM     14  H   UNL     1      -3.424  -0.413   6.697  0.00  0.00    -0.086 HD
ENDROOT
BRANCH  11  15
ATOM     15  C   UNL     1       1.391  -4.705   6.636  0.00  0.00    +0.041 A 
ATOM     16  C   UNL     1       0.042  -4.945   6.907  0.00  0.00    +0.017 A 
ATOM     17  C   UNL     1      -0.334  -5.482   8.119  0.00  0.00    +0.050 A 
ATOM     18  C   UNL     1       0.627  -5.787   9.074  0.00  0.00    +0.162 A 
ATOM     19  C   UNL     1       1.975  -5.550   8.811  0.00  0.00    +0.162 A 
ATOM     20  C   UNL     1       2.359  -5.016   7.595  0.00  0.00    +0.062 A 
BRANCH  19  21
ATOM     21  O   UNL     1       2.914  -5.848   9.748  0.00  0.00    -0.491 OA
ATOM     22  C   UNL     1       4.276  -5.579   9.412  0.00  0.00    +0.277 C 
ENDBRANCH  19  21
BRANCH  18  23
ATOM     23  O   UNL     1       0.253  -6.316  10.267  0.00  0.00    -0.491 OA
ATOM     24  C   UNL     1      -1.145  -6.533  10.470  0.00  0.00    +0.277 C 
ENDBRANCH  18  23
ENDBRANCH  11  15
BRANCH   1  26
ATOM     25  N   UNL     1      -0.491  -0.066   1.449  0.00  0.00    -0.312 N 
ATOM     26  C   UNL     1      -0.343  -1.321   1.917  0.00  0.00    +0.218 C 
ATOM     27  O   UNL     1      -0.779  -2.260   1.285  0.00  0.00    -0.275 OA
ATOM     28  H   UNL     1      -0.143   0.684   1.955  0.00  0.00    +0.149 HD
BRANCH  25  30
ATOM     29  C   UNL     1      -2.688   0.233   0.416  0.00  0.00    +0.028 C 
ATOM     30  C   UNL     1      -1.179   0.165   0.176  0.00  0.00    +0.070 C 
BRANCH  30  31
ATOM     31  C   UNL     1      -0.698   1.484  -0.431  0.00  0.00    +0.022 C 
BRANCH  31  32
ATOM     32  C   UNL     1       0.785   1.372  -0.786  0.00  0.00    +0.005 C 
BRANCH  32  33
ATOM     33  C   UNL     1       1.266   2.692  -1.393  0.00  0.00    +0.034 C 
BRANCH  33  34
ATOM     34  C   UNL     1       2.750   2.580  -1.749  0.00  0.00    +0.061 C 
ATOM     35  C   UNL     1       3.260   3.936  -2.239  0.00  0.00    +0.041 C 
ATOM     36  C   UNL     1       3.540   2.155  -0.510  0.00  0.00    +0.041 C 
BRANCH  34  37
ATOM     37  O   UNL     1       2.920   1.605  -2.780  0.00  0.00    -0.389 OA
ATOM     38  H   UNL     1       3.838   1.481  -3.056  0.00  0.00    +0.210 HD
ENDBRANCH  34  37
ENDBRANCH  33  34
ENDBRANCH  32  33
ENDBRANCH  31  32
ENDBRANCH  30  31
ENDBRANCH  25  30
ENDBRANCH   1  26
TORSDOF 10
