REMARK  Name = ZINC08146464
REMARK  8 active torsions:
REMARK  status: ('A' for Active; 'I' for Inactive)
REMARK    1  A    between atoms: C_4  and  N_27
REMARK    2  A    between atoms: C_5  and  N_7
REMARK    3  A    between atoms: N_7  and  C_8
REMARK    4  A    between atoms: C_8  and  C_9
REMARK    5  A    between atoms: C_9  and  N_10
REMARK    6  A    between atoms: C_11  and  C_13
REMARK    7  A    between atoms: C_17  and  N_19
REMARK    8  A    between atoms: C_20  and  C_22
REMARK                            x       y       z     vdW  Elec       q    Type
REMARK                         _______ _______ _______ _____ _____    ______ ____
ROOT
ATOM      1  N   UNL     1      -6.041  -0.524   0.843  0.00  0.00    -0.310 N 
ATOM      2  C   UNL     1      -7.218   0.124   0.951  0.00  0.00    +0.244 C 
ATOM      3  O   UNL     1      -7.253   1.336   0.872  0.00  0.00    -0.270 OA
ATOM      4  H   UNL     1      -6.013  -1.492   0.907  0.00  0.00    +0.149 HD
ENDROOT
BRANCH   2   5
ATOM      5  C   UNL     1      -8.466  -0.639   1.166  0.00  0.00    +0.038 A 
ATOM      6  C   UNL     1      -8.429  -2.033   1.251  0.00  0.00    +0.013 A 
ATOM      7  C   UNL     1      -9.594  -2.743   1.457  0.00  0.00    +0.003 A 
ATOM      8  C   UNL     1     -10.802  -2.080   1.568  0.00  0.00    +0.023 A 
ATOM      9  C   UNL     1     -10.851  -0.694   1.478  0.00  0.00    +0.034 A 
ATOM     10  C   UNL     1      -9.685   0.029   1.277  0.00  0.00    +0.036 A 
BRANCH   9  11
ATOM     11  N   UNL     1     -12.076  -0.028   1.591  0.00  0.00    -0.281 N 
ATOM     12  C   UNL     1     -12.308   1.083   0.864  0.00  0.00    +0.255 C 
ATOM     13  O   UNL     1     -11.424   1.553   0.171  0.00  0.00    -0.269 OA
ATOM     14  H   UNL     1     -12.758  -0.366   2.192  0.00  0.00    +0.155 HD
BRANCH  12  15
ATOM     15  C   UNL     1     -13.624   1.725   0.908  0.00  0.00    +0.074 A 
ATOM     16  C   UNL     1     -14.065   2.861   0.246  0.00  0.00    +0.021 A 
ATOM     17  C   UNL     1     -15.363   3.250   0.469  0.00  0.00    +0.008 A 
ATOM     18  C   UNL     1     -16.139   2.520   1.311  0.00  0.00    +0.046 A 
ATOM     19  S   UNL     1     -15.079   1.246   1.822  0.00  0.00    -0.092 S 
ENDBRANCH  12  15
ENDBRANCH   9  11
ENDBRANCH   2   5
BRANCH   1  20
ATOM     20  C   UNL     1      -4.805   0.232   0.631  0.00  0.00    +0.123 C 
BRANCH  20  21
ATOM     21  C   UNL     1      -3.623  -0.736   0.544  0.00  0.00    +0.120 C 
BRANCH  21  22
ATOM     22  N   UNL     1      -2.387   0.021   0.332  0.00  0.00    -0.341 N 
ATOM     23  H   UNL     1      -2.415   0.988   0.269  0.00  0.00    +0.146 HD
BRANCH  22  28
ATOM     24  C   UNL     1       0.070  -2.701   0.089  0.00  0.00    +0.002 A 
ATOM     25  C   UNL     1       1.248  -1.982  -0.002  0.00  0.00    +0.002 A 
ATOM     26  C   UNL     1       1.221  -0.600   0.013  0.00  0.00    +0.034 A 
ATOM     27  C   UNL     1       0.018   0.067   0.129  0.00  0.00    +0.147 A 
ATOM     28  C   UNL     1      -1.167  -0.651   0.220  0.00  0.00    +0.058 A 
ATOM     29  C   UNL     1      -1.137  -2.040   0.200  0.00  0.00    +0.025 A 
BRANCH  27  30
ATOM     30  N   UNL     1      -0.010   1.547   0.150  0.00  0.00    +0.058 N 
ATOM     31  O   UNL     1       1.033   2.175   0.171  0.00  0.00    -0.126 OA
ATOM     32  O   UNL     1      -1.076   2.136   0.141  0.00  0.00    -0.126 OA
ENDBRANCH  27  30
ENDBRANCH  22  28
ENDBRANCH  21  22
ENDBRANCH  20  21
ENDBRANCH   1  20
TORSDOF 8
