REMARK  Name = ZINC00958356
REMARK  7 active torsions:
REMARK  status: ('A' for Active; 'I' for Inactive)
REMARK    1  A    between atoms: C_1  and  C_2
REMARK    2  A    between atoms: C_2  and  C_3
REMARK    3  A    between atoms: C_3  and  N_4
REMARK    4  A    between atoms: N_12  and  N_13
REMARK    5  A    between atoms: C_14  and  C_16
REMARK    6  A    between atoms: C_16  and  N_17
REMARK    7  A    between atoms: C_25  and  C_27
REMARK                            x       y       z     vdW  Elec       q    Type
REMARK                         _______ _______ _______ _____ _____    ______ ____
ROOT
ATOM      1  N   UNL     1      -1.702  -5.073  -2.699  0.00  0.00    -0.205 N 
ATOM      2  C   UNL     1      -2.377  -6.169  -3.098  0.00  0.00    +0.252 C 
ATOM      3  O   UNL     1      -1.935  -7.273  -2.860  0.00  0.00    -0.272 OA
ATOM      4  H   UNL     1      -2.056  -4.190  -2.890  0.00  0.00    +0.177 HD
ENDROOT
BRANCH   1  13
ATOM      5  N   UNL     1       0.738  -1.962  -1.265  0.00  0.00    -0.266 N 
ATOM      6  C   UNL     1       1.746  -2.735  -0.699  0.00  0.00    +0.046 A 
ATOM      7  C   UNL     1       2.913  -2.384  -0.029  0.00  0.00    +0.024 A 
ATOM      8  C   UNL     1       3.763  -3.364   0.442  0.00  0.00    +0.002 A 
ATOM      9  C   UNL     1       3.467  -4.704   0.256  0.00  0.00    +0.001 A 
ATOM     10  C   UNL     1       2.313  -5.071  -0.407  0.00  0.00    +0.012 A 
ATOM     11  C   UNL     1       1.451  -4.091  -0.886  0.00  0.00    +0.028 A 
ATOM     12  C   UNL     1       0.166  -4.142  -1.621  0.00  0.00    +0.153 C 
ATOM     13  N   UNL     1      -0.491  -5.208  -2.009  0.00  0.00    -0.174 NA
ATOM     14  C   UNL     1      -0.219  -2.729  -1.815  0.00  0.00    +0.271 C 
ATOM     15  O   UNL     1      -1.222  -2.330  -2.376  0.00  0.00    -0.268 OA
BRANCH   5  16
ATOM     16  C   UNL     1       0.718  -0.497  -1.257  0.00  0.00    +0.114 C 
BRANCH  16  18
ATOM     17  C   UNL     1      -0.019   1.526   0.010  0.00  0.00    +0.005 C 
ATOM     18  C   UNL     1       0.002  -0.004   0.002  0.00  0.00    +0.016 C 
ENDBRANCH  16  18
ENDBRANCH   5  16
ENDBRANCH   1  13
BRANCH   2  19
ATOM     19  C   UNL     1      -3.680  -6.023  -3.840  0.00  0.00    +0.223 C 
BRANCH  19  20
ATOM     20  N   UNL     1      -4.211  -7.351  -4.160  0.00  0.00    -0.290 N 
ATOM     21  C   UNL     1      -3.861  -7.942  -5.331  0.00  0.00    +0.203 A 
ATOM     22  N   UNL     1      -4.313  -9.125  -5.653  0.00  0.00    -0.230 NA
ATOM     23  C   UNL     1      -5.132  -9.788  -4.844  0.00  0.00    +0.116 A 
ATOM     24  C   UNL     1      -5.553  -9.258  -3.607  0.00  0.00    +0.073 A 
ATOM     25  C   UNL     1      -5.032  -7.960  -3.285  0.00  0.00    +0.263 A 
ATOM     26  O   UNL     1      -5.332  -7.416  -2.236  0.00  0.00    -0.267 OA
ATOM     27  C   UNL     1      -6.418 -10.072  -2.859  0.00  0.00    +0.031 A 
ATOM     28  C   UNL     1      -6.794 -11.283  -3.343  0.00  0.00    +0.022 A 
ATOM     29  S   UNL     1      -5.943 -11.366  -4.909  0.00  0.00    -0.068 S 
BRANCH  28  30
ATOM     30  C   UNL     1      -7.688 -12.286  -2.725  0.00  0.00    -0.011 A 
ATOM     31  C   UNL     1      -8.270 -12.034  -1.482  0.00  0.00    +0.009 A 
ATOM     32  C   UNL     1      -9.103 -12.974  -0.911  0.00  0.00    +0.001 A 
ATOM     33  C   UNL     1      -9.362 -14.164  -1.568  0.00  0.00    +0.000 A 
ATOM     34  C   UNL     1      -8.787 -14.420  -2.800  0.00  0.00    +0.001 A 
ATOM     35  C   UNL     1      -7.957 -13.486  -3.385  0.00  0.00    +0.009 A 
ENDBRANCH  28  30
ENDBRANCH  19  20
ENDBRANCH   2  19
TORSDOF 6
