REMARK  Name = ZINC00262622
REMARK  3 active torsions:
REMARK  status: ('A' for Active; 'I' for Inactive)
REMARK    1  A    between atoms: C_3  and  N_17
REMARK    2  A    between atoms: C_6  and  C_7
REMARK    3  A    between atoms: C_9  and  C_13
REMARK                            x       y       z     vdW  Elec       q    Type
REMARK                         _______ _______ _______ _____ _____    ______ ____
ROOT
ATOM      1  C   UNL     1      -1.098   1.846   0.017  0.00  0.00    +0.153 C 
ATOM      2  C   UNL     1      -0.013   1.076   0.008  0.00  0.00    +0.047 C 
ATOM      3  C   UNL     1       1.200   1.987   0.001  0.00  0.00    +0.170 C 
ATOM      4  N   UNL     1       0.630   3.295   0.416  0.00  0.00    -0.144 NA
ATOM      5  O   UNL     1      -0.783   3.166   0.018  0.00  0.00    -0.406 OA
ATOM      6  H   UNL     1       0.714   3.425   1.413  0.00  0.00    +0.168 HD
ENDROOT
BRANCH   1  12
ATOM      7  C   UNL     1      -2.714  -0.051   0.024  0.00  0.00    +0.014 A 
ATOM      8  C   UNL     1      -4.007  -0.531   0.040  0.00  0.00    +0.033 A 
ATOM      9  C   UNL     1      -5.074   0.349   0.048  0.00  0.00    +0.126 A 
ATOM     10  C   UNL     1      -4.852   1.714   0.047  0.00  0.00    +0.033 A 
ATOM     11  C   UNL     1      -3.563   2.207   0.037  0.00  0.00    +0.014 A 
ATOM     12  C   UNL     1      -2.483   1.324   0.028  0.00  0.00    +0.019 A 
BRANCH   9  13
ATOM     13  N   UNL     1      -6.460  -0.172   0.058  0.00  0.00    +0.056 N 
ATOM     14  O   UNL     1      -7.401   0.600   0.066  0.00  0.00    -0.126 OA
ATOM     15  O   UNL     1      -6.658  -1.374   0.060  0.00  0.00    -0.126 OA
ENDBRANCH   9  13
ENDBRANCH   1  12
BRANCH   3  16
ATOM     16  C   UNL     1       2.245   1.506   1.010  0.00  0.00    +0.212 C 
ATOM     17 CL   UNL     1       2.770  -0.165   0.582  0.00  0.00    -0.081 Cl
ATOM     18 CL   UNL     1       3.669   2.612   0.974  0.00  0.00    -0.081 Cl
ATOM     19 CL   UNL     1       1.528   1.505   2.664  0.00  0.00    -0.081 Cl
ENDBRANCH   3  16
TORSDOF 3
