REMARK  Name = ZINC22792095
REMARK  11 active torsions:
REMARK  status: ('A' for Active; 'I' for Inactive)
REMARK    1  A    between atoms: C_1  and  C_2
REMARK    2  A    between atoms: C_2  and  C_4
REMARK    3  A    between atoms: C_2  and  N_19
REMARK    4  A    between atoms: N_6  and  C_7
REMARK    5  A    between atoms: C_8  and  C_17
REMARK    6  A    between atoms: N_23  and  C_26
REMARK    7  A    between atoms: C_26  and  C_27
REMARK    8  A    between atoms: N_29  and  C_30
REMARK    9  A    between atoms: C_30  and  C_31
REMARK   10  A    between atoms: C_30  and  C_32
REMARK   11  A    between atoms: C_30  and  C_33
REMARK                            x       y       z     vdW  Elec       q    Type
REMARK                         _______ _______ _______ _____ _____    ______ ____
ROOT
ATOM      1  C   UNL     1       0.972  -0.324   1.141  0.00  0.00    +0.034 C 
ATOM      2  C   UNL     1       0.002  -0.004   0.002  0.00  0.00    +0.140 C 
ENDROOT
BRANCH   2   3
ATOM      3  N   UNL     1       0.526  -0.552  -1.256  0.00  0.00    -0.294 NA
ATOM      4  C   UNL     1       0.256  -2.007  -1.355  0.00  0.00    +0.083 C 
ATOM      5  C   UNL     1       0.247  -2.393  -2.813  0.00  0.00    -0.003 C 
ATOM      6  C   UNL     1       1.624  -2.865  -3.307  0.00  0.00    -0.077 C 
ATOM      7  N   UNL     1       2.733  -2.033  -2.789  0.00  0.00    +0.386 N 
ATOM      8  C   UNL     1       2.414  -0.623  -2.808  0.00  0.00    -0.063 C 
ATOM      9  C   UNL     1       1.876  -0.225  -1.422  0.00  0.00    +0.066 C 
ATOM     10  H   UNL     1       2.934  -2.310  -1.840  0.00  0.00    -0.081 HD
BRANCH   7  11
ATOM     11  C   UNL     1       3.927  -2.263  -3.614  0.00  0.00    +0.019 C 
BRANCH  11  12
ATOM     12  C   UNL     1       4.382  -3.690  -3.452  0.00  0.00    +0.197 C 
ATOM     13  O   UNL     1       3.772  -4.442  -2.721  0.00  0.00    -0.278 OA
ATOM     14  N   UNL     1       5.467  -4.131  -4.119  0.00  0.00    -0.312 N 
ATOM     15  H   UNL     1       5.955  -3.530  -4.702  0.00  0.00    +0.149 HD
BRANCH  14  16
ATOM     16  C   UNL     1       5.909  -5.519  -3.961  0.00  0.00    +0.026 C 
ATOM     17  C   UNL     1       4.792  -6.464  -4.407  0.00  0.00    +0.031 C 
ATOM     18  C   UNL     1       7.153  -5.758  -4.820  0.00  0.00    +0.031 C 
ATOM     19  C   UNL     1       6.245  -5.784  -2.492  0.00  0.00    +0.031 C 
ENDBRANCH  14  16
ENDBRANCH  11  12
ENDBRANCH   7  11
ENDBRANCH   2   3
BRANCH   2  20
ATOM     20  C   UNL     1      -0.148   1.490  -0.125  0.00  0.00    +0.235 C 
ATOM     21  O   UNL     1       0.355   2.072  -1.063  0.00  0.00    -0.274 OA
ATOM     22  N   UNL     1      -0.841   2.179   0.803  0.00  0.00    -0.278 N 
ATOM     23  H   UNL     1      -1.243   1.714   1.553  0.00  0.00    +0.155 HD
BRANCH  22  24
ATOM     24  C   UNL     1      -0.979   3.555   0.686  0.00  0.00    +0.090 A 
ATOM     25  C   UNL     1      -1.643   4.419   1.538  0.00  0.00    +0.084 A 
ATOM     26  C   UNL     1      -1.645   5.833   1.192  0.00  0.00    -0.018 A 
ATOM     27  C   UNL     1      -0.982   6.117   0.050  0.00  0.00    -0.004 A 
ATOM     28  S   UNL     1      -0.371   4.555  -0.517  0.00  0.00    -0.077 S 
ATOM     29  C   UNL     1      -0.808   7.456  -0.597  0.00  0.00    +0.043 C 
ATOM     30  C   UNL     1      -0.340   8.468   0.457  0.00  0.00    +0.005 C 
ATOM     31  C   UNL     1      -1.568   9.100   1.104  0.00  0.00    +0.001 C 
ATOM     32  C   UNL     1      -2.709   8.087   1.171  0.00  0.00    +0.005 C 
ATOM     33  C   UNL     1      -2.318   6.899   2.044  0.00  0.00    +0.037 C 
BRANCH  25  34
ATOM     34  C   UNL     1      -2.305   3.941   2.714  0.00  0.00    +0.102 C 
ATOM     35  N   UNL     1      -2.830   3.562   3.647  0.00  0.00    -0.191 NA
ENDBRANCH  25  34
ENDBRANCH  22  24
ENDBRANCH   2  20
TORSDOF 7
