REMARK  Name = ZINC25063329
REMARK  10 active torsions:
REMARK  status: ('A' for Active; 'I' for Inactive)
REMARK    1  A    between atoms: C_1  and  C_2
REMARK    2  A    between atoms: C_2  and  N_3
REMARK    3  A    between atoms: N_3  and  C_4
REMARK    4  A    between atoms: C_4  and  C_5
REMARK    5  A    between atoms: C_12  and  O_19
REMARK    6  A    between atoms: C_13  and  O_17
REMARK    7  A    between atoms: O_17  and  C_18
REMARK    8  A    between atoms: O_19  and  C_20
REMARK    9  A    between atoms: C_21  and  C_23
REMARK   10  A    between atoms: N_26  and  C_28
REMARK                            x       y       z     vdW  Elec       q    Type
REMARK                         _______ _______ _______ _____ _____    ______ ____
ROOT
ATOM      1  N   UNL     1       3.236  -1.946  -0.140  0.00  0.00    -0.289 N 
ATOM      2  C   UNL     1       1.943  -1.773   0.201  0.00  0.00    +0.267 C 
ATOM      3  O   UNL     1       1.201  -2.733   0.281  0.00  0.00    -0.268 OA
ENDROOT
BRANCH   2   4
ATOM      4  C   UNL     1       1.428  -0.416   0.476  0.00  0.00    +0.151 A 
ATOM      5  C   UNL     1       0.083  -0.064   0.735  0.00  0.00    +0.006 A 
ATOM      6  C   UNL     1       0.084   1.272   0.929  0.00  0.00    +0.049 A 
ATOM      7  N   UNL     1       1.370   1.694   0.791  0.00  0.00    -0.236 N 
ATOM      8  N   UNL     1       2.135   0.696   0.528  0.00  0.00    -0.161 NA
ATOM      9  C   UNL     1      -1.319   1.757   1.221  0.00  0.00    +0.056 C 
ATOM     10  C   UNL     1      -2.244   0.611   0.751  0.00  0.00    +0.011 C 
ATOM     11  C   UNL     1      -1.315  -0.618   0.870  0.00  0.00    +0.040 C 
BRANCH   7  12
ATOM     12  C   UNL     1       1.797   3.022   0.916  0.00  0.00    +0.066 A 
ATOM     13  C   UNL     1       0.982   4.059   0.482  0.00  0.00    +0.030 A 
ATOM     14  C   UNL     1       1.403   5.368   0.611  0.00  0.00    +0.040 A 
ATOM     15  C   UNL     1       2.642   5.646   1.164  0.00  0.00    +0.124 A 
ATOM     16  C   UNL     1       3.459   4.614   1.593  0.00  0.00    +0.040 A 
ATOM     17  C   UNL     1       3.039   3.304   1.470  0.00  0.00    +0.030 A 
ATOM     18  F   UNL     1       3.055   6.927   1.285  0.00  0.00    -0.205 F 
ENDBRANCH   7  12
ENDBRANCH   2   4
BRANCH   1  20
ATOM     19  C   UNL     1       4.680  -0.569   1.274  0.00  0.00    +0.024 C 
ATOM     20  C   UNL     1       4.152  -0.803  -0.143  0.00  0.00    +0.105 C 
ENDBRANCH   1  20
BRANCH   1  21
ATOM     21  C   UNL     1       3.724  -3.278  -0.506  0.00  0.00    +0.182 C 
BRANCH  21  22
ATOM     22  C   UNL     1       3.568  -3.479  -1.992  0.00  0.00    +0.128 A 
ATOM     23  N   UNL     1       3.968  -4.662  -2.528  0.00  0.00    -0.309 N 
ATOM     24  H   UNL     1       4.393  -5.443  -1.881  0.00  0.00    +0.170 HD
ATOM     25  C   UNL     1       3.848  -4.892  -3.856  0.00  0.00    +0.259 A 
ATOM     26  O   UNL     1       4.202  -5.947  -4.349  0.00  0.00    -0.267 OA
ATOM     27  C   UNL     1       3.274  -3.820  -4.680  0.00  0.00    +0.068 A 
ATOM     28  C   UNL     1       3.109  -3.960  -6.058  0.00  0.00    +0.064 A 
ATOM     29  C   UNL     1       2.564  -2.923  -6.787  0.00  0.00    +0.162 A 
ATOM     30  C   UNL     1       2.179  -1.737  -6.152  0.00  0.00    +0.164 A 
ATOM     31  C   UNL     1       2.337  -1.585  -4.788  0.00  0.00    +0.078 A 
ATOM     32  C   UNL     1       2.886  -2.623  -4.036  0.00  0.00    +0.082 A 
ATOM     33  N   UNL     1       3.053  -2.515  -2.693  0.00  0.00    -0.232 NA
BRANCH  30  34
ATOM     34  O   UNL     1       1.645  -0.726  -6.884  0.00  0.00    -0.491 OA
ATOM     35  C   UNL     1       1.272   0.459  -6.178  0.00  0.00    +0.277 C 
ENDBRANCH  30  34
BRANCH  29  36
ATOM     36  O   UNL     1       2.400  -3.054  -8.131  0.00  0.00    -0.491 OA
ATOM     37  C   UNL     1       2.813  -4.290  -8.717  0.00  0.00    +0.277 C 
ENDBRANCH  29  36
ENDBRANCH  21  22
ENDBRANCH   1  21
TORSDOF 7
