REMARK  Name = ZINC19354154
REMARK  5 active torsions:
REMARK  status: ('A' for Active; 'I' for Inactive)
REMARK    1  A    between atoms: C_1  and  C_2
REMARK    2  A    between atoms: C_4  and  C_7
REMARK    3  A    between atoms: C_7  and  O_8
REMARK    4  A    between atoms: O_8  and  C_9
REMARK    5  A    between atoms: C_12  and  C_15
REMARK                            x       y       z     vdW  Elec       q    Type
REMARK                         _______ _______ _______ _____ _____    ______ ____
ROOT
ATOM      1  C   UNL     1      -5.363  -8.548  -0.019  0.00  0.00    +0.209 C 
ATOM      2  N   UNL     1      -4.920  -9.647  -0.897  0.00  0.00    -0.294 N 
ATOM      3  C   UNL     1      -4.001 -10.554  -0.387  0.00  0.00    +0.159 C 
ATOM      4  N   UNL     1      -4.317 -11.135   0.841  0.00  0.00    -0.259 N 
ATOM      5  C   UNL     1      -5.006 -10.308   1.727  0.00  0.00    +0.205 A 
ATOM      6  N   UNL     1      -5.512  -9.091   1.336  0.00  0.00    -0.288 N 
ATOM      7  C   UNL     1      -6.143  -8.534   2.427  0.00  0.00    +0.076 A 
ATOM      8  C   UNL     1      -6.830  -7.347   2.645  0.00  0.00    +0.077 A 
ATOM      9  C   UNL     1      -7.361  -7.081   3.892  0.00  0.00    +0.164 A 
ATOM     10  C   UNL     1      -7.212  -7.994   4.933  0.00  0.00    +0.164 A 
ATOM     11  C   UNL     1      -6.528  -9.175   4.733  0.00  0.00    +0.079 A 
ATOM     12  C   UNL     1      -5.987  -9.457   3.476  0.00  0.00    +0.095 A 
ATOM     13  N   UNL     1      -5.279 -10.516   2.981  0.00  0.00    -0.214 NA
ATOM     14  O   UNL     1      -7.748  -7.714   6.157  0.00  0.00    -0.488 OA
ATOM     15  C   UNL     1      -7.139  -6.639   6.875  0.00  0.00    +0.232 C 
ATOM     16  C   UNL     1      -7.721  -5.303   6.440  0.00  0.00    +0.082 C 
ATOM     17  C   UNL     1      -7.408  -4.981   4.987  0.00  0.00    +0.232 C 
ATOM     18  O   UNL     1      -8.040  -5.916   4.112  0.00  0.00    -0.488 OA
ATOM     19  N   UNL     1      -2.902 -10.847  -1.022  0.00  0.00    -0.375 N 
ATOM     20  H   UNL     1      -4.074 -12.048   1.063  0.00  0.00    +0.158 HD
ATOM     21  H   UNL     1      -2.709 -10.427  -1.875  0.00  0.00    +0.158 HD
ATOM     22  H   UNL     1      -5.260  -9.734  -1.801  0.00  0.00    +0.151 HD
ATOM     23  H   UNL     1      -2.278 -11.484  -0.642  0.00  0.00    +0.158 HD
ENDROOT
BRANCH   1  27
ATOM     24  C   UNL     1      -2.442  -5.429  -0.015  0.00  0.00    +0.121 A 
ATOM     25  C   UNL     1      -3.793  -5.115  -0.014  0.00  0.00    +0.046 A 
ATOM     26  C   UNL     1      -4.736  -6.125  -0.015  0.00  0.00    +0.011 A 
ATOM     27  C   UNL     1      -4.333  -7.448  -0.018  0.00  0.00    -0.007 A 
ATOM     28  C   UNL     1      -2.986  -7.763  -0.019  0.00  0.00    +0.011 A 
ATOM     29  C   UNL     1      -2.040  -6.757  -0.024  0.00  0.00    +0.046 A 
BRANCH  24  30
ATOM     30  O   UNL     1      -1.513  -4.437  -0.015  0.00  0.00    -0.486 OA
BRANCH  30  31
ATOM     31  C   UNL     1      -1.999  -3.093  -0.006  0.00  0.00    +0.285 C 
BRANCH  31  35
ATOM     32  C   UNL     1      -0.018   1.503   0.010  0.00  0.00    +0.073 C 
ATOM     33  C   UNL     1       0.002  -0.004   0.002  0.00  0.00    +0.076 A 
ATOM     34  N   UNL     1      -1.013  -0.832   0.002  0.00  0.00    -0.246 NA
ATOM     35  C   UNL     1      -0.834  -2.137  -0.006  0.00  0.00    +0.086 A 
ATOM     36  C   UNL     1       0.449  -2.582  -0.014  0.00  0.00    +0.073 A 
ATOM     37  S   UNL     1       1.335  -1.032  -0.017  0.00  0.00    -0.080 S 
ENDBRANCH  31  35
ENDBRANCH  30  31
ENDBRANCH  24  30
ENDBRANCH   1  27
TORSDOF 4
