REMARK  Name = ZINC38737066
REMARK  11 active torsions:
REMARK  status: ('A' for Active; 'I' for Inactive)
REMARK    1  A    between atoms: C_1  and  C_2
REMARK    2  A    between atoms: C_2  and  C_4
REMARK    3  A    between atoms: C_2  and  N_8
REMARK    4  A    between atoms: C_4  and  C_5
REMARK    5  A    between atoms: C_5  and  C_6
REMARK    6  A    between atoms: C_5  and  C_7
REMARK    7  A    between atoms: C_9  and  C_11
REMARK    8  A    between atoms: C_14  and  N_17
REMARK    9  A    between atoms: C_18  and  N_32
REMARK   10  A    between atoms: C_20  and  C_22
REMARK   11  A    between atoms: C_26  and  C_28
REMARK                            x       y       z     vdW  Elec       q    Type
REMARK                         _______ _______ _______ _____ _____    ______ ____
ROOT
ATOM      1  N   UNL     1       4.100  -2.362   6.230  0.00  0.00    -0.218 N 
ATOM      2  C   UNL     1       5.218  -3.129   6.370  0.00  0.00    +0.120 A 
ATOM      3  C   UNL     1       5.410  -3.338   7.700  0.00  0.00    +0.073 A 
ATOM      4  C   UNL     1       4.377  -2.679   8.393  0.00  0.00    +0.095 A 
ATOM      5  N   UNL     1       3.598  -2.091   7.509  0.00  0.00    -0.165 NA
ENDROOT
BRANCH   1   9
ATOM      6  C   UNL     1       2.473  -1.039   2.628  0.00  0.00    +0.037 A 
ATOM      7  C   UNL     1       1.635  -1.368   3.696  0.00  0.00    +0.015 A 
ATOM      8  C   UNL     1       2.175  -1.806   4.884  0.00  0.00    +0.028 A 
ATOM      9  C   UNL     1       3.555  -1.919   5.022  0.00  0.00    +0.067 A 
ATOM     10  C   UNL     1       4.393  -1.592   3.961  0.00  0.00    +0.028 A 
ATOM     11  C   UNL     1       3.858  -1.160   2.768  0.00  0.00    +0.015 A 
BRANCH   6  13
ATOM     12  N   UNL     1       0.561  -0.455   1.218  0.00  0.00    -0.309 N 
ATOM     13  C   UNL     1       1.897  -0.571   1.352  0.00  0.00    +0.244 C 
ATOM     14  O   UNL     1       2.627  -0.289   0.422  0.00  0.00    -0.270 OA
ATOM     15  H   UNL     1      -0.022  -0.679   1.960  0.00  0.00    +0.149 HD
BRANCH  12  17
ATOM     16  C   UNL     1      -0.024   1.540  -0.070  0.00  0.00    +0.028 C 
ATOM     17  C   UNL     1      -0.011   0.011  -0.048  0.00  0.00    +0.070 C 
BRANCH  17  18
ATOM     18  C   UNL     1      -1.442  -0.513  -0.184  0.00  0.00    +0.025 C 
BRANCH  18  19
ATOM     19  C   UNL     1      -1.423  -2.042  -0.246  0.00  0.00    -0.015 C 
ATOM     20  C   UNL     1      -2.858  -2.571  -0.235  0.00  0.00    +0.007 C 
ATOM     21  C   UNL     1      -0.723  -2.491  -1.530  0.00  0.00    +0.007 C 
ENDBRANCH  18  19
ENDBRANCH  17  18
ENDBRANCH  12  17
ENDBRANCH   6  13
ENDBRANCH   1   9
BRANCH   4  22
ATOM     22  C   UNL     1       4.200  -2.647   9.866  0.00  0.00    +0.003 A 
ATOM     23  C   UNL     1       5.107  -3.305  10.694  0.00  0.00    +0.010 A 
ATOM     24  C   UNL     1       4.938  -3.271  12.063  0.00  0.00    +0.001 A 
ATOM     25  C   UNL     1       3.870  -2.585  12.614  0.00  0.00    +0.012 A 
ATOM     26  C   UNL     1       2.966  -1.931  11.797  0.00  0.00    +0.055 A 
ATOM     27  C   UNL     1       3.129  -1.953  10.426  0.00  0.00    +0.022 A 
BRANCH  26  28
ATOM     28  C   UNL     1       1.805  -1.186  12.404  0.00  0.00    +0.417 C 
ATOM     29  F   UNL     1       1.855  -1.302  13.798  0.00  0.00    -0.166 F 
ATOM     30  F   UNL     1       1.878   0.164  12.045  0.00  0.00    -0.166 F 
ATOM     31  F   UNL     1       0.605  -1.730  11.934  0.00  0.00    -0.166 F 
ENDBRANCH  26  28
ENDBRANCH   4  22
BRANCH   2  32
ATOM     32  N   UNL     1       6.018  -3.611   5.339  0.00  0.00    -0.343 N 
ATOM     33  H   UNL     1       5.797  -3.407   4.417  0.00  0.00    +0.144 HD
ATOM     34  H   UNL     1       6.797  -4.152   5.543  0.00  0.00    +0.144 HD
ENDBRANCH   2  32
TORSDOF 8
