REMARK  Name = ZINC09482672
REMARK  3 active torsions:
REMARK  status: ('A' for Active; 'I' for Inactive)
REMARK    1  A    between atoms: C_1  and  C_2
REMARK    2  A    between atoms: C_2  and  C_26
REMARK    3  A    between atoms: C_6  and  C_16
REMARK                            x       y       z     vdW  Elec       q    Type
REMARK                         _______ _______ _______ _____ _____    ______ ____
ROOT
ATOM      1  C   UNL     1       6.051  -3.070  -0.250  0.00  0.00    +0.011 C 
ATOM      2  C   UNL     1       6.063  -1.964  -1.307  0.00  0.00    -0.023 C 
ATOM      3  C   UNL     1       5.219  -0.783  -0.830  0.00  0.00    +0.058 C 
ATOM      4  C   UNL     1       3.787  -1.232  -0.590  0.00  0.00    +0.017 C 
ATOM      5  C   UNL     1       3.244  -2.202  -1.343  0.00  0.00    +0.032 C 
ATOM      6  C   UNL     1       1.830  -2.724  -1.232  0.00  0.00    +0.109 C 
ATOM      7  N   UNL     1       1.123  -2.284  -0.049  0.00  0.00    -0.335 N 
ATOM      8  C   UNL     1       0.823  -0.939   0.152  0.00  0.00    +0.049 A 
ATOM      9  C   UNL     1      -0.485  -0.479   0.134  0.00  0.00    +0.025 A 
ATOM     10  C   UNL     1      -0.733   0.875   0.276  0.00  0.00    +0.002 A 
ATOM     11  C   UNL     1       0.314   1.767   0.420  0.00  0.00    +0.002 A 
ATOM     12  C   UNL     1       1.621   1.311   0.443  0.00  0.00    +0.025 A 
ATOM     13  C   UNL     1       1.869  -0.045   0.327  0.00  0.00    +0.052 A 
ATOM     14  N   UNL     1       3.151  -0.577   0.415  0.00  0.00    -0.316 N 
ATOM     15  C   UNL     1       4.010  -2.838  -2.349  0.00  0.00    +0.163 C 
ATOM     16  O   UNL     1       3.487  -3.702  -3.025  0.00  0.00    -0.292 OA
ATOM     17  C   UNL     1       5.443  -2.484  -2.610  0.00  0.00    +0.086 C 
ATOM     18  C   UNL     1       7.500  -1.506  -1.563  0.00  0.00    +0.011 C 
ATOM     19  H   UNL     1       0.852  -2.938   0.616  0.00  0.00    +0.147 HD
ATOM     20  H   UNL     1       3.625  -0.472   1.254  0.00  0.00    +0.152 HD
ENDROOT
BRANCH   6  21
ATOM     21  C   UNL     1       1.048  -2.265  -2.464  0.00  0.00    +0.018 C 
ATOM     22  C   UNL     1       1.059  -0.733  -2.540  0.00  0.00    +0.010 C 
ATOM     23  C   UNL     1       0.423  -0.308  -3.865  0.00  0.00    +0.027 C 
ATOM     24  C   UNL     1      -0.883  -1.019  -4.067  0.00  0.00    -0.031 C 
ATOM     25  C   UNL     1      -1.240  -2.079  -3.415  0.00  0.00    -0.031 C 
ATOM     26  C   UNL     1      -0.403  -2.738  -2.359  0.00  0.00    +0.032 C 
ENDBRANCH   6  21
TORSDOF 1
