REMARK  Name = ZINC18248280
REMARK  10 active torsions:
REMARK  status: ('A' for Active; 'I' for Inactive)
REMARK    1  A    between atoms: C_1  and  C_2
REMARK    2  A    between atoms: C_5  and  N_9
REMARK    3  A    between atoms: C_10  and  C_12
REMARK    4  A    between atoms: C_12  and  O_13
REMARK    5  A    between atoms: O_13  and  C_14
REMARK    6  A    between atoms: C_14  and  C_16
REMARK    7  A    between atoms: C_16  and  C_18
REMARK    8  A    between atoms: C_16  and  N_29
REMARK    9  A    between atoms: C_18  and  C_19
REMARK   10  A    between atoms: C_30  and  C_32
REMARK                            x       y       z     vdW  Elec       q    Type
REMARK                         _______ _______ _______ _____ _____    ______ ____
ROOT
ATOM      1  C   UNL     1      -7.217   0.750  -0.483  0.00  0.00    +0.186 C 
ENDROOT
BRANCH   1   2
ATOM      2  N   UNL     1      -8.436   1.468  -0.105  0.00  0.00    -0.298 N 
ATOM      3  C   UNL     1      -8.817   2.560  -0.798  0.00  0.00    +0.251 C 
ATOM      4  O   UNL     1      -8.148   2.948  -1.738  0.00  0.00    -0.270 OA
ATOM      5  H   UNL     1      -8.969   1.159   0.643  0.00  0.00    +0.150 HD
BRANCH   3   6
ATOM      6  C   UNL     1     -10.037   3.279  -0.420  0.00  0.00    +0.074 A 
ATOM      7  C   UNL     1     -10.598   4.409  -0.994  0.00  0.00    +0.021 A 
ATOM      8  C   UNL     1     -11.760   4.882  -0.436  0.00  0.00    +0.008 A 
ATOM      9  C   UNL     1     -12.296   4.233   0.631  0.00  0.00    +0.046 A 
ATOM     10  S   UNL     1     -11.191   2.923   0.893  0.00  0.00    -0.092 S 
ENDBRANCH   3   6
ENDBRANCH   1   2
BRANCH   1  11
ATOM     11  C   UNL     1      -6.034   1.677  -0.380  0.00  0.00    +0.328 C 
ATOM     12  O   UNL     1      -6.203   2.874  -0.386  0.00  0.00    -0.249 OA
BRANCH  11  13
ATOM     13  O   UNL     1      -4.793   1.175  -0.280  0.00  0.00    -0.454 OA
BRANCH  13  14
ATOM     14  C   UNL     1      -3.702   2.128  -0.184  0.00  0.00    +0.328 C 
BRANCH  14  16
ATOM     15  N   UNL     1      -1.238   2.069   0.019  0.00  0.00    -0.281 N 
ATOM     16  C   UNL     1      -2.395   1.385  -0.081  0.00  0.00    +0.255 C 
ATOM     17  O   UNL     1      -2.384   0.173  -0.088  0.00  0.00    -0.272 OA
ATOM     18  H   UNL     1      -1.251   3.035   0.105  0.00  0.00    +0.155 HD
BRANCH  15  23
ATOM     19  C   UNL     1       3.716  -0.696  -0.080  0.00  0.00    +0.044 C 
ATOM     20  C   UNL     1       2.401   0.038  -0.052  0.00  0.00    -0.049 A 
ATOM     21  C   UNL     1       1.283  -0.526  -0.640  0.00  0.00    +0.005 A 
ATOM     22  C   UNL     1       0.076   0.144  -0.617  0.00  0.00    +0.025 A 
ATOM     23  C   UNL     1      -0.016   1.385  -0.001  0.00  0.00    +0.052 A 
ATOM     24  C   UNL     1       1.108   1.950   0.589  0.00  0.00    +0.062 A 
ATOM     25  C   UNL     1       2.313   1.274   0.561  0.00  0.00    +0.025 A 
ATOM     26 CL   UNL     1       0.999   3.502   1.359  0.00  0.00    -0.082 Cl
ENDBRANCH  15  23
ENDBRANCH  14  16
ENDBRANCH  13  14
ENDBRANCH  11  13
ENDBRANCH   1  11
BRANCH   1  27
ATOM     27  C   UNL     1      -7.346   0.247  -1.923  0.00  0.00    +0.071 C 
BRANCH  27  28
ATOM     28  C   UNL     1      -8.452  -0.774  -2.001  0.00  0.00    -0.020 A 
ATOM     29  C   UNL     1      -8.314  -2.107  -1.924  0.00  0.00    +0.087 A 
ATOM     30  N   UNL     1      -9.537  -2.710  -2.034  0.00  0.00    -0.360 N 
ATOM     31  H   UNL     1      -9.691  -3.667  -2.009  0.00  0.00    +0.165 HD
ATOM     32  C   UNL     1     -10.517  -1.755  -2.188  0.00  0.00    +0.047 A 
ATOM     33  C   UNL     1      -9.881  -0.500  -2.168  0.00  0.00    +0.003 A 
ATOM     34  C   UNL     1     -10.637   0.666  -2.299  0.00  0.00    +0.010 A 
ATOM     35  C   UNL     1     -11.993   0.583  -2.443  0.00  0.00    +0.001 A 
ATOM     36  C   UNL     1     -12.626  -0.652  -2.460  0.00  0.00    +0.002 A 
ATOM     37  C   UNL     1     -11.899  -1.816  -2.340  0.00  0.00    +0.026 A 
ENDBRANCH  27  28
ENDBRANCH   1  27
TORSDOF 9
