REMARK  Name = ZINC40291377
REMARK  8 active torsions:
REMARK  status: ('A' for Active; 'I' for Inactive)
REMARK    1  A    between atoms: C_1  and  C_2
REMARK    2  A    between atoms: C_6  and  C_20
REMARK    3  A    between atoms: C_7  and  O_8
REMARK    4  A    between atoms: O_8  and  C_9
REMARK    5  A    between atoms: C_10  and  C_17
REMARK    6  A    between atoms: C_11  and  C_16
REMARK    7  A    between atoms: C_12  and  C_15
REMARK    8  A    between atoms: C_17  and  N_19
REMARK                            x       y       z     vdW  Elec       q    Type
REMARK                         _______ _______ _______ _____ _____    ______ ____
ROOT
ATOM      1  C   UNL     1      -1.145   0.288   2.987  0.00  0.00    +0.250 A 
ATOM      2  C   UNL     1      -1.252   0.978   4.207  0.00  0.00    +0.071 A 
ATOM      3  C   UNL     1      -2.539   1.242   4.693  0.00  0.00    -0.013 A 
ATOM      4  C   UNL     1      -3.617   0.806   3.941  0.00  0.00    +0.064 A 
ATOM      5  N   UNL     1      -3.417   0.165   2.806  0.00  0.00    -0.151 NA
ATOM      6  N   UNL     1      -2.244  -0.078   2.346  0.00  0.00    -0.110 NA
ATOM      7  C   UNL     1      -5.022   1.065   4.420  0.00  0.00    +0.068 C 
ATOM      8  C   UNL     1      -2.744   1.975   5.994  0.00  0.00    +0.046 C 
ENDROOT
BRANCH   2   9
ATOM      9  C   UNL     1      -0.051   1.408   4.950  0.00  0.00    +0.082 C 
ATOM     10  S   UNL     1       0.707   2.894   4.564  0.00  0.00    -0.035 S 
BRANCH   9  11
ATOM     11  N   UNL     1       0.448   0.632   5.932  0.00  0.00    -0.352 N 
ATOM     12  H   UNL     1       0.063  -0.242   6.102  0.00  0.00    +0.143 HD
ATOM     13  H   UNL     1       1.192   0.947   6.468  0.00  0.00    +0.143 HD
ENDBRANCH   9  11
ENDBRANCH   2   9
BRANCH   1  14
ATOM     14  O   UNL     1       0.074   0.004   2.467  0.00  0.00    -0.436 OA
BRANCH  14  21
ATOM     15  C   UNL     1       0.108   1.556   0.107  0.00  0.00    +0.047 C 
ATOM     16  C   UNL     1       0.143   0.049   0.090  0.00  0.00    -0.006 A 
ATOM     17  C   UNL     1       0.200  -0.627  -1.113  0.00  0.00    +0.027 A 
ATOM     18  C   UNL     1       0.232  -2.010  -1.130  0.00  0.00    +0.042 A 
ATOM     19  C   UNL     1       0.207  -2.719   0.058  0.00  0.00    +0.027 A 
ATOM     20  C   UNL     1       0.150  -2.046   1.264  0.00  0.00    -0.006 A 
ATOM     21  C   UNL     1       0.124  -0.659   1.282  0.00  0.00    +0.136 A 
ATOM     22  C   UNL     1       0.121  -2.818   2.557  0.00  0.00    +0.047 C 
ATOM     23 CL   UNL     1       0.303  -2.858  -2.643  0.00  0.00    -0.084 Cl
ENDBRANCH  14  21
ENDBRANCH   1  14
TORSDOF 4
