REMARK  Name = ZINC63270939
REMARK  7 active torsions:
REMARK  status: ('A' for Active; 'I' for Inactive)
REMARK    1  A    between atoms: C_1  and  C_2
REMARK    2  A    between atoms: C_2  and  C_4
REMARK    3  A    between atoms: C_7  and  N_10
REMARK    4  A    between atoms: C_11  and  C_13
REMARK    5  A    between atoms: C_13  and  C_14
REMARK    6  A    between atoms: C_14  and  C_15
REMARK    7  A    between atoms: C_15  and  N_16
REMARK                            x       y       z     vdW  Elec       q    Type
REMARK                         _______ _______ _______ _____ _____    ______ ____
ROOT
ATOM      1  N   UNL     1       0.561  -8.559  -7.014  0.00  0.00    -0.299 N 
ATOM      2  C   UNL     1       0.678  -9.421  -8.044  0.00  0.00    +0.302 C 
ATOM      3  O   UNL     1       0.781  -9.000  -9.180  0.00  0.00    -0.253 OA
ATOM      4  N   UNL     1       0.680 -10.749  -7.814  0.00  0.00    -0.283 N 
ATOM      5  C   UNL     1       0.665 -11.247  -6.435  0.00  0.00    +0.114 C 
ATOM      6  C   UNL     1       1.892 -12.148  -6.202  0.00  0.00    +0.052 C 
ATOM      7  C   UNL     1       1.987 -13.067  -7.395  0.00  0.00    -0.036 C 
ATOM      8  C   UNL     1       2.087 -14.388  -7.479  0.00  0.00    -0.001 A 
ATOM      9  C   UNL     1       2.252 -15.425  -6.449  0.00  0.00    +0.010 A 
ATOM     10  C   UNL     1       2.300 -16.709  -6.894  0.00  0.00    +0.001 A 
ATOM     11  C   UNL     1       2.202 -17.060  -8.244  0.00  0.00    +0.002 A 
ATOM     12  C   UNL     1       2.057 -16.171  -9.258  0.00  0.00    +0.026 A 
ATOM     13  C   UNL     1       2.001 -14.788  -8.917  0.00  0.00    +0.043 A 
ATOM     14  N   UNL     1       1.892 -13.738  -9.676  0.00  0.00    -0.376 N 
ATOM     15  C   UNL     1       1.956 -12.547  -8.828  0.00  0.00    +0.124 C 
ATOM     16  C   UNL     1       0.691 -11.684  -8.951  0.00  0.00    +0.138 C 
ATOM     17  H   UNL     1       0.551  -8.891  -6.103  0.00  0.00    +0.150 HD
ATOM     18  H   UNL     1       1.786 -13.743 -10.640  0.00  0.00    +0.160 HD
ENDROOT
BRANCH   1  19
ATOM     19  C   UNL     1       0.448  -7.121  -7.271  0.00  0.00    +0.106 C 
BRANCH  19  20
ATOM     20  C   UNL     1       0.328  -6.373  -5.942  0.00  0.00    +0.028 C 
BRANCH  20  21
ATOM     21  C   UNL     1       0.211  -4.872  -6.210  0.00  0.00    +0.097 C 
BRANCH  21  23
ATOM     22  N   UNL     1      -0.023  -2.792  -4.891  0.00  0.00    -0.285 N 
ATOM     23  C   UNL     1       0.093  -4.135  -4.901  0.00  0.00    +0.217 C 
ATOM     24  O   UNL     1       0.102  -4.751  -3.856  0.00  0.00    -0.275 OA
ATOM     25  H   UNL     1      -0.105  -2.307  -5.726  0.00  0.00    +0.155 HD
BRANCH  22  29
ATOM     26  C   UNL     1      -0.029  -0.731  -1.277  0.00  0.00    +0.017 A 
ATOM     27  C   UNL     1       0.738  -1.895  -1.421  0.00  0.00    +0.013 A 
ATOM     28  C   UNL     1       0.737  -2.571  -2.613  0.00  0.00    +0.024 A 
ATOM     29  C   UNL     1      -0.025  -2.102  -3.681  0.00  0.00    +0.033 A 
ATOM     30  C   UNL     1      -0.788  -0.946  -3.542  0.00  0.00    +0.024 A 
ATOM     31  C   UNL     1      -0.798  -0.267  -2.352  0.00  0.00    +0.013 A 
BRANCH  26  33
ATOM     32  C   UNL     1       0.796  -0.506   1.154  0.00  0.00    +0.091 C 
ATOM     33  C   UNL     1      -0.032  -0.004  -0.001  0.00  0.00    +0.160 C 
ATOM     34  O   UNL     1      -0.700   1.000   0.123  0.00  0.00    -0.292 OA
ENDBRANCH  26  33
ENDBRANCH  22  29
ENDBRANCH  21  23
ENDBRANCH  20  21
ENDBRANCH  19  20
ENDBRANCH   1  19
TORSDOF 6
