REMARK  Name = ZINC11666604
REMARK  4 active torsions:
REMARK  status: ('A' for Active; 'I' for Inactive)
REMARK    1  A    between atoms: C_1  and  O_2
REMARK    2  A    between atoms: O_2  and  C_3
REMARK    3  A    between atoms: C_3  and  C_5
REMARK    4  A    between atoms: C_8  and  C_11
REMARK                            x       y       z     vdW  Elec       q    Type
REMARK                         _______ _______ _______ _____ _____    ______ ____
ROOT
ATOM      1  C   UNL     1       0.941   5.234   0.029  0.00  0.00    +0.063 C 
ATOM      2  C   UNL     1       0.676   3.751   0.084  0.00  0.00    +0.032 A 
ATOM      3  C   UNL     1      -0.499   3.084   0.058  0.00  0.00    +0.087 A 
ATOM      4  N   UNL     1      -0.413   1.714   0.134  0.00  0.00    -0.311 N 
ATOM      5  H   UNL     1      -1.222   1.179   0.120  0.00  0.00    +0.170 HD
ATOM      6  C   UNL     1       0.788   1.110   0.233  0.00  0.00    +0.289 A 
ATOM      7  O   UNL     1       1.042  -0.079   0.309  0.00  0.00    -0.260 OA
ATOM      8  S   UNL     1       1.882   2.457   0.217  0.00  0.00    -0.030 S 
ATOM      9  S   UNL     1      -2.060   3.952  -0.078  0.00  0.00    -0.103 S 
ATOM     10  C   UNL     1      -1.473   5.585  -0.593  0.00  0.00    +0.060 C 
ATOM     11  C   UNL     1      -0.320   5.940   0.372  0.00  0.00    +0.018 C 
ATOM     12  C   UNL     1      -0.425   7.437   0.641  0.00  0.00    -0.006 C 
ATOM     13  C   UNL     1      -1.444   7.436   1.844  0.00  0.00    +0.004 C 
ATOM     14  C   UNL     1      -2.731   6.828   1.214  0.00  0.00    +0.005 C 
ATOM     15  C   UNL     1      -2.464   6.736  -0.312  0.00  0.00    +0.003 C 
ATOM     16  C   UNL     1      -1.428   7.924  -0.477  0.00  0.00    +0.008 C 
ENDROOT
BRANCH   1  20
ATOM     17  C   UNL     1       2.186   6.333  -3.912  0.00  0.00    +0.059 A 
ATOM     18  C   UNL     1       2.758   6.951  -2.798  0.00  0.00    +0.015 A 
ATOM     19  C   UNL     1       2.351   6.592  -1.529  0.00  0.00    +0.005 A 
ATOM     20  C   UNL     1       1.379   5.622  -1.360  0.00  0.00    -0.039 A 
ATOM     21  C   UNL     1       0.812   5.001  -2.459  0.00  0.00    +0.005 A 
ATOM     22  C   UNL     1       1.206   5.354  -3.733  0.00  0.00    +0.015 A 
BRANCH  17  23
ATOM     23  C   UNL     1       2.616   6.713  -5.273  0.00  0.00    +0.339 C 
ATOM     24  O   UNL     1       3.469   7.564  -5.425  0.00  0.00    -0.245 OA
BRANCH  23  26
ATOM     25  C   UNL     1       2.534   6.537  -7.652  0.00  0.00    +0.280 C 
ATOM     26  O   UNL     1       2.063   6.114  -6.346  0.00  0.00    -0.464 OA
ENDBRANCH  23  26
ENDBRANCH  17  23
ENDBRANCH   1  20
TORSDOF 3
