REMARK  Name = ZINC40915975
REMARK  9 active torsions:
REMARK  status: ('A' for Active; 'I' for Inactive)
REMARK    1  A    between atoms: C_1  and  C_2
REMARK    2  A    between atoms: C_4  and  C_31
REMARK    3  A    between atoms: C_5  and  C_9
REMARK    4  A    between atoms: C_7  and  C_8
REMARK    5  A    between atoms: C_9  and  O_10
REMARK    6  A    between atoms: O_10  and  C_11
REMARK    7  A    between atoms: C_14  and  C_17
REMARK    8  A    between atoms: C_19  and  C_28
REMARK    9  A    between atoms: C_20  and  C_27
REMARK                            x       y       z     vdW  Elec       q    Type
REMARK                         _______ _______ _______ _____ _____    ______ ____
ROOT
ATOM      1  C   UNL     1      -0.205  -6.226   1.255  0.00  0.00    +0.121 A 
ATOM      2  C   UNL     1       0.001  -7.105   0.202  0.00  0.00    +0.046 A 
ATOM      3  C   UNL     1       0.144  -8.456   0.449  0.00  0.00    +0.009 A 
ATOM      4  C   UNL     1       0.083  -8.933   1.745  0.00  0.00    -0.018 A 
ATOM      5  C   UNL     1      -0.123  -8.060   2.797  0.00  0.00    +0.009 A 
ATOM      6  C   UNL     1      -0.261  -6.707   2.555  0.00  0.00    +0.046 A 
ENDROOT
BRANCH   4   7
ATOM      7  C   UNL     1       0.240 -10.408   2.012  0.00  0.00    +0.177 C 
ATOM      8  C   UNL     1      -1.002 -10.931   2.684  0.00  0.00    +0.060 C 
ATOM      9  C   UNL     1      -1.042 -11.281   3.977  0.00  0.00    +0.018 C 
ATOM     10  N   UNL     1       0.060 -11.199   4.793  0.00  0.00    -0.287 N 
ATOM     11  C   UNL     1       1.290 -10.992   4.184  0.00  0.00    +0.218 A 
ATOM     12  N   UNL     1       1.392 -10.626   2.882  0.00  0.00    -0.221 N 
ATOM     13  N   UNL     1       2.754 -10.516   2.606  0.00  0.00    -0.156 NA
ATOM     14  C   UNL     1       3.389 -10.804   3.715  0.00  0.00    +0.247 A 
ATOM     15  N   UNL     1       2.497 -11.091   4.670  0.00  0.00    -0.201 NA
ATOM     16  C   UNL     1      -2.341 -11.782   4.556  0.00  0.00    +0.061 C 
ATOM     17  H   UNL     1      -0.019 -11.282   5.756  0.00  0.00    +0.155 HD
BRANCH   8  18
ATOM     18  C   UNL     1      -2.182 -11.060   1.913  0.00  0.00    +0.241 C 
ATOM     19  O   UNL     1      -2.338 -12.030   1.195  0.00  0.00    -0.271 OA
ATOM     20  N   UNL     1      -3.134 -10.107   1.975  0.00  0.00    -0.325 N 
ATOM     21  H   UNL     1      -3.010  -9.334   2.547  0.00  0.00    +0.145 HD
ATOM     22  H   UNL     1      -3.943 -10.195   1.447  0.00  0.00    +0.145 HD
ENDBRANCH   8  18
ENDBRANCH   4   7
BRANCH   1  23
ATOM     23  O   UNL     1      -0.347  -4.896   1.015  0.00  0.00    -0.487 OA
BRANCH  23  24
ATOM     24  C   UNL     1      -0.279  -4.472  -0.348  0.00  0.00    +0.264 C 
BRANCH  24  29
ATOM     25  C   UNL     1      -0.959   1.260  -0.621  0.00  0.00    +0.044 C 
ATOM     26  C   UNL     1      -0.781  -0.235  -0.550  0.00  0.00    -0.047 A 
ATOM     27  C   UNL     1      -0.589  -0.964  -1.709  0.00  0.00    +0.007 A 
ATOM     28  C   UNL     1      -0.426  -2.335  -1.643  0.00  0.00    -0.044 A 
ATOM     29  C   UNL     1      -0.455  -2.977  -0.419  0.00  0.00    -0.007 A 
ATOM     30  C   UNL     1      -0.647  -2.248   0.739  0.00  0.00    +0.010 A 
ATOM     31  C   UNL     1      -0.805  -0.876   0.674  0.00  0.00    -0.047 A 
ATOM     32  C   UNL     1      -1.009  -0.081   1.938  0.00  0.00    +0.044 C 
ATOM     33  C   UNL     1      -0.217  -3.130  -2.907  0.00  0.00    +0.044 C 
ENDBRANCH  24  29
ENDBRANCH  23  24
ENDBRANCH   1  23
TORSDOF 5
