REMARK  Name = ZINC39677130
REMARK  9 active torsions:
REMARK  status: ('A' for Active; 'I' for Inactive)
REMARK    1  A    between atoms: C_1  and  C_2
REMARK    2  A    between atoms: C_6  and  C_7
REMARK    3  A    between atoms: C_7  and  N_8
REMARK    4  A    between atoms: C_9  and  C_11
REMARK    5  A    between atoms: C_22  and  C_24
REMARK    6  A    between atoms: C_26  and  O_32
REMARK    7  A    between atoms: C_28  and  O_30
REMARK    8  A    between atoms: O_30  and  C_31
REMARK    9  A    between atoms: O_32  and  C_33
REMARK                            x       y       z     vdW  Elec       q    Type
REMARK                         _______ _______ _______ _____ _____    ______ ____
ROOT
ATOM      1  C   UNL     1      -2.644   1.144   4.591  0.00  0.00    +0.100 C 
ATOM      2  C   UNL     1      -3.640   2.057   3.842  0.00  0.00    +0.121 C 
ATOM      3  N   UNL     1      -4.493   2.634   4.908  0.00  0.00    -0.296 N 
ATOM      4  C   UNL     1      -3.555   2.910   6.022  0.00  0.00    +0.115 C 
ATOM      5  C   UNL     1      -2.590   1.708   6.021  0.00  0.00    -0.004 C 
ATOM      6  C   UNL     1      -1.174   2.168   6.354  0.00  0.00    -0.010 C 
ATOM      7  C   UNL     1      -1.132   2.670   7.800  0.00  0.00    -0.082 C 
ATOM      8  N   UNL     1      -1.543   1.592   8.707  0.00  0.00    +0.379 N 
ATOM      9  C   UNL     1      -2.938   1.219   8.441  0.00  0.00    -0.082 C 
ATOM     10  C   UNL     1      -3.056   0.655   7.022  0.00  0.00    -0.010 C 
ATOM     11  C   UNL     1      -5.822   2.857   4.873  0.00  0.00    +0.247 C 
ATOM     12  O   UNL     1      -6.481   2.457   3.933  0.00  0.00    -0.270 OA
ATOM     13  H   UNL     1      -0.949   0.789   8.564  0.00  0.00    -0.086 HD
ATOM     14  H   UNL     1      -1.457   1.905   9.662  0.00  0.00    -0.086 HD
ENDROOT
BRANCH  11  15
ATOM     15  C   UNL     1      -6.478   3.587   5.978  0.00  0.00    +0.044 A 
ATOM     16  C   UNL     1      -5.726   4.409   6.818  0.00  0.00    +0.059 A 
ATOM     17  C   UNL     1      -6.345   5.092   7.852  0.00  0.00    +0.124 A 
ATOM     18  C   UNL     1      -7.711   4.959   8.053  0.00  0.00    +0.091 A 
ATOM     19  C   UNL     1      -8.463   4.143   7.221  0.00  0.00    +0.124 A 
ATOM     20  C   UNL     1      -7.853   3.461   6.181  0.00  0.00    +0.059 A 
BRANCH  19  21
ATOM     21  O   UNL     1      -9.801   4.017   7.422  0.00  0.00    -0.495 OA
ATOM     22  C   UNL     1     -10.366   4.753   8.509  0.00  0.00    +0.277 C 
ENDBRANCH  19  21
BRANCH  17  23
ATOM     23  O   UNL     1      -5.613   5.893   8.670  0.00  0.00    -0.495 OA
ATOM     24  C   UNL     1      -6.316   6.567   9.716  0.00  0.00    +0.277 C 
ENDBRANCH  17  23
ENDBRANCH  11  15
BRANCH   1  26
ATOM     25  N   UNL     1      -0.461   0.146   3.992  0.00  0.00    -0.310 N 
ATOM     26  C   UNL     1      -1.283   1.214   3.948  0.00  0.00    +0.218 C 
ATOM     27  O   UNL     1      -0.927   2.230   3.390  0.00  0.00    -0.275 OA
ATOM     28  H   UNL     1      -0.745  -0.666   4.438  0.00  0.00    +0.149 HD
BRANCH  25  29
ATOM     29  C   UNL     1       0.862   0.214   3.366  0.00  0.00    +0.147 C 
BRANCH  29  35
ATOM     30  C   UNL     1       0.771  -2.210   1.482  0.00  0.00    +0.044 C 
ATOM     31  C   UNL     1       1.570  -2.196   2.760  0.00  0.00    -0.039 A 
ATOM     32  C   UNL     1       2.313  -3.300   3.135  0.00  0.00    +0.011 A 
ATOM     33  C   UNL     1       3.021  -3.255   4.290  0.00  0.00    +0.046 A 
ATOM     34  S   UNL     1       2.645  -1.615   4.889  0.00  0.00    -0.100 S 
ATOM     35  C   UNL     1       1.575  -1.099   3.556  0.00  0.00    +0.010 A 
ENDBRANCH  29  35
ENDBRANCH  25  29
ENDBRANCH   1  26
TORSDOF 6
