REMARK  Name = ZINC43141537
REMARK  5 active torsions:
REMARK  status: ('A' for Active; 'I' for Inactive)
REMARK    1  A    between atoms: C_1  and  C_2
REMARK    2  A    between atoms: C_6  and  N_9
REMARK    3  A    between atoms: C_7  and  C_8
REMARK    4  A    between atoms: N_12  and  C_13
REMARK    5  A    between atoms: C_13  and  C_14
REMARK                            x       y       z     vdW  Elec       q    Type
REMARK                         _______ _______ _______ _____ _____    ______ ____
ROOT
ATOM      1  N   UNL     1       0.051  -2.797   2.393  0.00  0.00    -0.269 N 
ATOM      2  C   UNL     1      -0.032  -4.143   2.386  0.00  0.00    +0.304 C 
ATOM      3  O   UNL     1      -0.029  -4.746   1.330  0.00  0.00    -0.253 OA
ATOM      4  N   UNL     1      -0.119  -4.819   3.548  0.00  0.00    -0.299 N 
ATOM      5  H   UNL     1       0.131  -2.321   3.234  0.00  0.00    +0.156 HD
ATOM      6  H   UNL     1      -0.121  -4.337   4.390  0.00  0.00    +0.150 HD
ENDROOT
BRANCH   1  12
ATOM      7  C   UNL     1       1.201   1.236  -0.173  0.00  0.00    +0.044 C 
ATOM      8  C   UNL     1       0.572  -0.131  -0.085  0.00  0.00    -0.046 A 
ATOM      9  C   UNL     1      -0.033  -0.686  -1.198  0.00  0.00    +0.004 A 
ATOM     10  C   UNL     1      -0.611  -1.940  -1.121  0.00  0.00    +0.002 A 
ATOM     11  C   UNL     1      -0.585  -2.642   0.068  0.00  0.00    +0.023 A 
ATOM     12  C   UNL     1       0.023  -2.088   1.187  0.00  0.00    +0.038 A 
ATOM     13  C   UNL     1       0.607  -0.831   1.105  0.00  0.00    -0.026 A 
ATOM     14  C   UNL     1       1.273  -0.228   2.315  0.00  0.00    +0.046 C 
ENDBRANCH   1  12
BRANCH   4  15
ATOM     15  C   UNL     1      -0.210  -6.281   3.541  0.00  0.00    +0.113 C 
BRANCH  15  16
ATOM     16  C   UNL     1      -0.297  -6.794   4.979  0.00  0.00    +0.048 C 
ATOM     17  C   UNL     1      -0.503  -8.311   4.974  0.00  0.00    +0.047 C 
ATOM     18  C   UNL     1      -0.295  -8.856   6.364  0.00  0.00    -0.005 A 
ATOM     19  C   UNL     1      -0.788 -10.114   6.668  0.00  0.00    +0.007 A 
ATOM     20  C   UNL     1      -0.611 -10.646   7.930  0.00  0.00    +0.000 A 
ATOM     21  C   UNL     1       0.060  -9.922   8.898  0.00  0.00    +0.004 A 
ATOM     22  C   UNL     1       0.552  -8.667   8.602  0.00  0.00    +0.046 A 
ATOM     23  C   UNL     1       0.375  -8.127   7.332  0.00  0.00    +0.124 A 
ATOM     24  O   UNL     1       0.864  -6.885   7.082  0.00  0.00    -0.491 OA
ATOM     25  C   UNL     1       1.012  -6.487   5.718  0.00  0.00    +0.234 C 
ENDBRANCH  15  16
ENDBRANCH   4  15
TORSDOF 3
