REMARK  Name = ZINC32316933
REMARK  14 active torsions:
REMARK  status: ('A' for Active; 'I' for Inactive)
REMARK    1  A    between atoms: C_1  and  C_2
REMARK    2  A    between atoms: C_2  and  N_3
REMARK    3  A    between atoms: N_3  and  C_4
REMARK    4  A    between atoms: N_3  and  C_6
REMARK    5  A    between atoms: C_4  and  C_5
REMARK    6  A    between atoms: C_6  and  C_8
REMARK    7  A    between atoms: C_6  and  C_29
REMARK    8  A    between atoms: C_8  and  N_9
REMARK    9  A    between atoms: C_10  and  C_12
REMARK   10  A    between atoms: C_12  and  N_13
REMARK   11  A    between atoms: C_16  and  C_20
REMARK   12  A    between atoms: C_16  and  C_21
REMARK   13  A    between atoms: C_24  and  O_27
REMARK   14  A    between atoms: O_27  and  C_28
REMARK                            x       y       z     vdW  Elec       q    Type
REMARK                         _______ _______ _______ _____ _____    ______ ____
ROOT
ATOM      1  N   UNL     1      -1.083   1.084   1.565  0.00  0.00    -0.315 N 
ATOM      2  C   UNL     1      -0.754   0.543   2.755  0.00  0.00    +0.231 C 
ATOM      3  O   UNL     1       0.305  -0.034   2.886  0.00  0.00    -0.274 OA
ATOM      4  H   UNL     1      -2.043   1.607   1.446  0.00  0.00    +0.149 HD
ENDROOT
BRANCH   1   5
ATOM      5  C   UNL     1      -0.162   0.976   0.431  0.00  0.00    +0.093 C 
BRANCH   5   6
ATOM      6  C   UNL     1      -0.728   1.750  -0.761  0.00  0.00    -0.019 C 
BRANCH   6   7
ATOM      7  C   UNL     1       0.230   1.655  -1.922  0.00  0.00    -0.041 A 
ATOM      8  C   UNL     1      -0.060   0.828  -2.991  0.00  0.00    +0.003 A 
ATOM      9  C   UNL     1       0.816   0.745  -4.057  0.00  0.00    +0.000 A 
ATOM     10  C   UNL     1       1.986   1.481  -4.050  0.00  0.00    +0.001 A 
ATOM     11  C   UNL     1       2.279   2.304  -2.979  0.00  0.00    +0.020 A 
ATOM     12  C   UNL     1       1.401   2.392  -1.914  0.00  0.00    +0.043 A 
ATOM     13 CL   UNL     1       1.768   3.425  -0.568  0.00  0.00    -0.083 Cl
ENDBRANCH   6   7
BRANCH   6  14
ATOM     14  N   UNL     1      -2.023   1.175  -1.148  0.00  0.00    +0.385 N 
ATOM     15  H   UNL     1      -2.071   1.158  -2.247  0.00  0.00    -0.081 HD
BRANCH  14  17
ATOM     16  C   UNL     1      -1.309  -1.132  -1.550  0.00  0.00    -0.017 C 
ATOM     17  C   UNL     1      -2.151  -0.207  -0.668  0.00  0.00    -0.081 C 
ENDBRANCH  14  17
BRANCH  14  18
ATOM     18  C   UNL     1      -3.133   2.006  -0.661  0.00  0.00    -0.081 C 
ATOM     19  C   UNL     1      -3.251   3.260  -1.529  0.00  0.00    -0.017 C 
ENDBRANCH  14  18
ENDBRANCH   6  14
ENDBRANCH   5   6
ENDBRANCH   1   5
BRANCH   2  20
ATOM     20  C   UNL     1      -1.701   0.654   3.921  0.00  0.00    +0.213 C 
BRANCH  20  21
ATOM     21  N   UNL     1      -1.117  -0.009   5.090  0.00  0.00    -0.215 N 
ATOM     22  C   UNL     1      -0.331   0.606   5.995  0.00  0.00    +0.251 C 
ATOM     23  O   UNL     1       0.014   1.768   5.996  0.00  0.00    -0.272 OA
ATOM     24  C   UNL     1       0.032  -0.458   7.012  0.00  0.00    +0.135 C 
ATOM     25  N   UNL     1      -0.656  -1.662   6.515  0.00  0.00    -0.281 N 
ATOM     26  C   UNL     1      -1.303  -1.299   5.393  0.00  0.00    +0.310 C 
ATOM     27  O   UNL     1      -1.979  -2.059   4.726  0.00  0.00    -0.252 OA
ATOM     28  C   UNL     1       1.546  -0.677   7.044  0.00  0.00    +0.047 C 
ATOM     29  H   UNL     1      -0.568  -2.612   7.062  0.00  0.00    +0.152 HD
BRANCH  24  30
ATOM     30  C   UNL     1      -0.479  -0.081   8.379  0.00  0.00    -0.015 A 
ATOM     31  C   UNL     1      -0.592   1.251   8.731  0.00  0.00    +0.010 A 
ATOM     32  C   UNL     1      -1.065   1.599   9.981  0.00  0.00    +0.046 A 
ATOM     33  C   UNL     1      -1.418   0.610  10.888  0.00  0.00    +0.120 A 
ATOM     34  C   UNL     1      -1.299  -0.727  10.534  0.00  0.00    +0.046 A 
ATOM     35  C   UNL     1      -0.830  -1.069   9.281  0.00  0.00    +0.010 A 
BRANCH  33  36
ATOM     36  O   UNL     1      -1.878   0.949  12.121  0.00  0.00    -0.495 OA
ATOM     37  C   UNL     1      -1.974   2.344  12.416  0.00  0.00    +0.277 C 
ENDBRANCH  33  36
ENDBRANCH  24  30
ENDBRANCH  20  21
ENDBRANCH   2  20
TORSDOF 10
