REMARK  Name = ZINC67591079
REMARK  6 active torsions:
REMARK  status: ('A' for Active; 'I' for Inactive)
REMARK    1  A    between atoms: C_1  and  C_2
REMARK    2  A    between atoms: C_2  and  O_3
REMARK    3  A    between atoms: O_3  and  C_4
REMARK    4  A    between atoms: N_13  and  C_14
REMARK    5  A    between atoms: C_14  and  C_16
REMARK    6  A    between atoms: C_14  and  C_17
REMARK                            x       y       z     vdW  Elec       q    Type
REMARK                         _______ _______ _______ _____ _____    ______ ____
ROOT
ATOM      1  C   UNL     1      -1.432  -1.921   0.011  0.00  0.00    +0.136 C 
ATOM      2  C   UNL     1      -2.717  -2.345  -0.704  0.00  0.00    +0.035 C 
ATOM      3  C   UNL     1      -2.799  -3.873  -0.744  0.00  0.00    +0.022 C 
ATOM      4  C   UNL     1      -2.839  -4.417   0.687  0.00  0.00    +0.109 C 
ATOM      5  N   UNL     1      -1.681  -3.894   1.425  0.00  0.00    -0.283 N 
ATOM      6  C   UNL     1      -1.456  -2.442   1.451  0.00  0.00    +0.140 C 
ATOM      7  C   UNL     1      -0.840  -4.730   2.065  0.00  0.00    +0.303 C 
ATOM      8  O   UNL     1       0.166  -4.295   2.591  0.00  0.00    -0.253 OA
ATOM      9  N   UNL     1      -1.114  -6.048   2.122  0.00  0.00    -0.293 N 
ATOM     10  H   UNL     1      -1.878  -6.406   1.642  0.00  0.00    +0.151 HD
ENDROOT
BRANCH   9  11
ATOM     11  C   UNL     1      -0.260  -6.941   2.909  0.00  0.00    +0.102 C 
ATOM     12  C   UNL     1      -0.720  -6.932   4.368  0.00  0.00    +0.033 C 
BRANCH  11  13
ATOM     13  C   UNL     1      -0.357  -8.342   2.361  0.00  0.00    -0.024 A 
ATOM     14  C   UNL     1      -1.578  -8.834   1.938  0.00  0.00    +0.009 A 
ATOM     15  C   UNL     1      -1.672 -10.118   1.434  0.00  0.00    +0.050 A 
ATOM     16  C   UNL     1      -0.542 -10.915   1.352  0.00  0.00    +0.166 A 
ATOM     17  C   UNL     1       0.688 -10.419   1.778  0.00  0.00    +0.167 A 
ATOM     18  C   UNL     1       0.776  -9.129   2.276  0.00  0.00    +0.055 A 
ATOM     19  O   UNL     1       1.635 -11.385   1.596  0.00  0.00    -0.453 OA
ATOM     20  C   UNL     1       0.903 -12.615   1.437  0.00  0.00    +0.466 C 
ATOM     21  O   UNL     1      -0.365 -12.192   0.904  0.00  0.00    -0.453 OA
ENDBRANCH  11  13
ENDBRANCH   9  11
BRANCH   1  22
ATOM     22  O   UNL     1      -1.341  -0.495   0.021  0.00  0.00    -0.375 OA
BRANCH  22  24
ATOM     23  C   UNL     1      -0.025   1.532   0.028  0.00  0.00    +0.034 C 
ATOM     24  C   UNL     1      -0.001   0.003   0.016  0.00  0.00    +0.157 C 
ENDBRANCH  22  24
ENDBRANCH   1  22
TORSDOF 4
