REMARK  Name = ZINC67550303
REMARK  12 active torsions:
REMARK  status: ('A' for Active; 'I' for Inactive)
REMARK    1  A    between atoms: C_1  and  C_2
REMARK    2  A    between atoms: C_2  and  C_3
REMARK    3  A    between atoms: C_3  and  C_5
REMARK    4  A    between atoms: C_3  and  N_6
REMARK    5  A    between atoms: C_7  and  C_9
REMARK    6  A    between atoms: C_12  and  N_16
REMARK    7  A    between atoms: C_13  and  C_15
REMARK    8  A    between atoms: N_19  and  C_20
REMARK    9  A    between atoms: N_19  and  C_21
REMARK   10  A    between atoms: C_21  and  C_23
REMARK   11  A    between atoms: C_21  and  C_24
REMARK   12  A    between atoms: C_28  and  O_30
REMARK                            x       y       z     vdW  Elec       q    Type
REMARK                         _______ _______ _______ _____ _____    ______ ____
ROOT
ATOM      1  N   UNL     1       8.301   1.606  -2.215  0.00  0.00    -0.269 N 
ATOM      2  C   UNL     1       8.684   2.470  -1.254  0.00  0.00    +0.307 C 
ATOM      3  O   UNL     1       7.886   2.837  -0.413  0.00  0.00    -0.252 OA
ATOM      4  N   UNL     1       9.952   2.927  -1.226  0.00  0.00    -0.282 N 
ATOM      5  C   UNL     1      10.913   2.485  -2.239  0.00  0.00    +0.134 C 
ATOM      6  H   UNL     1       8.952   1.265  -2.848  0.00  0.00    +0.156 HD
ENDROOT
BRANCH   1  10
ATOM      7  C   UNL     1       4.322   0.401  -2.465  0.00  0.00    +0.037 A 
ATOM      8  C   UNL     1       4.902   0.645  -1.217  0.00  0.00    +0.015 A 
ATOM      9  C   UNL     1       6.218   1.043  -1.138  0.00  0.00    +0.024 A 
ATOM     10  C   UNL     1       6.969   1.203  -2.299  0.00  0.00    +0.038 A 
ATOM     11  C   UNL     1       6.394   0.961  -3.542  0.00  0.00    -0.028 A 
ATOM     12  C   UNL     1       5.080   0.557  -3.628  0.00  0.00    +0.018 A 
ATOM     13  C   UNL     1       7.211   1.136  -4.796  0.00  0.00    +0.045 C 
BRANCH   7  15
ATOM     14  N   UNL     1       2.181  -0.177  -1.431  0.00  0.00    -0.309 N 
ATOM     15  C   UNL     1       2.912  -0.027  -2.554  0.00  0.00    +0.244 C 
ATOM     16  O   UNL     1       2.409  -0.243  -3.640  0.00  0.00    -0.270 OA
ATOM     17  H   UNL     1       2.582  -0.004  -0.565  0.00  0.00    +0.149 HD
BRANCH  14  18
ATOM     18  C   UNL     1       0.782  -0.601  -1.519  0.00  0.00    +0.070 C 
ATOM     19  C   UNL     1       0.716  -2.128  -1.591  0.00  0.00    +0.028 C 
BRANCH  18  21
ATOM     20  C   UNL     1      -0.017   1.414  -0.277  0.00  0.00    +0.005 C 
ATOM     21  C   UNL     1       0.023  -0.115  -0.283  0.00  0.00    +0.018 C 
ENDBRANCH  18  21
ENDBRANCH  14  18
ENDBRANCH   7  15
ENDBRANCH   1  10
BRANCH   4  22
ATOM     22  C   UNL     1      10.368   3.866  -0.181  0.00  0.00    +0.104 C 
ATOM     23  C   UNL     1      10.967   5.117  -0.829  0.00  0.00    +0.033 C 
BRANCH  22  24
ATOM     24  C   UNL     1      11.402   3.213   0.699  0.00  0.00    -0.024 A 
ATOM     25  C   UNL     1      12.370   3.983   1.317  0.00  0.00    +0.006 A 
ATOM     26  C   UNL     1      13.320   3.387   2.125  0.00  0.00    +0.004 A 
ATOM     27  C   UNL     1      13.305   2.019   2.317  0.00  0.00    +0.045 A 
ATOM     28  C   UNL     1      12.335   1.244   1.698  0.00  0.00    +0.117 A 
ATOM     29  C   UNL     1      11.379   1.845   0.893  0.00  0.00    +0.050 A 
BRANCH  28  30
ATOM     30  O   UNL     1      12.317  -0.102   1.886  0.00  0.00    -0.507 OA
ATOM     31  H   UNL     1      11.783  -0.388   2.640  0.00  0.00    +0.292 HD
ENDBRANCH  28  30
ENDBRANCH  22  24
ENDBRANCH   4  22
TORSDOF 7
