REMARK  Name = ZINC08739132
REMARK  2 active torsions:
REMARK  status: ('A' for Active; 'I' for Inactive)
REMARK    1  A    between atoms: C_6  and  C_7
REMARK    2  A    between atoms: C_17  and  C_19
REMARK                            x       y       z     vdW  Elec       q    Type
REMARK                         _______ _______ _______ _____ _____    ______ ____
ROOT
ATOM      1  C   UNL     1      -1.440  -1.261   0.944  0.00  0.00    +0.097 A 
ATOM      2  C   UNL     1      -1.631  -2.315   0.041  0.00  0.00    +0.018 A 
ATOM      3  C   UNL     1      -2.897  -2.775   0.193  0.00  0.00    +0.043 A 
ATOM      4  N   UNL     1      -3.491  -2.040   1.150  0.00  0.00    -0.281 N 
ATOM      5  H   UNL     1      -4.403  -2.145   1.465  0.00  0.00    +0.189 HD
ATOM      6  N   UNL     1      -2.562  -1.099   1.617  0.00  0.00    -0.173 NA
ATOM      7  C   UNL     1      -3.490  -3.917  -0.594  0.00  0.00    +0.074 C 
ATOM      8  C   UNL     1      -2.637  -4.152  -1.846  0.00  0.00    +0.114 C 
ATOM      9  N   UNL     1      -1.215  -4.135  -1.472  0.00  0.00    -0.290 N 
ATOM     10  C   UNL     1      -0.643  -2.880  -0.951  0.00  0.00    +0.147 C 
ATOM     11  C   UNL     1      -0.453  -5.239  -1.601  0.00  0.00    +0.282 C 
ATOM     12  O   UNL     1      -0.964  -6.296  -1.925  0.00  0.00    -0.267 OA
ENDROOT
BRANCH   1  18
ATOM     13  C   UNL     1      -0.264   0.884   1.430  0.00  0.00    +0.013 A 
ATOM     14  C   UNL     1       0.896   1.614   1.590  0.00  0.00    +0.039 A 
ATOM     15  C   UNL     1       2.129   1.000   1.440  0.00  0.00    +0.123 A 
ATOM     16  C   UNL     1       2.203  -0.348   1.129  0.00  0.00    +0.039 A 
ATOM     17  C   UNL     1       1.048  -1.085   0.967  0.00  0.00    +0.013 A 
ATOM     18  C   UNL     1      -0.195  -0.472   1.117  0.00  0.00    +0.003 A 
ATOM     19  F   UNL     1       3.262   1.718   1.597  0.00  0.00    -0.205 F 
ENDBRANCH   1  18
BRANCH  11  20
ATOM     20  C   UNL     1       0.989  -5.168  -1.353  0.00  0.00    +0.191 A 
ATOM     21  C   UNL     1       1.851  -6.228  -1.317  0.00  0.00    +0.056 A 
ATOM     22  C   UNL     1       3.124  -5.704  -1.050  0.00  0.00    +0.058 A 
ATOM     23  C   UNL     1       2.987  -4.363  -0.935  0.00  0.00    +0.171 A 
ATOM     24  O   UNL     1       1.700  -4.044  -1.124  0.00  0.00    -0.444 OA
ATOM     25 BR   UNL     1       4.384  -3.140  -0.575  0.00  0.00    -0.008 Br
ENDBRANCH  11  20
TORSDOF 2
