REMARK  Name = ZINC16434604
REMARK  13 active torsions:
REMARK  status: ('A' for Active; 'I' for Inactive)
REMARK    1  A    between atoms: C_1  and  C_2
REMARK    2  A    between atoms: C_5  and  N_8
REMARK    3  A    between atoms: C_9  and  N_17
REMARK    4  A    between atoms: C_11  and  C_13
REMARK    5  A    between atoms: C_13  and  C_14
REMARK    6  A    between atoms: C_13  and  C_15
REMARK    7  A    between atoms: C_13  and  C_16
REMARK    8  A    between atoms: C_18  and  C_20
REMARK    9  A    between atoms: C_20  and  N_21
REMARK   10  A    between atoms: N_21  and  C_22
REMARK   11  A    between atoms: C_22  and  C_23
REMARK   12  A    between atoms: C_22  and  C_24
REMARK   13  A    between atoms: N_27  and  C_28
REMARK                            x       y       z     vdW  Elec       q    Type
REMARK                         _______ _______ _______ _____ _____    ______ ____
ROOT
ATOM      1  N   UNL     1      -6.229   0.318   2.146  0.00  0.00    -0.269 N 
ATOM      2  C   UNL     1      -5.122   1.004   1.799  0.00  0.00    +0.236 C 
ATOM      3  O   UNL     1      -4.365   1.408   2.656  0.00  0.00    -0.274 OA
ATOM      4  H   UNL     1      -6.834  -0.005   1.460  0.00  0.00    +0.156 HD
ENDROOT
BRANCH   1   6
ATOM      5  N   UNL     1      -7.582  -0.597   3.982  0.00  0.00    -0.218 N 
ATOM      6  C   UNL     1      -6.504   0.073   3.490  0.00  0.00    +0.129 A 
ATOM      7  C   UNL     1      -5.748   0.465   4.552  0.00  0.00    +0.069 A 
ATOM      8  C   UNL     1      -6.378   0.017   5.716  0.00  0.00    +0.071 A 
ATOM      9  N   UNL     1      -7.470  -0.620   5.378  0.00  0.00    -0.169 NA
BRANCH   5  14
ATOM     10  C   UNL     1     -11.771  -2.901   0.924  0.00  0.00    +0.044 C 
ATOM     11  C   UNL     1     -10.659  -2.289   1.736  0.00  0.00    -0.050 A 
ATOM     12  C   UNL     1     -10.232  -2.907   2.897  0.00  0.00    +0.005 A 
ATOM     13  C   UNL     1      -9.212  -2.349   3.643  0.00  0.00    +0.028 A 
ATOM     14  C   UNL     1      -8.616  -1.167   3.227  0.00  0.00    +0.067 A 
ATOM     15  C   UNL     1      -9.050  -0.546   2.063  0.00  0.00    +0.028 A 
ATOM     16  C   UNL     1     -10.067  -1.111   1.319  0.00  0.00    +0.005 A 
ENDBRANCH   5  14
BRANCH   8  17
ATOM     17  C   UNL     1      -5.884   0.232   7.124  0.00  0.00    +0.006 C 
ATOM     18  C   UNL     1      -6.138   1.682   7.538  0.00  0.00    +0.017 C 
ATOM     19  C   UNL     1      -6.627  -0.708   8.075  0.00  0.00    +0.017 C 
ATOM     20  C   UNL     1      -4.383  -0.061   7.187  0.00  0.00    +0.017 C 
ENDBRANCH   8  17
ENDBRANCH   1   6
BRANCH   2  21
ATOM     21  C   UNL     1      -4.824   1.269   0.345  0.00  0.00    +0.205 C 
BRANCH  21  22
ATOM     22  N   UNL     1      -3.575   2.027   0.233  0.00  0.00    -0.274 N 
ATOM     23  C   UNL     1      -2.400   1.376   0.122  0.00  0.00    +0.307 C 
ATOM     24  O   UNL     1      -1.357   2.001   0.120  0.00  0.00    -0.252 OA
ATOM     25  N   UNL     1      -2.381   0.033   0.014  0.00  0.00    -0.267 N 
ATOM     26  H   UNL     1      -3.213  -0.459  -0.066  0.00  0.00    +0.156 HD
BRANCH  25  27
ATOM     27  C   UNL     1      -1.159  -0.654   0.018  0.00  0.00    +0.070 A 
ATOM     28  C   UNL     1      -0.046  -0.088   0.624  0.00  0.00    +0.029 A 
ATOM     29  C   UNL     1       1.157  -0.768   0.631  0.00  0.00    +0.040 A 
ATOM     30  C   UNL     1       1.253  -2.015   0.035  0.00  0.00    +0.126 A 
ATOM     31  C   UNL     1       0.145  -2.582  -0.571  0.00  0.00    +0.078 A 
ATOM     32  C   UNL     1      -1.061  -1.905  -0.581  0.00  0.00    +0.147 A 
ATOM     33  F   UNL     1      -2.143  -2.458  -1.171  0.00  0.00    -0.203 F 
ATOM     34  F   UNL     1       2.430  -2.678   0.045  0.00  0.00    -0.205 F 
ENDBRANCH  25  27
BRANCH  22  35
ATOM     35  C   UNL     1      -3.603   3.491   0.241  0.00  0.00    +0.072 C 
ATOM     36  C   UNL     1      -4.340   3.994  -1.002  0.00  0.00    +0.028 C 
ATOM     37  C   UNL     1      -4.328   3.981   1.497  0.00  0.00    +0.028 C 
ENDBRANCH  22  35
ENDBRANCH  21  22
ENDBRANCH   2  21
TORSDOF 7
