REMARK  Name = ZINC16568933
REMARK  11 active torsions:
REMARK  status: ('A' for Active; 'I' for Inactive)
REMARK    1  A    between atoms: C_1  and  C_2
REMARK    2  A    between atoms: C_5  and  N_8
REMARK    3  A    between atoms: C_9  and  C_22
REMARK    4  A    between atoms: C_12  and  S_13
REMARK    5  A    between atoms: S_13  and  C_14
REMARK    6  A    between atoms: C_14  and  C_15
REMARK    7  A    between atoms: C_22  and  C_24
REMARK    8  A    between atoms: C_22  and  N_25
REMARK    9  A    between atoms: N_28  and  C_29
REMARK   10  A    between atoms: C_30  and  C_36
REMARK   11  A    between atoms: C_34  and  C_35
REMARK                            x       y       z     vdW  Elec       q    Type
REMARK                         _______ _______ _______ _____ _____    ______ ____
ROOT
ATOM      1  N   UNL     1       3.104  -6.799  -1.966  0.00  0.00    -0.273 N 
ATOM      2  C   UNL     1       2.334  -7.601  -1.166  0.00  0.00    +0.159 A 
ATOM      3  N   UNL     1       1.851  -6.851  -0.216  0.00  0.00    -0.131 NA
ATOM      4  N   UNL     1       2.262  -5.641  -0.354  0.00  0.00    -0.122 NA
ATOM      5  C   UNL     1       3.038  -5.551  -1.409  0.00  0.00    +0.196 A 
ENDROOT
BRANCH   1  10
ATOM      6  C   UNL     1       5.981  -8.334  -6.612  0.00  0.00    +0.044 C 
ATOM      7  C   UNL     1       5.217  -7.927  -5.378  0.00  0.00    -0.050 A 
ATOM      8  C   UNL     1       5.899  -7.492  -4.257  0.00  0.00    +0.005 A 
ATOM      9  C   UNL     1       5.202  -7.118  -3.125  0.00  0.00    +0.026 A 
ATOM     10  C   UNL     1       3.815  -7.178  -3.114  0.00  0.00    +0.050 A 
ATOM     11  C   UNL     1       3.133  -7.621  -4.239  0.00  0.00    +0.026 A 
ATOM     12  C   UNL     1       3.836  -7.989  -5.370  0.00  0.00    +0.005 A 
ENDBRANCH   1  10
BRANCH   2  13
ATOM     13  C   UNL     1       2.085  -9.075  -1.354  0.00  0.00    +0.140 C 
ATOM     14  C   UNL     1       2.894  -9.864  -0.323  0.00  0.00    +0.036 C 
BRANCH  13  15
ATOM     15  N   UNL     1       0.659  -9.357  -1.175  0.00  0.00    -0.290 N 
ATOM     16  C   UNL     1       0.107 -10.438  -1.760  0.00  0.00    +0.304 C 
ATOM     17  O   UNL     1       0.793 -11.180  -2.437  0.00  0.00    -0.252 OA
ATOM     18  N   UNL     1      -1.206 -10.697  -1.596  0.00  0.00    -0.269 N 
ATOM     19  H   UNL     1       0.112  -8.765  -0.635  0.00  0.00    +0.151 HD
ATOM     20  H   UNL     1      -1.742 -10.135  -1.015  0.00  0.00    +0.156 HD
BRANCH  18  21
ATOM     21  C   UNL     1      -1.795 -11.777  -2.263  0.00  0.00    +0.041 A 
ATOM     22  C   UNL     1      -1.639 -11.915  -3.636  0.00  0.00    -0.029 A 
ATOM     23  C   UNL     1      -2.218 -12.984  -4.291  0.00  0.00    +0.005 A 
ATOM     24  C   UNL     1      -2.961 -13.911  -3.583  0.00  0.00    +0.001 A 
ATOM     25  C   UNL     1      -3.122 -13.774  -2.216  0.00  0.00    +0.005 A 
ATOM     26  C   UNL     1      -2.541 -12.709  -1.554  0.00  0.00    -0.029 A 
ATOM     27  C   UNL     1      -2.716 -12.560  -0.065  0.00  0.00    +0.045 C 
ATOM     28  C   UNL     1      -0.836 -10.902  -4.410  0.00  0.00    +0.045 C 
ENDBRANCH  18  21
ENDBRANCH  13  15
ENDBRANCH   2  13
BRANCH   5  29
ATOM     29  S   UNL     1       3.837  -4.096  -2.001  0.00  0.00    -0.081 S 
BRANCH  29  30
ATOM     30  C   UNL     1       3.268  -2.901  -0.767  0.00  0.00    +0.112 C 
BRANCH  30  31
ATOM     31  C   UNL     1       3.843  -1.543  -1.079  0.00  0.00    -0.037 A 
ATOM     32  C   UNL     1       3.152  -0.673  -1.903  0.00  0.00    +0.007 A 
ATOM     33  C   UNL     1       3.678   0.572  -2.189  0.00  0.00    +0.038 A 
ATOM     34  C   UNL     1       4.897   0.949  -1.652  0.00  0.00    +0.123 A 
ATOM     35  C   UNL     1       5.588   0.077  -0.828  0.00  0.00    +0.038 A 
ATOM     36  C   UNL     1       5.060  -1.168  -0.542  0.00  0.00    +0.007 A 
ATOM     37  F   UNL     1       5.412   2.166  -1.932  0.00  0.00    -0.205 F 
ENDBRANCH  30  31
ENDBRANCH  29  30
ENDBRANCH   5  29
TORSDOF 7
