REMARK  Name = ZINC41511364
REMARK  12 active torsions:
REMARK  status: ('A' for Active; 'I' for Inactive)
REMARK    1  A    between atoms: C_1  and  C_2
REMARK    2  A    between atoms: C_4  and  O_34
REMARK    3  A    between atoms: C_5  and  C_25
REMARK    4  A    between atoms: C_11  and  C_12
REMARK    5  A    between atoms: C_14  and  O_22
REMARK    6  A    between atoms: C_15  and  O_20
REMARK    7  A    between atoms: C_17  and  O_18
REMARK    8  A    between atoms: O_18  and  C_19
REMARK    9  A    between atoms: O_20  and  C_21
REMARK   10  A    between atoms: O_22  and  C_23
REMARK   11  A    between atoms: C_25  and  N_26
REMARK   12  A    between atoms: C_31  and  C_33
REMARK                            x       y       z     vdW  Elec       q    Type
REMARK                         _______ _______ _______ _____ _____    ______ ____
ROOT
ATOM      1  C   UNL     1      -0.122   1.178  -0.063  0.00  0.00    +0.045 C 
ATOM      2  C   UNL     1       0.252  -0.282  -0.050  0.00  0.00    -0.033 A 
ATOM      3  C   UNL     1       0.394  -0.963  -1.226  0.00  0.00    +0.050 A 
ATOM      4  C   UNL     1       0.739  -2.311  -1.216  0.00  0.00    +0.122 A 
ATOM      5  C   UNL     1       0.943  -2.978  -0.019  0.00  0.00    +0.020 A 
ATOM      6  C   UNL     1       0.803  -2.300   1.186  0.00  0.00    +0.145 A 
ATOM      7  C   UNL     1       0.460  -0.939   1.163  0.00  0.00    +0.071 A 
ATOM      8  C   UNL     1       0.393  -0.504   2.571  0.00  0.00    +0.232 C 
ATOM      9  O   UNL     1       0.121   0.606   2.996  0.00  0.00    -0.283 OA
ATOM     10  C   UNL     1       0.726  -1.706   3.344  0.00  0.00    +0.176 C 
ATOM     11  C   UNL     1       0.791  -1.796   4.699  0.00  0.00    +0.062 C 
ATOM     12  O   UNL     1       0.944  -2.712   2.465  0.00  0.00    -0.451 OA
ENDROOT
BRANCH  11  13
ATOM     13  C   UNL     1       0.986  -3.100   5.338  0.00  0.00    +0.024 A 
ATOM     14  C   UNL     1       0.522  -4.267   4.714  0.00  0.00    +0.061 A 
ATOM     15  C   UNL     1       0.709  -5.490   5.320  0.00  0.00    +0.162 A 
ATOM     16  C   UNL     1       1.357  -5.571   6.554  0.00  0.00    +0.165 A 
ATOM     17  C   UNL     1       1.818  -4.422   7.179  0.00  0.00    +0.095 A 
ATOM     18  C   UNL     1       1.644  -3.188   6.578  0.00  0.00    +0.131 A 
BRANCH  18  19
ATOM     19  O   UNL     1       2.101  -2.064   7.187  0.00  0.00    -0.494 OA
ATOM     20  C   UNL     1       2.759  -2.229   8.444  0.00  0.00    +0.277 C 
ENDBRANCH  18  19
BRANCH  16  21
ATOM     21  O   UNL     1       1.536  -6.780   7.146  0.00  0.00    -0.491 OA
ATOM     22  C   UNL     1       2.207  -6.792   8.408  0.00  0.00    +0.277 C 
ENDBRANCH  16  21
BRANCH  15  23
ATOM     23  O   UNL     1       0.259  -6.623   4.715  0.00  0.00    -0.491 OA
ATOM     24  C   UNL     1      -0.473  -6.462   3.499  0.00  0.00    +0.277 C 
ENDBRANCH  15  23
ENDBRANCH  11  13
BRANCH   4  25
ATOM     25  O   UNL     1       0.877  -2.979  -2.390  0.00  0.00    -0.506 OA
ATOM     26  H   UNL     1       1.773  -2.953  -2.754  0.00  0.00    +0.292 HD
ENDBRANCH   4  25
BRANCH   5  27
ATOM     27  C   UNL     1       1.316  -4.438  -0.024  0.00  0.00    -0.035 C 
BRANCH  27  28
ATOM     28  N   UNL     1       2.768  -4.573   0.149  0.00  0.00    +0.384 N 
ATOM     29  C   UNL     1       3.454  -3.972  -1.002  0.00  0.00    -0.078 C 
ATOM     30  C   UNL     1       4.968  -4.038  -0.789  0.00  0.00    -0.019 C 
ATOM     31  C   UNL     1       5.395  -5.502  -0.647  0.00  0.00    -0.003 C 
ATOM     32  C   UNL     1       4.618  -6.139   0.509  0.00  0.00    -0.016 C 
ATOM     33  C   UNL     1       3.117  -5.996   0.249  0.00  0.00    -0.071 C 
ATOM     34  C   UNL     1       2.337  -6.631   1.401  0.00  0.00    -0.013 C 
ATOM     35  H   UNL     1       3.052  -4.098   0.992  0.00  0.00    -0.081 HD
ENDBRANCH  27  28
ENDBRANCH   5  27
TORSDOF 7
