REMARK  Name = ZINC05204509
REMARK  6 active torsions:
REMARK  status: ('A' for Active; 'I' for Inactive)
REMARK    1  A    between atoms: C_1  and  C_2
REMARK    2  A    between atoms: C_2  and  C_28
REMARK    3  A    between atoms: C_6  and  N_21
REMARK    4  A    between atoms: C_9  and  N_20
REMARK    5  A    between atoms: C_10  and  C_12
REMARK    6  A    between atoms: C_12  and  C_14
REMARK                            x       y       z     vdW  Elec       q    Type
REMARK                         _______ _______ _______ _____ _____    ______ ____
ROOT
ATOM      1  C   UNL     1      -0.553  -0.494   1.296  0.00  0.00    +0.041 C 
ATOM      2  C   UNL     1       0.741   0.212   0.888  0.00  0.00    +0.068 C 
ATOM      3  C   UNL     1       0.452   1.683   0.581  0.00  0.00    +0.070 C 
ATOM      4  C   UNL     1       1.746   2.442   0.463  0.00  0.00    -0.025 A 
ATOM      5  C   UNL     1       2.918   1.944   0.932  0.00  0.00    +0.020 A 
ATOM      6  C   UNL     1       4.096   2.692   0.806  0.00  0.00    +0.105 A 
ATOM      7  C   UNL     1       2.964   4.397  -0.240  0.00  0.00    +0.089 A 
ATOM      8  C   UNL     1       1.726   3.720  -0.159  0.00  0.00    +0.031 A 
ATOM      9  C   UNL     1       0.594   4.430  -0.729  0.00  0.00    +0.052 A 
ATOM     10  C   UNL     1       0.816   5.677  -1.286  0.00  0.00    +0.083 A 
ATOM     11  S   UNL     1       2.566   5.924  -1.056  0.00  0.00    -0.065 S 
ATOM     12  C   UNL     1       2.990   0.591   1.593  0.00  0.00    +0.199 C 
ATOM     13  O   UNL     1       1.684   0.153   1.965  0.00  0.00    -0.369 OA
ATOM     14  C   UNL     1       1.331  -0.466  -0.350  0.00  0.00    +0.041 C 
ATOM     15  N   UNL     1       4.144   3.922   0.224  0.00  0.00    -0.337 N 
ATOM     16  H   UNL     1       5.018   4.455   0.142  0.00  0.00    +0.168 HD
ENDROOT
BRANCH   6  17
ATOM     17  N   UNL     1       5.291   2.179   1.290  0.00  0.00    -0.316 N 
ATOM     18  C   UNL     1       5.662   0.930   0.577  0.00  0.00    +0.106 C 
ATOM     19  C   UNL     1       7.183   0.809   0.843  0.00  0.00    +0.020 C 
ATOM     20  C   UNL     1       7.663   2.278   0.782  0.00  0.00    +0.020 C 
ATOM     21  C   UNL     1       6.405   3.123   1.057  0.00  0.00    +0.106 C 
ENDBRANCH   6  17
BRANCH   9  22
ATOM     22  N   UNL     1      -0.675   3.874  -0.715  0.00  0.00    -0.356 N 
ATOM     23  H   UNL     1      -1.327   4.138  -1.382  0.00  0.00    +0.142 HD
ATOM     24  H   UNL     1      -0.910   3.220  -0.037  0.00  0.00    +0.142 HD
ENDBRANCH   9  22
BRANCH  10  25
ATOM     25  C   UNL     1      -0.118   6.545  -1.892  0.00  0.00    +0.202 C 
ATOM     26  O   UNL     1      -1.265   6.174  -2.073  0.00  0.00    -0.286 OA
BRANCH  25  27
ATOM     27  C   UNL     1       0.294   7.904  -2.307  0.00  0.00    +0.023 A 
ATOM     28  C   UNL     1       1.383   8.523  -1.692  0.00  0.00    +0.012 A 
ATOM     29  C   UNL     1       1.766   9.788  -2.087  0.00  0.00    +0.001 A 
ATOM     30  C   UNL     1       1.067  10.447  -3.083  0.00  0.00    +0.000 A 
ATOM     31  C   UNL     1      -0.017   9.840  -3.692  0.00  0.00    +0.001 A 
ATOM     32  C   UNL     1      -0.407   8.573  -3.310  0.00  0.00    +0.012 A 
ENDBRANCH  25  27
ENDBRANCH  10  25
TORSDOF 4
