REMARK  Name = ZINC40985849
REMARK  17 active torsions:
REMARK  status: ('A' for Active; 'I' for Inactive)
REMARK    1  A    between atoms: C_1  and  C_2
REMARK    2  A    between atoms: C_2  and  N_3
REMARK    3  A    between atoms: N_3  and  C_4
REMARK    4  A    between atoms: N_3  and  C_6
REMARK    5  A    between atoms: C_4  and  C_5
REMARK    6  A    between atoms: C_6  and  C_8
REMARK    7  A    between atoms: C_6  and  C_28
REMARK    8  A    between atoms: C_8  and  N_9
REMARK    9  A    between atoms: C_10  and  C_12
REMARK   10  A    between atoms: C_15  and  S_19
REMARK   11  A    between atoms: S_19  and  C_20
REMARK   12  A    between atoms: C_20  and  C_21
REMARK   13  A    between atoms: C_24  and  C_27
REMARK   14  A    between atoms: C_31  and  C_34
REMARK   15  A    between atoms: C_34  and  C_35
REMARK   16  A    between atoms: C_34  and  C_36
REMARK   17  A    between atoms: C_34  and  C_37
REMARK                            x       y       z     vdW  Elec       q    Type
REMARK                         _______ _______ _______ _____ _____    ______ ____
ROOT
ATOM      1  N   UNL     1      -1.652   0.886  -0.725  0.00  0.00    -0.312 N 
ATOM      2  C   UNL     1      -2.160   1.825  -1.548  0.00  0.00    +0.248 C 
ATOM      3  O   UNL     1      -3.360   1.888  -1.731  0.00  0.00    -0.270 OA
ATOM      4  H   UNL     1      -0.703   0.879  -0.524  0.00  0.00    +0.149 HD
ENDROOT
BRANCH   2   5
ATOM      5  C   UNL     1      -1.260   2.777  -2.225  0.00  0.00    +0.092 A 
ATOM      6  C   UNL     1       0.132   2.651  -2.118  0.00  0.00    +0.129 A 
ATOM      7  N   UNL     1       0.903   3.522  -2.739  0.00  0.00    -0.229 NA
ATOM      8  C   UNL     1       0.378   4.508  -3.458  0.00  0.00    +0.190 A 
ATOM      9  N   UNL     1      -0.934   4.662  -3.585  0.00  0.00    -0.209 NA
ATOM     10  C   UNL     1      -1.774   3.829  -2.998  0.00  0.00    +0.146 A 
ATOM     11 CL   UNL     1      -3.489   4.036  -3.176  0.00  0.00    -0.061 Cl
BRANCH   8  12
ATOM     12  S   UNL     1       1.455   5.644  -4.266  0.00  0.00    -0.081 S 
BRANCH  12  13
ATOM     13  C   UNL     1       0.331   6.791  -5.109  0.00  0.00    +0.112 C 
BRANCH  13  14
ATOM     14  C   UNL     1       1.134   7.829  -5.850  0.00  0.00    -0.037 A 
ATOM     15  C   UNL     1       1.496   9.004  -5.217  0.00  0.00    +0.005 A 
ATOM     16  C   UNL     1       2.233   9.955  -5.897  0.00  0.00    +0.003 A 
ATOM     17  C   UNL     1       2.608   9.732  -7.208  0.00  0.00    -0.050 A 
ATOM     18  C   UNL     1       2.247   8.557  -7.840  0.00  0.00    +0.003 A 
ATOM     19  C   UNL     1       1.514   7.603  -7.160  0.00  0.00    +0.005 A 
ATOM     20  C   UNL     1       3.410  10.771  -7.949  0.00  0.00    +0.044 C 
ENDBRANCH  13  14
ENDBRANCH  12  13
ENDBRANCH   8  12
ENDBRANCH   2   5
BRANCH   1  21
ATOM     21  C   UNL     1      -2.533  -0.125  -0.136  0.00  0.00    +0.094 C 
BRANCH  21  22
ATOM     22  C   UNL     1      -1.736  -0.986   0.847  0.00  0.00    -0.020 C 
BRANCH  22  23
ATOM     23  C   UNL     1      -2.599  -2.122   1.334  0.00  0.00    -0.059 A 
ATOM     24  C   UNL     1      -3.647  -2.576   0.556  0.00  0.00    +0.002 A 
ATOM     25  C   UNL     1      -4.438  -3.618   1.002  0.00  0.00    +0.004 A 
ATOM     26  C   UNL     1      -4.181  -4.205   2.227  0.00  0.00    -0.042 A 
ATOM     27  C   UNL     1      -3.132  -3.751   3.005  0.00  0.00    +0.004 A 
ATOM     28  C   UNL     1      -2.338  -2.712   2.556  0.00  0.00    +0.002 A 
BRANCH  26  29
ATOM     29  C   UNL     1      -5.044  -5.341   2.715  0.00  0.00    -0.013 C 
ATOM     30  C   UNL     1      -4.965  -6.503   1.723  0.00  0.00    +0.015 C 
ATOM     31  C   UNL     1      -4.549  -5.805   4.086  0.00  0.00    +0.015 C 
ATOM     32  C   UNL     1      -6.494  -4.866   2.830  0.00  0.00    +0.015 C 
ENDBRANCH  26  29
ENDBRANCH  22  23
BRANCH  22  33
ATOM     33  N   UNL     1      -0.549  -1.527   0.172  0.00  0.00    +0.385 N 
ATOM     34  H   UNL     1      -0.013  -0.770  -0.224  0.00  0.00    -0.081 HD
BRANCH  33  36
ATOM     35  C   UNL     1       0.831  -1.273   2.179  0.00  0.00    -0.017 C 
ATOM     36  C   UNL     1       0.278  -2.255   1.145  0.00  0.00    -0.081 C 
ENDBRANCH  33  36
BRANCH  33  37
ATOM     37  C   UNL     1      -0.968  -2.443  -0.897  0.00  0.00    -0.081 C 
ATOM     38  C   UNL     1      -1.168  -1.656  -2.193  0.00  0.00    -0.017 C 
ENDBRANCH  33  37
ENDBRANCH  22  33
ENDBRANCH  21  22
ENDBRANCH   1  21
TORSDOF 11
