REMARK  Name = ZINC12006923
REMARK  7 active torsions:
REMARK  status: ('A' for Active; 'I' for Inactive)
REMARK    1  A    between atoms: C_1  and  C_2
REMARK    2  A    between atoms: C_2  and  C_3
REMARK    3  A    between atoms: C_12  and  N_21
REMARK    4  A    between atoms: C_14  and  C_16
REMARK    5  A    between atoms: C_22  and  C_24
REMARK    6  A    between atoms: C_27  and  S_30
REMARK    7  A    between atoms: S_30  and  N_33
REMARK                            x       y       z     vdW  Elec       q    Type
REMARK                         _______ _______ _______ _____ _____    ______ ____
ROOT
ATOM      1  C   UNL     1       2.678  -6.515  -4.684  0.00  0.00    +0.050 A 
ATOM      2  C   UNL     1       2.372  -7.572  -5.490  0.00  0.00    +0.093 A 
ATOM      3  C   UNL     1       2.967  -7.649  -6.764  0.00  0.00    +0.253 A 
ATOM      4  O   UNL     1       2.717  -8.579  -7.512  0.00  0.00    -0.268 OA
ATOM      5  N   UNL     1       3.816  -6.669  -7.142  0.00  0.00    -0.291 N 
ATOM      6  H   UNL     1       4.235  -6.700  -8.017  0.00  0.00    +0.172 HD
ATOM      7  C   UNL     1       4.086  -5.643  -6.292  0.00  0.00    +0.234 A 
ATOM      8  N   UNL     1       3.526  -5.578  -5.104  0.00  0.00    -0.217 NA
ATOM      9  N   UNL     1       4.960  -4.649  -6.686  0.00  0.00    -0.184 N 
ATOM     10  C   UNL     1       5.322  -3.558  -5.946  0.00  0.00    +0.133 A 
ATOM     11  C   UNL     1       6.197  -2.831  -6.685  0.00  0.00    +0.077 A 
ATOM     12  C   UNL     1       6.374  -3.492  -7.919  0.00  0.00    +0.130 A 
ATOM     13  N   UNL     1       5.628  -4.578  -7.915  0.00  0.00    -0.159 NA
ENDROOT
BRANCH  12  14
ATOM     14  C   UNL     1       7.245  -3.044  -9.025  0.00  0.00    +0.155 A 
ATOM     15  C   UNL     1       7.420  -3.683 -10.212  0.00  0.00    +0.051 A 
ATOM     16  C   UNL     1       8.327  -2.906 -10.962  0.00  0.00    +0.042 A 
ATOM     17  C   UNL     1       8.664  -1.848 -10.199  0.00  0.00    +0.196 A 
ATOM     18  O   UNL     1       8.009  -1.934  -9.030  0.00  0.00    -0.461 OA
ENDBRANCH  12  14
BRANCH  10  19
ATOM     19  N   UNL     1       4.878  -3.252  -4.662  0.00  0.00    -0.266 N 
ATOM     20  C   UNL     1       5.322  -2.141  -4.042  0.00  0.00    +0.249 C 
ATOM     21  O   UNL     1       6.111  -1.407  -4.604  0.00  0.00    -0.270 OA
ATOM     22  H   UNL     1       4.248  -3.839  -4.215  0.00  0.00    +0.157 HD
BRANCH  20  23
ATOM     23  C   UNL     1       4.850  -1.816  -2.680  0.00  0.00    +0.037 A 
ATOM     24  C   UNL     1       5.309  -0.666  -2.035  0.00  0.00    +0.015 A 
ATOM     25  C   UNL     1       4.864  -0.369  -0.763  0.00  0.00    +0.029 A 
ATOM     26  C   UNL     1       3.965  -1.207  -0.128  0.00  0.00    +0.106 A 
ATOM     27  C   UNL     1       3.511  -2.351  -0.759  0.00  0.00    +0.029 A 
ATOM     28  C   UNL     1       3.944  -2.658  -2.033  0.00  0.00    +0.015 A 
BRANCH  26  29
ATOM     29  S   UNL     1       3.402  -0.819   1.496  0.00  0.00    +0.061 S 
ATOM     30  O   UNL     1       4.396   0.010   2.083  0.00  0.00    -0.153 OA
ATOM     31  O   UNL     1       2.987  -2.044   2.085  0.00  0.00    -0.153 OA
BRANCH  29  32
ATOM     32  N   UNL     1       2.043   0.113   1.334  0.00  0.00    -0.177 NA
ATOM     33  C   UNL     1       0.714  -0.508   1.262  0.00  0.00    +0.109 C 
ATOM     34  C   UNL     1       0.002  -0.004   0.002  0.00  0.00    +0.017 C 
ATOM     35  C   UNL     1      -0.019   1.526   0.010  0.00  0.00    +0.003 C 
ATOM     36  C   UNL     1       1.417   2.058  -0.000  0.00  0.00    +0.017 C 
ATOM     37  C   UNL     1       2.144   1.577   1.259  0.00  0.00    +0.109 C 
ENDBRANCH  29  32
ENDBRANCH  26  29
ENDBRANCH  20  23
ENDBRANCH  10  19
BRANCH   1  39
ATOM     38  C   UNL     1       3.003  -7.007  -2.275  0.00  0.00    +0.010 C 
ATOM     39  C   UNL     1       2.055  -6.408  -3.316  0.00  0.00    +0.052 C 
ENDBRANCH   1  39
TORSDOF 6
