REMARK  Name = ZINC00674681
REMARK  4 active torsions:
REMARK  status: ('A' for Active; 'I' for Inactive)
REMARK    1  A    between atoms: C_3  and  N_8
REMARK    2  A    between atoms: C_9  and  C_11
REMARK    3  A    between atoms: C_16  and  C_28
REMARK    4  A    between atoms: C_19  and  C_22
REMARK                            x       y       z     vdW  Elec       q    Type
REMARK                         _______ _______ _______ _____ _____    ______ ____
ROOT
ATOM      1  C   UNL     1      -2.115   0.591   0.046  0.00  0.00    +0.163 A 
ATOM      2  C   UNL     1      -1.311   1.752   0.048  0.00  0.00    +0.089 A 
ATOM      3  C   UNL     1      -0.015   1.356   0.050  0.00  0.00    +0.133 A 
ATOM      4  N   UNL     1       0.003  -0.007   0.040  0.00  0.00    -0.237 N 
ATOM      5  N   UNL     1      -1.317  -0.461   0.037  0.00  0.00    -0.163 NA
ATOM      6  C   UNL     1       1.228  -0.814   0.034  0.00  0.00    +0.215 C 
ATOM      7  C   UNL     1       2.396   0.102   0.427  0.00  0.00    +0.066 C 
ATOM      8  C   UNL     1       2.300   1.402  -0.378  0.00  0.00    +0.140 C 
ATOM      9  N   UNL     1       1.120   2.165   0.055  0.00  0.00    -0.318 N 
ATOM     10 BR   UNL     1      -1.931   3.538   0.059  0.00  0.00    -0.044 Br
ATOM     11  H   UNL     1       0.985   2.981  -0.524  0.00  0.00    +0.148 HD
ENDROOT
BRANCH   8  12
ATOM     12  C   UNL     1       2.178   1.076  -1.844  0.00  0.00    +0.127 A 
ATOM     13  C   UNL     1       3.176   1.117  -2.744  0.00  0.00    +0.048 A 
ATOM     14  C   UNL     1       2.622   0.736  -3.988  0.00  0.00    +0.057 A 
ATOM     15  C   UNL     1       1.315   0.494  -3.775  0.00  0.00    +0.170 A 
ATOM     16  O   UNL     1       1.052   0.702  -2.474  0.00  0.00    -0.451 OA
ATOM     17 BR   UNL     1       0.062  -0.047  -5.084  0.00  0.00    -0.008 Br
ENDBRANCH   8  12
BRANCH   1  19
ATOM     18  N   UNL     1      -4.240  -0.622   0.038  0.00  0.00    -0.278 N 
ATOM     19  C   UNL     1      -3.591   0.560   0.046  0.00  0.00    +0.270 C 
ATOM     20  O   UNL     1      -4.222   1.599   0.055  0.00  0.00    -0.268 OA
ATOM     21  H   UNL     1      -3.740  -1.449  -0.051  0.00  0.00    +0.155 HD
BRANCH  18  24
ATOM     22  C   UNL     1      -7.696   0.310   0.868  0.00  0.00    +0.022 A 
ATOM     23  C   UNL     1      -6.315   0.388   0.774  0.00  0.00    +0.028 A 
ATOM     24  C   UNL     1      -5.634  -0.656   0.156  0.00  0.00    +0.071 A 
ATOM     25  C   UNL     1      -6.359  -1.730  -0.347  0.00  0.00    +0.150 A 
ATOM     26  N   UNL     1      -7.672  -1.767  -0.232  0.00  0.00    -0.242 NA
ATOM     27  C   UNL     1      -8.346  -0.793   0.349  0.00  0.00    +0.112 A 
ATOM     28 CL   UNL     1      -5.527  -3.038  -1.129  0.00  0.00    -0.060 Cl
ENDBRANCH  18  24
ENDBRANCH   1  19
BRANCH   6  29
ATOM     29  C   UNL     1       1.102  -1.955   1.046  0.00  0.00    +0.412 C 
ATOM     30  F   UNL     1       0.013  -2.764   0.703  0.00  0.00    -0.168 F 
ATOM     31  F   UNL     1       2.273  -2.720   1.035  0.00  0.00    -0.168 F 
ATOM     32  F   UNL     1       0.904  -1.424   2.325  0.00  0.00    -0.168 F 
ENDBRANCH   6  29
TORSDOF 4
