REMARK  Name = ZINC39266481
REMARK  13 active torsions:
REMARK  status: ('A' for Active; 'I' for Inactive)
REMARK    1  A    between atoms: C_1  and  C_2
REMARK    2  A    between atoms: C_2  and  O_3
REMARK    3  A    between atoms: O_3  and  C_4
REMARK    4  A    between atoms: C_4  and  C_6
REMARK    5  A    between atoms: C_6  and  C_8
REMARK    6  A    between atoms: C_6  and  N_16
REMARK    7  A    between atoms: C_8  and  C_9
REMARK    8  A    between atoms: C_17  and  C_19
REMARK    9  A    between atoms: C_19  and  N_20
REMARK   10  A    between atoms: N_20  and  C_21
REMARK   11  A    between atoms: N_20  and  S_27
REMARK   12  A    between atoms: S_27  and  C_30
REMARK   13  A    between atoms: C_33  and  C_36
REMARK                            x       y       z     vdW  Elec       q    Type
REMARK                         _______ _______ _______ _____ _____    ______ ____
ROOT
ATOM      1  N   UNL     1       3.109  -2.893  -0.238  0.00  0.00    -0.301 N 
ATOM      2  C   UNL     1       3.535  -4.167  -0.123  0.00  0.00    +0.233 C 
ATOM      3  O   UNL     1       4.451  -4.565  -0.811  0.00  0.00    -0.274 OA
ATOM      4  H   UNL     1       2.376  -2.575   0.312  0.00  0.00    +0.150 HD
ENDROOT
BRANCH   1   5
ATOM      5  C   UNL     1       3.753  -1.990  -1.194  0.00  0.00    +0.186 C 
BRANCH   5   6
ATOM      6  C   UNL     1       3.129  -2.169  -2.554  0.00  0.00    +0.328 C 
ATOM      7  O   UNL     1       2.237  -2.970  -2.709  0.00  0.00    -0.249 OA
BRANCH   6   8
ATOM      8  O   UNL     1       3.563  -1.439  -3.594  0.00  0.00    -0.464 OA
BRANCH   8  10
ATOM      9  C   UNL     1       3.550  -0.746  -5.909  0.00  0.00    +0.048 C 
ATOM     10  C   UNL     1       2.926  -1.661  -4.853  0.00  0.00    +0.229 C 
ENDBRANCH   8  10
ENDBRANCH   6   8
ENDBRANCH   5   6
BRANCH   5  11
ATOM     11  C   UNL     1       3.565  -0.542  -0.734  0.00  0.00    +0.069 C 
BRANCH  11  12
ATOM     12  C   UNL     1       4.295  -0.331   0.568  0.00  0.00    -0.045 A 
ATOM     13  C   UNL     1       3.647  -0.559   1.768  0.00  0.00    +0.005 A 
ATOM     14  C   UNL     1       4.315  -0.365   2.962  0.00  0.00    +0.020 A 
ATOM     15  C   UNL     1       5.632   0.057   2.957  0.00  0.00    +0.041 A 
ATOM     16  C   UNL     1       6.280   0.285   1.756  0.00  0.00    +0.020 A 
ATOM     17  C   UNL     1       5.613   0.085   0.562  0.00  0.00    +0.005 A 
ATOM     18 CL   UNL     1       6.472   0.301   4.456  0.00  0.00    -0.084 Cl
ENDBRANCH  11  12
ENDBRANCH   5  11
ENDBRANCH   1   5
BRANCH   2  19
ATOM     19  C   UNL     1       2.872  -5.097   0.861  0.00  0.00    +0.227 C 
BRANCH  19  20
ATOM     20  N   UNL     1       3.512  -6.413   0.795  0.00  0.00    -0.194 N 
BRANCH  20  21
ATOM     21  C   UNL     1       4.667  -6.666   1.539  0.00  0.00    +0.052 A 
ATOM     22  C   UNL     1       5.878  -6.878   0.892  0.00  0.00    +0.025 A 
ATOM     23  C   UNL     1       7.019  -7.127   1.631  0.00  0.00    +0.002 A 
ATOM     24  C   UNL     1       6.955  -7.166   3.011  0.00  0.00    +0.000 A 
ATOM     25  C   UNL     1       5.751  -6.956   3.658  0.00  0.00    +0.002 A 
ATOM     26  C   UNL     1       4.608  -6.700   2.926  0.00  0.00    +0.025 A 
ENDBRANCH  20  21
BRANCH  20  27
ATOM     27  S   UNL     1       2.865  -7.601  -0.160  0.00  0.00    +0.075 S 
ATOM     28  O   UNL     1       3.418  -8.831   0.291  0.00  0.00    -0.150 OA
ATOM     29  O   UNL     1       1.465  -7.368  -0.207  0.00  0.00    -0.150 OA
BRANCH  27  30
ATOM     30  C   UNL     1       3.474  -7.345  -1.794  0.00  0.00    +0.109 A 
ATOM     31  C   UNL     1       2.853  -6.434  -2.628  0.00  0.00    +0.029 A 
ATOM     32  C   UNL     1       3.330  -6.233  -3.909  0.00  0.00    +0.005 A 
ATOM     33  C   UNL     1       4.429  -6.942  -4.357  0.00  0.00    -0.050 A 
ATOM     34  C   UNL     1       5.050  -7.853  -3.523  0.00  0.00    +0.005 A 
ATOM     35  C   UNL     1       4.575  -8.051  -2.240  0.00  0.00    +0.029 A 
ATOM     36  C   UNL     1       4.948  -6.723  -5.755  0.00  0.00    +0.044 C 
ENDBRANCH  27  30
ENDBRANCH  20  27
ENDBRANCH  19  20
ENDBRANCH   2  19
TORSDOF 11
