REMARK  Name = ZINC39748467
REMARK  10 active torsions:
REMARK  status: ('A' for Active; 'I' for Inactive)
REMARK    1  A    between atoms: C_1  and  C_2
REMARK    2  A    between atoms: C_2  and  C_4
REMARK    3  A    between atoms: C_2  and  N_25
REMARK    4  A    between atoms: C_7  and  S_12
REMARK    5  A    between atoms: N_8  and  C_9
REMARK    6  A    between atoms: C_9  and  C_10
REMARK    7  A    between atoms: S_12  and  C_13
REMARK    8  A    between atoms: C_13  and  C_14
REMARK    9  A    between atoms: C_20  and  C_22
REMARK   10  A    between atoms: C_26  and  C_28
REMARK                            x       y       z     vdW  Elec       q    Type
REMARK                         _______ _______ _______ _____ _____    ______ ____
ROOT
ATOM      1  C   UNL     1      -1.412  -0.526   0.013  0.00  0.00    +0.155 A 
ATOM      2  N   UNL     1      -2.238  -0.538  -0.995  0.00  0.00    -0.132 NA
ATOM      3  N   UNL     1      -3.360  -1.053  -0.639  0.00  0.00    -0.122 NA
ATOM      4  C   UNL     1      -3.310  -1.401   0.626  0.00  0.00    +0.192 A 
ATOM      5  N   UNL     1      -2.063  -1.079   1.080  0.00  0.00    -0.301 N 
ENDROOT
BRANCH   1   7
ATOM      6  C   UNL     1      -0.019   1.526   0.010  0.00  0.00    +0.036 C 
ATOM      7  C   UNL     1       0.002  -0.004   0.002  0.00  0.00    +0.138 C 
BRANCH   7   8
ATOM      8  N   UNL     1       0.688  -0.476  -1.203  0.00  0.00    -0.302 N 
ATOM      9  C   UNL     1       2.031  -0.587  -1.215  0.00  0.00    +0.245 C 
ATOM     10  O   UNL     1       2.674  -0.295  -0.225  0.00  0.00    -0.270 OA
ATOM     11  H   UNL     1       0.175  -0.710  -1.993  0.00  0.00    +0.150 HD
BRANCH   9  12
ATOM     12  C   UNL     1       2.723  -1.064  -2.431  0.00  0.00    +0.037 A 
ATOM     13  C   UNL     1       1.988  -1.395  -3.571  0.00  0.00    +0.014 A 
ATOM     14  C   UNL     1       2.639  -1.838  -4.703  0.00  0.00    +0.021 A 
ATOM     15  C   UNL     1       4.019  -1.956  -4.710  0.00  0.00    +0.041 A 
ATOM     16  C   UNL     1       4.753  -1.629  -3.582  0.00  0.00    +0.021 A 
ATOM     17  C   UNL     1       4.114  -1.179  -2.446  0.00  0.00    +0.014 A 
ATOM     18 CL   UNL     1       4.832  -2.517  -6.138  0.00  0.00    -0.084 Cl
ENDBRANCH   9  12
ENDBRANCH   7   8
ENDBRANCH   1   7
BRANCH   5  19
ATOM     19  C   UNL     1      -1.534  -1.283   2.431  0.00  0.00    +0.152 C 
BRANCH  19  20
ATOM     20  C   UNL     1      -1.825  -0.067   3.273  0.00  0.00    -0.013 C 
ATOM     21  C   UNL     1      -2.467  -0.195   4.407  0.00  0.00    +0.005 C 
ENDBRANCH  19  20
ENDBRANCH   5  19
BRANCH   4  22
ATOM     22  S   UNL     1      -4.605  -2.146   1.560  0.00  0.00    -0.077 S 
BRANCH  22  23
ATOM     23  C   UNL     1      -5.967  -2.304   0.372  0.00  0.00    +0.173 C 
BRANCH  23  24
ATOM     24  C   UNL     1      -7.155  -2.937   1.052  0.00  0.00    +0.229 C 
ATOM     25  O   UNL     1      -7.088  -3.250   2.221  0.00  0.00    -0.275 OA
ATOM     26  N   UNL     1      -8.290  -3.154   0.359  0.00  0.00    -0.263 N 
ATOM     27  C   UNL     1      -9.386  -3.738   0.986  0.00  0.00    +0.188 A 
ATOM     28  N   UNL     1      -9.513  -4.139   2.235  0.00  0.00    -0.126 NA
ATOM     29  N   UNL     1     -10.582  -4.657   2.664  0.00  0.00    -0.144 NA
ATOM     30  C   UNL     1     -11.601  -4.801   1.841  0.00  0.00    +0.107 A 
ATOM     31  S   UNL     1     -10.902  -4.111   0.348  0.00  0.00    -0.035 S 
ATOM     32  H   UNL     1      -8.343  -2.904  -0.577  0.00  0.00    +0.157 HD
BRANCH  30  33
ATOM     33  C   UNL     1     -12.971  -5.380   2.089  0.00  0.00    +0.047 C 
ATOM     34  C   UNL     1     -13.349  -5.705   3.535  0.00  0.00    +0.011 C 
ATOM     35  C   UNL     1     -13.050  -6.836   2.550  0.00  0.00    +0.011 C 
ENDBRANCH  30  33
ENDBRANCH  23  24
ENDBRANCH  22  23
ENDBRANCH   4  22
TORSDOF 9
