REMARK  Name = ZINC45191713
REMARK  11 active torsions:
REMARK  status: ('A' for Active; 'I' for Inactive)
REMARK    1  A    between atoms: C_1  and  O_2
REMARK    2  A    between atoms: O_2  and  C_3
REMARK    3  A    between atoms: C_4  and  C_13
REMARK    4  A    between atoms: N_16  and  C_19
REMARK    5  A    between atoms: C_19  and  C_20
REMARK    6  A    between atoms: C_20  and  C_21
REMARK    7  A    between atoms: C_21  and  C_22
REMARK    8  A    between atoms: C_22  and  N_23
REMARK    9  A    between atoms: C_24  and  C_26
REMARK   10  A    between atoms: C_29  and  C_32
REMARK   11  A    between atoms: C_35  and  C_38
REMARK                            x       y       z     vdW  Elec       q    Type
REMARK                         _______ _______ _______ _____ _____    ______ ____
ROOT
ATOM      1  C   UNL     1      -1.629   0.449   7.556  0.00  0.00    -0.017 C 
ENDROOT
BRANCH   1   2
ATOM      2  C   UNL     1      -0.615  -0.355   6.739  0.00  0.00    -0.079 C 
BRANCH   2   6
ATOM      3  C   UNL     1      -1.123  -0.609   2.516  0.00  0.00    +0.019 C 
ATOM      4  C   UNL     1      -0.869  -1.886   3.321  0.00  0.00    -0.011 C 
ATOM      5  C   UNL     1      -0.253  -1.516   4.673  0.00  0.00    -0.078 C 
ATOM      6  N   UNL     1      -1.175  -0.644   5.412  0.00  0.00    +0.380 N 
ATOM      7  C   UNL     1      -1.367   0.613   4.679  0.00  0.00    -0.078 C 
ATOM      8  C   UNL     1      -2.025   0.325   3.328  0.00  0.00    -0.011 C 
ATOM      9  H   UNL     1      -2.064  -1.110   5.518  0.00  0.00    -0.082 HD
BRANCH   3  11
ATOM     10  C   UNL     1      -1.200  -0.637   0.010  0.00  0.00    +0.127 A 
ATOM     11  C   UNL     1      -1.800  -0.959   1.216  0.00  0.00    -0.002 A 
ATOM     12  C   UNL     1      -3.022  -1.604   1.222  0.00  0.00    +0.008 A 
ATOM     13  C   UNL     1      -3.635  -1.925   0.028  0.00  0.00    +0.004 A 
ATOM     14  C   UNL     1      -3.036  -1.605  -1.184  0.00  0.00    -0.041 A 
ATOM     15  C   UNL     1      -1.824  -0.954  -1.195  0.00  0.00    -0.002 A 
ATOM     16  C   UNL     1      -1.129  -0.557  -2.471  0.00  0.00    +0.039 C 
ATOM     17  C   UNL     1      -1.698  -1.332  -3.657  0.00  0.00    +0.005 C 
ATOM     18  C   UNL     1      -3.225  -1.194  -3.637  0.00  0.00    +0.005 C 
ATOM     19  C   UNL     1      -3.760  -1.994  -2.447  0.00  0.00    +0.035 C 
BRANCH  10  21
ATOM     20  C   UNL     1      -0.017   1.425   0.010  0.00  0.00    +0.277 C 
ATOM     21  O   UNL     1       0.002  -0.004   0.002  0.00  0.00    -0.495 OA
ENDBRANCH  10  21
ENDBRANCH   3  11
ENDBRANCH   2   6
ENDBRANCH   1   2
BRANCH   1  22
ATOM     22  C   UNL     1      -1.045   0.750   8.938  0.00  0.00    +0.017 C 
BRANCH  22  23
ATOM     23  C   UNL     1      -2.059   1.554   9.755  0.00  0.00    +0.104 C 
BRANCH  23  24
ATOM     24  N   UNL     1      -1.500   1.842  11.078  0.00  0.00    -0.311 N 
ATOM     25  C   UNL     1      -2.221   2.544  11.975  0.00  0.00    +0.246 C 
ATOM     26  O   UNL     1      -3.334   2.938  11.686  0.00  0.00    -0.270 OA
ATOM     27  H   UNL     1      -0.612   1.528  11.309  0.00  0.00    +0.149 HD
BRANCH  25  28
ATOM     28  C   UNL     1      -1.658   2.835  13.310  0.00  0.00    +0.055 A 
ATOM     29  C   UNL     1      -2.401   3.559  14.252  0.00  0.00    +0.016 A 
ATOM     30  C   UNL     1      -1.834   3.806  15.486  0.00  0.00    +0.029 A 
ATOM     31  C   UNL     1      -0.549   3.330  15.753  0.00  0.00    +0.071 A 
ATOM     32  N   UNL     1       0.128   2.647  14.837  0.00  0.00    -0.254 NA
ATOM     33  C   UNL     1      -0.380   2.387  13.652  0.00  0.00    +0.124 A 
BRANCH  31  34
ATOM     34  C   UNL     1       0.068   3.590  17.075  0.00  0.00    +0.000 A 
ATOM     35  C   UNL     1      -0.638   4.302  18.045  0.00  0.00    +0.011 A 
ATOM     36  C   UNL     1      -0.066   4.545  19.274  0.00  0.00    +0.019 A 
ATOM     37  C   UNL     1       1.222   4.077  19.549  0.00  0.00    +0.052 A 
ATOM     38  C   UNL     1       1.927   3.364  18.576  0.00  0.00    +0.019 A 
ATOM     39  C   UNL     1       1.352   3.118  17.350  0.00  0.00    +0.011 A 
BRANCH  37  40
ATOM     40  C   UNL     1       1.818   4.329  20.826  0.00  0.00    +0.099 C 
ATOM     41  N   UNL     1       2.291   4.528  21.840  0.00  0.00    -0.191 NA
ENDBRANCH  37  40
ENDBRANCH  31  34
ENDBRANCH  25  28
ENDBRANCH  23  24
ENDBRANCH  22  23
ENDBRANCH   1  22
TORSDOF 10
