REMARK  Name = ZINC15647712
REMARK  7 active torsions:
REMARK  status: ('A' for Active; 'I' for Inactive)
REMARK    1  A    between atoms: C_1  and  C_2
REMARK    2  A    between atoms: C_2  and  C_4
REMARK    3  A    between atoms: C_2  and  O_21
REMARK    4  A    between atoms: C_15  and  C_17
REMARK    5  A    between atoms: O_21  and  C_22
REMARK    6  A    between atoms: C_22  and  C_24
REMARK    7  A    between atoms: C_28  and  O_30
REMARK                            x       y       z     vdW  Elec       q    Type
REMARK                         _______ _______ _______ _____ _____    ______ ____
ROOT
ATOM      1  C   UNL     1       1.146   3.339   0.720  0.00  0.00    +0.261 C 
ATOM      2  O   UNL     1       0.081   3.675   1.192  0.00  0.00    -0.271 OA
ATOM      3  N   UNL     1       2.220   4.144   0.837  0.00  0.00    -0.258 N 
ATOM      4  C   UNL     1       3.524   3.757   0.278  0.00  0.00    +0.209 C 
ATOM      5  C   UNL     1       4.608   4.111   1.257  0.00  0.00    +0.235 C 
ATOM      6  O   UNL     1       5.630   3.458   1.281  0.00  0.00    -0.274 OA
ATOM      7  N   UNL     1       4.457   5.141   2.111  0.00  0.00    -0.283 N 
ATOM      8  C   UNL     1       3.269   5.879   2.138  0.00  0.00    +0.056 A 
ATOM      9  C   UNL     1       2.132   5.377   1.502  0.00  0.00    +0.058 A 
ATOM     10  C   UNL     1       0.947   6.089   1.531  0.00  0.00    +0.026 A 
ATOM     11  C   UNL     1       0.892   7.304   2.191  0.00  0.00    +0.014 A 
ATOM     12  C   UNL     1       2.017   7.805   2.819  0.00  0.00    +0.057 A 
ATOM     13  C   UNL     1       3.205   7.097   2.795  0.00  0.00    +0.037 A 
ATOM     14  H   UNL     1       5.180   5.375   2.714  0.00  0.00    +0.155 HD
ENDROOT
BRANCH  12  15
ATOM     15  C   UNL     1       1.949   9.131   3.533  0.00  0.00    +0.417 C 
ATOM     16  F   UNL     1       0.657   9.654   3.422  0.00  0.00    -0.166 F 
ATOM     17  F   UNL     1       2.265   8.949   4.884  0.00  0.00    -0.166 F 
ATOM     18  F   UNL     1       2.864  10.019   2.956  0.00  0.00    -0.166 F 
ENDBRANCH  12  15
BRANCH   1  20
ATOM     19  C   UNL     1       1.706   2.265  -1.445  0.00  0.00    +0.062 C 
ATOM     20  C   UNL     1       1.268   2.020   0.001  0.00  0.00    +0.259 C 
BRANCH  20  21
ATOM     21  O   UNL     1      -0.016   1.343   0.009  0.00  0.00    -0.449 OA
BRANCH  21  22
ATOM     22  C   UNL     1       0.002  -0.004   0.002  0.00  0.00    +0.340 C 
ATOM     23  O   UNL     1       1.062  -0.597  -0.011  0.00  0.00    -0.245 OA
BRANCH  22  24
ATOM     24  C   UNL     1      -1.267  -0.760   0.010  0.00  0.00    +0.062 A 
ATOM     25  C   UNL     1      -2.487  -0.081   0.025  0.00  0.00    +0.015 A 
ATOM     26  C   UNL     1      -3.671  -0.790   0.033  0.00  0.00    +0.004 A 
ATOM     27  C   UNL     1      -3.653  -2.173   0.025  0.00  0.00    +0.045 A 
ATOM     28  C   UNL     1      -2.445  -2.857   0.010  0.00  0.00    +0.118 A 
ATOM     29  C   UNL     1      -1.251  -2.155  -0.003  0.00  0.00    +0.060 A 
BRANCH  28  30
ATOM     30  O   UNL     1      -2.434  -4.216   0.002  0.00  0.00    -0.507 OA
ATOM     31  H   UNL     1      -2.439  -4.604  -0.883  0.00  0.00    +0.292 HD
ENDBRANCH  28  30
ENDBRANCH  22  24
ENDBRANCH  21  22
ENDBRANCH  20  21
ENDBRANCH   1  20
TORSDOF 6
