REMARK  Name = ZINC14269677
REMARK  10 active torsions:
REMARK  status: ('A' for Active; 'I' for Inactive)
REMARK    1  A    between atoms: C_1  and  C_2
REMARK    2  A    between atoms: C_5  and  N_25
REMARK    3  A    between atoms: C_6  and  N_9
REMARK    4  A    between atoms: C_7  and  C_8
REMARK    5  A    between atoms: N_9  and  C_10
REMARK    6  A    between atoms: C_10  and  N_12
REMARK    7  A    between atoms: C_13  and  C_15
REMARK    8  A    between atoms: C_19  and  C_23
REMARK    9  A    between atoms: C_20  and  O_21
REMARK   10  A    between atoms: O_21  and  C_22
REMARK                            x       y       z     vdW  Elec       q    Type
REMARK                         _______ _______ _______ _____ _____    ______ ____
ROOT
ATOM      1  C   UNL     1       4.933   4.473   0.637  0.00  0.00    +0.141 C 
ATOM      2  S   UNL     1       5.160   5.786   1.712  0.00  0.00    -0.018 S 
ENDROOT
BRANCH   1   3
ATOM      3  N   UNL     1       3.758   3.811   0.620  0.00  0.00    -0.263 N 
ATOM      4  C   UNL     1       2.763   4.183   1.449  0.00  0.00    +0.253 C 
ATOM      5  O   UNL     1       2.924   5.116   2.212  0.00  0.00    -0.270 OA
ATOM      6  H   UNL     1       3.630   3.067   0.011  0.00  0.00    +0.157 HD
BRANCH   4   7
ATOM      7  C   UNL     1       1.479   3.459   1.431  0.00  0.00    +0.080 A 
ATOM      8  C   UNL     1       1.289   2.387   0.555  0.00  0.00    +0.032 A 
ATOM      9  C   UNL     1       0.086   1.714   0.543  0.00  0.00    +0.019 A 
ATOM     10  C   UNL     1      -0.940   2.101   1.392  0.00  0.00    +0.022 A 
ATOM     11  C   UNL     1      -0.763   3.155   2.266  0.00  0.00    -0.007 A 
ATOM     12  C   UNL     1       0.441   3.843   2.291  0.00  0.00    +0.135 A 
ATOM     13  C   UNL     1      -1.882   3.562   3.189  0.00  0.00    +0.047 C 
ATOM     14 BR   UNL     1      -0.170   0.264  -0.643  0.00  0.00    -0.050 Br
BRANCH  12  15
ATOM     15  O   UNL     1       0.614   4.882   3.146  0.00  0.00    -0.494 OA
ATOM     16  C   UNL     1       0.257   6.181   2.669  0.00  0.00    +0.277 C 
ENDBRANCH  12  15
ENDBRANCH   4   7
ENDBRANCH   1   3
BRANCH   1  17
ATOM     17  N   UNL     1       5.928   4.101  -0.192  0.00  0.00    -0.295 N 
ATOM     18  H   UNL     1       5.816   3.328  -0.767  0.00  0.00    +0.154 HD
BRANCH  17  24
ATOM     19  C   UNL     1       8.247   8.399  -0.754  0.00  0.00    +0.044 C 
ATOM     20  C   UNL     1       8.274   6.915  -0.494  0.00  0.00    -0.046 A 
ATOM     21  C   UNL     1       9.482   6.272  -0.286  0.00  0.00    +0.006 A 
ATOM     22  C   UNL     1       9.511   4.911  -0.046  0.00  0.00    +0.035 A 
ATOM     23  C   UNL     1       8.334   4.189  -0.009  0.00  0.00    +0.148 A 
ATOM     24  C   UNL     1       7.121   4.830  -0.224  0.00  0.00    +0.066 A 
ATOM     25  C   UNL     1       7.095   6.198  -0.464  0.00  0.00    -0.024 A 
ATOM     26  C   UNL     1       5.780   6.899  -0.690  0.00  0.00    +0.046 C 
BRANCH  23  27
ATOM     27  N   UNL     1       8.366   2.732   0.253  0.00  0.00    +0.058 N 
ATOM     28  O   UNL     1       9.434   2.152   0.335  0.00  0.00    -0.126 OA
ATOM     29  O   UNL     1       7.325   2.114   0.385  0.00  0.00    -0.126 OA
ENDBRANCH  23  27
ENDBRANCH  17  24
ENDBRANCH   1  17
TORSDOF 6
