REMARK  Name = ZINC00864954
REMARK  11 active torsions:
REMARK  status: ('A' for Active; 'I' for Inactive)
REMARK    1  A    between atoms: C_1  and  C_2
REMARK    2  A    between atoms: C_2  and  C_39
REMARK    3  A    between atoms: C_6  and  C_24
REMARK    4  A    between atoms: C_12  and  C_16
REMARK    5  A    between atoms: C_16  and  C_18
REMARK    6  A    between atoms: C_26  and  O_34
REMARK    7  A    between atoms: C_27  and  O_32
REMARK    8  A    between atoms: C_28  and  O_30
REMARK    9  A    between atoms: O_30  and  C_31
REMARK   10  A    between atoms: O_32  and  C_33
REMARK   11  A    between atoms: O_34  and  C_35
REMARK                            x       y       z     vdW  Elec       q    Type
REMARK                         _______ _______ _______ _____ _____    ______ ____
ROOT
ATOM      1  C   UNL     1      -0.392   4.535  -2.913  0.00  0.00    +0.011 C 
ATOM      2  C   UNL     1      -0.017   6.001  -3.137  0.00  0.00    -0.023 C 
ATOM      3  C   UNL     1      -1.178   6.902  -2.721  0.00  0.00    +0.058 C 
ATOM      4  C   UNL     1      -1.496   6.693  -1.250  0.00  0.00    +0.017 C 
ATOM      5  C   UNL     1      -0.525   6.370  -0.380  0.00  0.00    +0.036 C 
ATOM      6  C   UNL     1      -0.704   6.141   1.102  0.00  0.00    +0.136 C 
ATOM      7  N   UNL     1      -1.992   6.548   1.620  0.00  0.00    -0.331 N 
ATOM      8  C   UNL     1      -3.158   5.916   1.223  0.00  0.00    +0.049 A 
ATOM      9  C   UNL     1      -3.895   5.136   2.106  0.00  0.00    +0.025 A 
ATOM     10  C   UNL     1      -4.987   4.432   1.645  0.00  0.00    +0.013 A 
ATOM     11  C   UNL     1      -5.352   4.502   0.296  0.00  0.00    +0.024 A 
ATOM     12  C   UNL     1      -4.620   5.307  -0.587  0.00  0.00    +0.036 A 
ATOM     13  C   UNL     1      -3.541   6.020  -0.110  0.00  0.00    +0.053 A 
ATOM     14  N   UNL     1      -2.800   6.874  -0.919  0.00  0.00    -0.316 N 
ATOM     15  C   UNL     1       0.808   6.210  -0.828  0.00  0.00    +0.163 C 
ATOM     16  O   UNL     1       1.671   5.937  -0.016  0.00  0.00    -0.292 OA
ATOM     17  C   UNL     1       1.193   6.367  -2.268  0.00  0.00    +0.086 C 
ATOM     18  C   UNL     1       0.315   6.231  -4.613  0.00  0.00    +0.011 C 
ATOM     19  H   UNL     1      -2.041   7.275   2.260  0.00  0.00    +0.147 HD
ATOM     20  H   UNL     1      -3.249   7.658  -1.274  0.00  0.00    +0.152 HD
ENDROOT
BRANCH   6  21
ATOM     21  C   UNL     1      -0.517   4.673   1.384  0.00  0.00    -0.016 A 
ATOM     22  C   UNL     1       0.439   4.262   2.293  0.00  0.00    +0.055 A 
ATOM     23  C   UNL     1       0.613   2.911   2.556  0.00  0.00    +0.165 A 
ATOM     24  C   UNL     1      -0.175   1.971   1.904  0.00  0.00    +0.204 A 
ATOM     25  C   UNL     1      -1.132   2.388   0.986  0.00  0.00    +0.165 A 
ATOM     26  C   UNL     1      -1.304   3.741   0.733  0.00  0.00    +0.055 A 
BRANCH  25  27
ATOM     27  O   UNL     1      -1.902   1.472   0.341  0.00  0.00    -0.491 OA
ATOM     28  C   UNL     1      -2.892   1.974  -0.559  0.00  0.00    +0.277 C 
ENDBRANCH  25  27
BRANCH  24  29
ATOM     29  O   UNL     1      -0.007   0.645   2.159  0.00  0.00    -0.488 OA
ATOM     30  C   UNL     1      -0.787   0.084   3.217  0.00  0.00    +0.277 C 
ENDBRANCH  24  29
BRANCH  23  31
ATOM     31  O   UNL     1       1.554   2.508   3.451  0.00  0.00    -0.491 OA
ATOM     32  C   UNL     1       2.328   3.529   4.084  0.00  0.00    +0.277 C 
ENDBRANCH  23  31
ENDBRANCH   6  21
BRANCH  11  33
ATOM     33  C   UNL     1      -6.508   3.729  -0.196  0.00  0.00    +0.193 C 
ATOM     34  O   UNL     1      -7.186   4.164  -1.107  0.00  0.00    -0.287 OA
BRANCH  33  35
ATOM     35  C   UNL     1      -6.841   2.427   0.418  0.00  0.00    +0.022 A 
ATOM     36  C   UNL     1      -5.976   1.849   1.350  0.00  0.00    +0.012 A 
ATOM     37  C   UNL     1      -6.296   0.635   1.922  0.00  0.00    +0.001 A 
ATOM     38  C   UNL     1      -7.466  -0.014   1.568  0.00  0.00    +0.000 A 
ATOM     39  C   UNL     1      -8.325   0.552   0.642  0.00  0.00    +0.001 A 
ATOM     40  C   UNL     1      -8.020   1.767   0.065  0.00  0.00    +0.012 A 
ENDBRANCH  33  35
ENDBRANCH  11  33
TORSDOF 6
