REMARK  Name = ZINC14531275
REMARK  10 active torsions:
REMARK  status: ('A' for Active; 'I' for Inactive)
REMARK    1  A    between atoms: C_1  and  C_2
REMARK    2  A    between atoms: C_2  and  C_4
REMARK    3  A    between atoms: C_2  and  N_64
REMARK    4  A    between atoms: C_4  and  C_5
REMARK    5  A    between atoms: C_5  and  C_6
REMARK    6  A    between atoms: C_5  and  C_7
REMARK    7  A    between atoms: C_5  and  O_8
REMARK    8  A    between atoms: N_16  and  C_21
REMARK    9  A    between atoms: N_19  and  C_20
REMARK   10  A    between atoms: C_21  and  C_22
REMARK                            x       y       z     vdW  Elec       q    Type
REMARK                         _______ _______ _______ _____ _____    ______ ____
ROOT
ATOM      1  C   UNL     1       1.821   0.851   0.625  0.00  0.00    -0.076 C 
ATOM      2  C   UNL     1       0.810   1.946   0.272  0.00  0.00    +0.017 C 
ATOM      3  C   UNL     1      -0.048   1.481  -0.900  0.00  0.00    +0.112 C 
ATOM      4  C   UNL     1       0.830   1.109  -2.090  0.00  0.00    +0.017 C 
ATOM      5  C   UNL     1       1.841   0.042  -1.660  0.00  0.00    -0.076 C 
ATOM      6  C   UNL     1      -1.039   2.553  -1.288  0.00  0.00    +0.247 C 
ATOM      7  O   UNL     1      -0.793   3.673  -1.683  0.00  0.00    -0.273 OA
ATOM      8  N   UNL     1      -2.257   2.002  -1.103  0.00  0.00    -0.220 N 
ATOM      9  C   UNL     1      -2.165   0.741  -0.661  0.00  0.00    +0.312 C 
ATOM     10  O   UNL     1      -3.126   0.036  -0.425  0.00  0.00    -0.252 OA
ATOM     11  N   UNL     1      -0.888   0.344  -0.504  0.00  0.00    -0.274 N 
ATOM     12  C   UNL     1      -0.427  -0.966  -0.036  0.00  0.00    +0.134 C 
ATOM     13  N   UNL     1       2.666   0.581  -0.558  0.00  0.00    +0.382 N 
ATOM     14  H   UNL     1       3.099   1.460  -0.866  0.00  0.00    -0.081 HD
ENDROOT
BRANCH  13  16
ATOM     15  C   UNL     1       4.501   0.147   1.003  0.00  0.00    -0.013 C 
ATOM     16  C   UNL     1       3.731  -0.381  -0.208  0.00  0.00    -0.069 C 
BRANCH  16  17
ATOM     17  C   UNL     1       4.683  -0.518  -1.399  0.00  0.00    +0.018 C 
BRANCH  17  18
ATOM     18  C   UNL     1       5.397   0.814  -1.635  0.00  0.00    +0.059 C 
ATOM     19  C   UNL     1       6.279   0.705  -2.881  0.00  0.00    +0.041 C 
ATOM     20  C   UNL     1       4.359   1.920  -1.841  0.00  0.00    +0.041 C 
BRANCH  18  21
ATOM     21  O   UNL     1       6.209   1.128  -0.502  0.00  0.00    -0.389 OA
ATOM     22  H   UNL     1       6.938   0.509  -0.358  0.00  0.00    +0.210 HD
ENDBRANCH  18  21
ENDBRANCH  17  18
ENDBRANCH  16  17
ENDBRANCH  13  16
BRANCH   8  23
ATOM     23  C   UNL     1      -3.522   2.694  -1.358  0.00  0.00    +0.153 C 
BRANCH  23  24
ATOM     24  C   UNL     1      -3.945   2.457  -2.785  0.00  0.00    -0.029 A 
ATOM     25  C   UNL     1      -4.749   1.360  -3.090  0.00  0.00    +0.006 A 
ATOM     26  C   UNL     1      -5.148   1.117  -4.368  0.00  0.00    +0.009 A 
ATOM     27  C   UNL     1      -4.746   1.984  -5.399  0.00  0.00    -0.018 A 
ATOM     28  C   UNL     1      -5.138   1.766  -6.730  0.00  0.00    +0.008 A 
ATOM     29  C   UNL     1      -4.730   2.627  -7.702  0.00  0.00    +0.001 A 
ATOM     30  C   UNL     1      -3.926   3.724  -7.398  0.00  0.00    +0.001 A 
ATOM     31  C   UNL     1      -3.527   3.967  -6.119  0.00  0.00    +0.008 A 
ATOM     32  C   UNL     1      -3.929   3.100  -5.089  0.00  0.00    -0.018 A 
ATOM     33  C   UNL     1      -3.541   3.321  -3.756  0.00  0.00    +0.013 A 
ENDBRANCH  23  24
ENDBRANCH   8  23
TORSDOF 6
