REMARK  Name = ZINC13445639
REMARK  8 active torsions:
REMARK  status: ('A' for Active; 'I' for Inactive)
REMARK    1  A    between atoms: C_1  and  C_2
REMARK    2  A    between atoms: C_2  and  C_4
REMARK    3  A    between atoms: C_2  and  N_6
REMARK    4  A    between atoms: C_16  and  S_17
REMARK    5  A    between atoms: S_17  and  C_18
REMARK    6  A    between atoms: C_18  and  C_19
REMARK    7  A    between atoms: N_21  and  C_22
REMARK    8  A    between atoms: C_27  and  N_28
REMARK                            x       y       z     vdW  Elec       q    Type
REMARK                         _______ _______ _______ _____ _____    ______ ____
ROOT
ATOM      1  C   UNL     1      -5.220  -1.994   0.061  0.00  0.00    +0.228 C 
ATOM      2  O   UNL     1      -5.430  -3.188   0.042  0.00  0.00    -0.275 OA
ATOM      3  N   UNL     1      -6.252  -1.128   0.073  0.00  0.00    -0.283 N 
ATOM      4  H   UNL     1      -6.085  -0.175   0.153  0.00  0.00    +0.155 HD
ENDROOT
BRANCH   3   5
ATOM      5  C   UNL     1      -7.566  -1.602  -0.030  0.00  0.00    +0.066 A 
ATOM      6  C   UNL     1      -7.916  -2.810   0.559  0.00  0.00    +0.052 A 
ATOM      7  C   UNL     1      -9.215  -3.275   0.455  0.00  0.00    +0.078 A 
ATOM      8  C   UNL     1     -10.169  -2.532  -0.241  0.00  0.00    +0.145 A 
ATOM      9  C   UNL     1      -9.816  -1.329  -0.826  0.00  0.00    +0.082 A 
ATOM     10  C   UNL     1      -8.519  -0.862  -0.717  0.00  0.00    +0.151 A 
ATOM     11  O   UNL     1     -11.442  -3.002  -0.337  0.00  0.00    -0.481 OA
ATOM     12  C   UNL     1     -11.601  -4.422  -0.394  0.00  0.00    +0.325 C 
ATOM     13  C   UNL     1     -10.752  -5.070   0.670  0.00  0.00    +0.255 C 
ATOM     14  O   UNL     1     -11.110  -6.107   1.187  0.00  0.00    -0.272 OA
ATOM     15  N   UNL     1      -9.590  -4.491   1.044  0.00  0.00    -0.280 N 
ATOM     16  H   UNL     1      -9.023  -4.911   1.710  0.00  0.00    +0.155 HD
BRANCH  10  17
ATOM     17  N   UNL     1      -8.144   0.428  -1.339  0.00  0.00    +0.058 N 
ATOM     18  O   UNL     1      -8.998   1.126  -1.855  0.00  0.00    -0.126 OA
ATOM     19  O   UNL     1      -6.982   0.791  -1.334  0.00  0.00    -0.126 OA
ENDBRANCH  10  17
ENDBRANCH   3   5
BRANCH   1  20
ATOM     20  C   UNL     1      -3.803  -1.479   0.071  0.00  0.00    +0.173 C 
BRANCH  20  21
ATOM     21  S   UNL     1      -2.653  -2.876   0.051  0.00  0.00    -0.078 S 
BRANCH  21  32
ATOM     22  N   UNL     1       0.038  -2.734   0.057  0.00  0.00    -0.273 N 
ATOM     23  C   UNL     1       1.239  -2.110   0.069  0.00  0.00    +0.263 A 
ATOM     24  O   UNL     1       2.280  -2.741   0.062  0.00  0.00    -0.267 OA
ATOM     25  C   UNL     1       1.240  -0.641   0.092  0.00  0.00    +0.065 A 
ATOM     26  C   UNL     1       2.424   0.095   0.105  0.00  0.00    +0.015 A 
ATOM     27  C   UNL     1       2.367   1.462   0.126  0.00  0.00    +0.001 A 
ATOM     28  C   UNL     1       1.145   2.122   0.136  0.00  0.00    +0.002 A 
ATOM     29  C   UNL     1      -0.030   1.425   0.123  0.00  0.00    +0.028 A 
ATOM     30  C   UNL     1      -0.006   0.027   0.100  0.00  0.00    +0.079 A 
ATOM     31  N   UNL     1      -1.142  -0.699   0.087  0.00  0.00    -0.223 NA
ATOM     32  C   UNL     1      -1.119  -2.009   0.067  0.00  0.00    +0.173 A 
BRANCH  22  34
ATOM     33  C   UNL     1       0.682  -4.717  -1.222  0.00  0.00    +0.043 C 
ATOM     34  C   UNL     1      -0.020  -4.198   0.035  0.00  0.00    +0.202 C 
BRANCH  34  35
ATOM     35  C   UNL     1       0.668  -4.747   1.258  0.00  0.00    +0.378 C 
ATOM     36  O   UNL     1       1.157  -3.993   2.066  0.00  0.00    -0.244 OA
ATOM     37  O   UNL     1       0.737  -6.074   1.450  0.00  0.00    -0.244 OA
ENDBRANCH  34  35
ENDBRANCH  22  34
ENDBRANCH  21  32
ENDBRANCH  20  21
ENDBRANCH   1  20
TORSDOF 7
