REMARK  Name = ZINC13779081
REMARK  9 active torsions:
REMARK  status: ('A' for Active; 'I' for Inactive)
REMARK    1  A    between atoms: C_1  and  C_2
REMARK    2  A    between atoms: C_2  and  N_3
REMARK    3  A    between atoms: N_3  and  C_4
REMARK    4  A    between atoms: N_3  and  C_6
REMARK    5  A    between atoms: C_4  and  C_5
REMARK    6  A    between atoms: C_9  and  C_12
REMARK    7  A    between atoms: C_20  and  O_32
REMARK    8  A    between atoms: N_23  and  C_24
REMARK    9  A    between atoms: C_24  and  C_25
REMARK                            x       y       z     vdW  Elec       q    Type
REMARK                         _______ _______ _______ _____ _____    ______ ____
ROOT
ATOM      1  C   UNL     1      -1.407  -5.942   0.561  0.00  0.00    -0.031 C 
ATOM      2  C   UNL     1      -2.783  -6.492   0.183  0.00  0.00    +0.011 C 
ATOM      3  C   UNL     1      -3.253  -5.876  -1.136  0.00  0.00    +0.005 C 
ATOM      4  C   UNL     1      -4.625  -6.450  -1.498  0.00  0.00    +0.000 C 
ATOM      5  C   UNL     1      -5.629  -6.125  -0.391  0.00  0.00    +0.003 C 
ATOM      6  C   UNL     1      -5.151  -6.728   0.932  0.00  0.00    +0.035 C 
ATOM      7  C   UNL     1      -3.785  -6.139   1.286  0.00  0.00    +0.066 C 
ATOM      8  C   UNL     1      -3.290  -6.722   2.612  0.00  0.00    +0.016 C 
ATOM      9  C   UNL     1      -1.892  -6.172   2.906  0.00  0.00    -0.075 C 
ATOM     10  N   UNL     1      -0.972  -6.547   1.826  0.00  0.00    +0.387 N 
ATOM     11  H   UNL     1      -0.959  -7.551   1.730  0.00  0.00    -0.080 HD
ENDROOT
BRANCH   1  15
ATOM     12  C   UNL     1      -1.640  -1.701   1.013  0.00  0.00    +0.013 A 
ATOM     13  C   UNL     1      -1.219  -2.487   2.070  0.00  0.00    +0.022 A 
ATOM     14  C   UNL     1      -1.144  -3.859   1.923  0.00  0.00    +0.004 A 
ATOM     15  C   UNL     1      -1.490  -4.446   0.721  0.00  0.00    -0.060 A 
ATOM     16  C   UNL     1      -1.912  -3.660  -0.336  0.00  0.00    +0.004 A 
ATOM     17  C   UNL     1      -1.991  -2.288  -0.188  0.00  0.00    +0.022 A 
BRANCH  12  18
ATOM     18  N   UNL     1      -1.716  -0.313   1.161  0.00  0.00    -0.394 NA
ATOM     19  H   UNL     1      -2.043   0.100   0.300  0.00  0.00    +0.126 HD
BRANCH  18  21
ATOM     20  C   UNL     1      -2.829   1.531   2.327  0.00  0.00    +0.022 C 
ATOM     21  C   UNL     1      -2.651   0.013   2.247  0.00  0.00    +0.081 C 
ENDBRANCH  18  21
BRANCH  18  22
ATOM     22  C   UNL     1      -0.385   0.219   1.484  0.00  0.00    +0.081 C 
ATOM     23  C   UNL     1       0.557  -0.011   0.301  0.00  0.00    +0.022 C 
ENDBRANCH  18  22
ENDBRANCH  12  18
ENDBRANCH   1  15
BRANCH   7  24
ATOM     24  O   UNL     1      -3.891  -4.719   1.399  0.00  0.00    -0.388 OA
ATOM     25  H   UNL     1      -4.510  -4.423   2.080  0.00  0.00    +0.210 HD
ENDBRANCH   7  24
BRANCH  10  26
ATOM     26  C   UNL     1       0.381  -6.074   2.152  0.00  0.00    -0.039 C 
BRANCH  26  27
ATOM     27  C   UNL     1       0.818  -6.669   3.465  0.00  0.00    -0.029 A 
ATOM     28  C   UNL     1       0.735  -5.921   4.625  0.00  0.00    +0.004 A 
ATOM     29  C   UNL     1       1.136  -6.467   5.830  0.00  0.00    +0.000 A 
ATOM     30  C   UNL     1       1.621  -7.761   5.877  0.00  0.00    +0.003 A 
ATOM     31  C   UNL     1       1.705  -8.510   4.719  0.00  0.00    +0.038 A 
ATOM     32  C   UNL     1       1.298  -7.966   3.512  0.00  0.00    +0.125 A 
ATOM     33  F   UNL     1       1.375  -8.700   2.380  0.00  0.00    -0.205 F 
ENDBRANCH  26  27
ENDBRANCH  10  26
TORSDOF 7
