REMARK  Name = ZINC38517447
REMARK  14 active torsions:
REMARK  status: ('A' for Active; 'I' for Inactive)
REMARK    1  A    between atoms: C_1  and  N_2
REMARK    2  A    between atoms: C_10  and  C_12
REMARK    3  A    between atoms: C_12  and  C_14
REMARK    4  A    between atoms: C_12  and  N_31
REMARK    5  A    between atoms: C_14  and  N_15
REMARK    6  A    between atoms: N_18  and  C_19
REMARK    7  A    between atoms: C_21  and  O_29
REMARK    8  A    between atoms: C_22  and  O_27
REMARK    9  A    between atoms: C_23  and  O_25
REMARK   10  A    between atoms: O_25  and  C_26
REMARK   11  A    between atoms: O_27  and  C_28
REMARK   12  A    between atoms: O_29  and  C_30
REMARK   13  A    between atoms: N_31  and  C_32
REMARK   14  A    between atoms: N_31  and  C_33
REMARK                            x       y       z     vdW  Elec       q    Type
REMARK                         _______ _______ _______ _____ _____    ______ ____
ROOT
ATOM      1  N   UNL     1       4.107  -3.935  -2.624  0.00  0.00    -0.300 N 
ATOM      2  C   UNL     1       4.043  -4.199  -3.945  0.00  0.00    +0.304 C 
ATOM      3  O   UNL     1       4.885  -3.746  -4.697  0.00  0.00    -0.253 OA
ATOM      4  N   UNL     1       3.046  -4.965  -4.431  0.00  0.00    -0.269 N 
ATOM      5  H   UNL     1       3.436  -4.297  -2.025  0.00  0.00    +0.150 HD
ATOM      6  H   UNL     1       2.329  -5.255  -3.847  0.00  0.00    +0.156 HD
ENDROOT
BRANCH   4   7
ATOM      7  C   UNL     1       3.047  -5.340  -5.781  0.00  0.00    +0.042 A 
ATOM      8  C   UNL     1       4.247  -5.594  -6.430  0.00  0.00    +0.073 A 
ATOM      9  C   UNL     1       4.249  -5.966  -7.765  0.00  0.00    +0.167 A 
ATOM     10  C   UNL     1       3.048  -6.085  -8.454  0.00  0.00    +0.204 A 
ATOM     11  C   UNL     1       1.846  -5.831  -7.804  0.00  0.00    +0.167 A 
ATOM     12  C   UNL     1       1.846  -5.464  -6.467  0.00  0.00    +0.073 A 
BRANCH  11  13
ATOM     13  O   UNL     1       0.670  -5.947  -8.477  0.00  0.00    -0.491 OA
ATOM     14  C   UNL     1      -0.526  -5.670  -7.746  0.00  0.00    +0.277 C 
ENDBRANCH  11  13
BRANCH  10  15
ATOM     15  O   UNL     1       3.048  -6.450  -9.766  0.00  0.00    -0.488 OA
ATOM     16  C   UNL     1       2.974  -7.849 -10.050  0.00  0.00    +0.277 C 
ENDBRANCH  10  15
BRANCH   9  17
ATOM     17  O   UNL     1       5.425  -6.215  -8.401  0.00  0.00    -0.491 OA
ATOM     18  C   UNL     1       6.621  -6.072  -7.632  0.00  0.00    +0.277 C 
ENDBRANCH   9  17
ENDBRANCH   4   7
BRANCH   1  19
ATOM     19  C   UNL     1       5.191  -3.103  -2.095  0.00  0.00    +0.095 C 
BRANCH  19  20
ATOM     20  C   UNL     1       4.962  -2.856  -0.603  0.00  0.00    -0.021 C 
BRANCH  20  30
ATOM     21  C   UNL     1       0.107   1.428   0.206  0.00  0.00    +0.129 C 
ATOM     22  N   UNL     1       0.096  -0.035   0.127  0.00  0.00    -0.333 N 
ATOM     23  C   UNL     1      -1.168  -0.778   0.227  0.00  0.00    +0.105 C 
ATOM     24  C   UNL     1      -0.939  -1.966   1.170  0.00  0.00    +0.024 C 
ATOM     25  C   UNL     1       0.105  -2.895   0.550  0.00  0.00    +0.038 C 
ATOM     26  C   UNL     1       1.331  -2.118   0.151  0.00  0.00    -0.026 A 
ATOM     27  C   UNL     1       1.287  -0.746  -0.052  0.00  0.00    +0.033 A 
ATOM     28  C   UNL     1       2.435  -0.060  -0.430  0.00  0.00    +0.023 A 
ATOM     29  C   UNL     1       3.622  -0.743  -0.609  0.00  0.00    +0.004 A 
ATOM     30  C   UNL     1       3.666  -2.111  -0.410  0.00  0.00    -0.059 A 
ATOM     31  C   UNL     1       2.526  -2.796  -0.023  0.00  0.00    +0.007 A 
ENDBRANCH  20  30
BRANCH  20  32
ATOM     32  N   UNL     1       6.071  -2.059  -0.063  0.00  0.00    +0.382 N 
ATOM     33  C   UNL     1       5.907  -1.914   1.390  0.00  0.00    -0.096 C 
ATOM     34  C   UNL     1       7.344  -2.735  -0.347  0.00  0.00    -0.096 C 
ATOM     35  H   UNL     1       6.071  -1.147  -0.494  0.00  0.00    -0.082 HD
ENDBRANCH  20  32
ENDBRANCH  19  20
ENDBRANCH   1  19
TORSDOF 8
