REMARK  Name = ZINC19879197
REMARK  2 active torsions:
REMARK  status: ('A' for Active; 'I' for Inactive)
REMARK    1  A    between atoms: C_11  and  N_13
REMARK    2  A    between atoms: N_13  and  C_14
REMARK                            x       y       z     vdW  Elec       q    Type
REMARK                         _______ _______ _______ _____ _____    ______ ____
ROOT
ATOM      1  C   UNL     1       4.568   4.477  -2.875  0.00  0.00    +0.015 A 
ATOM      2  C   UNL     1       4.831   3.675  -1.778  0.00  0.00    +0.005 A 
ATOM      3  C   UNL     1       3.828   2.906  -1.234  0.00  0.00    -0.031 A 
ATOM      4  C   UNL     1       2.547   2.922  -1.771  0.00  0.00    +0.036 A 
ATOM      5  C   UNL     1       2.289   3.732  -2.875  0.00  0.00    +0.038 A 
ATOM      6  C   UNL     1       3.297   4.503  -3.420  0.00  0.00    +0.020 A 
ATOM      7 BR   UNL     1       2.937   5.599  -4.918  0.00  0.00    -0.050 Br
ATOM      8  N   UNL     1       1.711   2.067  -1.052  0.00  0.00    -0.286 N 
ATOM      9  C   UNL     1       2.354   1.458  -0.042  0.00  0.00    +0.208 C 
ATOM     10  O   UNL     1       1.876   0.666   0.743  0.00  0.00    -0.277 OA
ATOM     11  C   UNL     1       3.787   1.947  -0.066  0.00  0.00    +0.049 C 
ATOM     12  H   UNL     1       0.773   1.928  -1.258  0.00  0.00    +0.155 HD
ENDROOT
BRANCH  11  13
ATOM     13  N   UNL     1       4.114   2.644   1.185  0.00  0.00    +0.391 N 
ATOM     14  H   UNL     1       3.516   3.449   1.287  0.00  0.00    -0.084 HD
ATOM     15  H   UNL     1       3.975   2.019   1.964  0.00  0.00    -0.084 HD
BRANCH  13  16
ATOM     16  C   UNL     1       5.518   3.078   1.150  0.00  0.00    -0.070 C 
ATOM     17  C   UNL     1       6.430   1.851   1.093  0.00  0.00    -0.016 C 
ATOM     18  C   UNL     1       7.891   2.303   1.057  0.00  0.00    -0.002 C 
ATOM     19  C   UNL     1       8.205   3.114   2.316  0.00  0.00    -0.000 C 
ATOM     20  C   UNL     1       7.293   4.340   2.373  0.00  0.00    -0.002 C 
ATOM     21  C   UNL     1       5.832   3.889   2.409  0.00  0.00    -0.016 C 
ENDBRANCH  13  16
ENDBRANCH  11  13
TORSDOF 2
