REMARK  Name = ZINC04230869
REMARK  13 active torsions:
REMARK  status: ('A' for Active; 'I' for Inactive)
REMARK    1  A    between atoms: C_1  and  C_2
REMARK    2  A    between atoms: C_2  and  C_3
REMARK    3  A    between atoms: C_2  and  C_4
REMARK    4  A    between atoms: C_4  and  C_6
REMARK    5  A    between atoms: C_4  and  N_53
REMARK    6  A    between atoms: N_10  and  C_11
REMARK    7  A    between atoms: C_11  and  C_12
REMARK    8  A    between atoms: C_11  and  C_13
REMARK    9  A    between atoms: C_11  and  C_14
REMARK   10  A    between atoms: C_15  and  C_16
REMARK   11  A    between atoms: C_15  and  N_53
REMARK   12  A    between atoms: C_21  and  C_22
REMARK   13  A    between atoms: C_21  and  N_53
REMARK                            x       y       z     vdW  Elec       q    Type
REMARK                         _______ _______ _______ _____ _____    ______ ____
ROOT
ATOM      1  N   UNL     1      -0.168   0.261   1.232  0.00  0.00    +0.394 N 
ATOM      2  H   UNL     1      -0.557   0.046   2.158  0.00  0.00    -0.080 HD
ENDROOT
BRANCH   1   3
ATOM      3  C   UNL     1      -0.923   1.387   0.643  0.00  0.00    +0.006 C 
BRANCH   3   4
ATOM      4  C   UNL     1      -2.391   1.047   0.651  0.00  0.00    +0.139 A 
ATOM      5  N   UNL     1      -2.961   0.029   0.055  0.00  0.00    -0.115 NA
ATOM      6  N   UNL     1      -4.225   0.083   0.297  0.00  0.00    -0.023 NA
ATOM      7  N   UNL     1      -4.476   1.110   1.032  0.00  0.00    -0.043 NA
ATOM      8  N   UNL     1      -3.370   1.727   1.276  0.00  0.00    -0.226 N 
BRANCH   8   9
ATOM      9  C   UNL     1      -3.210   2.942   2.079  0.00  0.00    +0.059 C 
ATOM     10  C   UNL     1      -2.617   4.053   1.211  0.00  0.00    +0.036 C 
ATOM     11  C   UNL     1      -4.574   3.384   2.613  0.00  0.00    +0.036 C 
ATOM     12  C   UNL     1      -2.271   2.656   3.254  0.00  0.00    +0.036 C 
ENDBRANCH   8   9
ENDBRANCH   3   4
BRANCH   3  14
ATOM     13  C   UNL     1      -0.827   3.078  -1.193  0.00  0.00    +0.006 C 
ATOM     14  C   UNL     1      -0.467   1.646  -0.794  0.00  0.00    -0.024 C 
ATOM     15  C   UNL     1      -1.165   0.663  -1.736  0.00  0.00    +0.006 C 
ENDBRANCH   3  14
ENDBRANCH   1   3
BRANCH   1  16
ATOM     16  C   UNL     1       1.255   0.630   1.382  0.00  0.00    -0.002 C 
BRANCH  16  17
ATOM     17  C   UNL     1       1.397   1.526   2.585  0.00  0.00    +0.089 A 
ATOM     18  C   UNL     1       1.683   1.124   3.836  0.00  0.00    +0.042 A 
ATOM     19  C   UNL     1       1.720   2.285   4.641  0.00  0.00    +0.041 A 
ATOM     20  C   UNL     1       1.454   3.328   3.834  0.00  0.00    +0.195 A 
ATOM     21  O   UNL     1       1.265   2.863   2.588  0.00  0.00    -0.470 OA
ENDBRANCH  16  17
ENDBRANCH   1  16
BRANCH   1  22
ATOM     22  C   UNL     1      -0.292  -0.934   0.371  0.00  0.00    -0.034 C 
BRANCH  22  23
ATOM     23  C   UNL     1       0.226  -2.131   1.125  0.00  0.00    -0.027 A 
ATOM     24  C   UNL     1      -0.449  -2.995   1.923  0.00  0.00    +0.009 A 
ATOM     25  C   UNL     1       0.240  -4.035   2.519  0.00  0.00    +0.008 A 
ATOM     26  C   UNL     1       1.570  -4.160   2.289  0.00  0.00    +0.045 A 
ATOM     27  S   UNL     1       1.886  -2.785   1.195  0.00  0.00    -0.103 S 
ENDBRANCH  22  23
ENDBRANCH   1  22
TORSDOF 8
