REMARK  Name = ZINC20532205
REMARK  11 active torsions:
REMARK  status: ('A' for Active; 'I' for Inactive)
REMARK    1  A    between atoms: C_1  and  C_2
REMARK    2  A    between atoms: C_2  and  N_3
REMARK    3  A    between atoms: C_9  and  N_27
REMARK    4  A    between atoms: C_10  and  C_11
REMARK    5  A    between atoms: C_11  and  C_13
REMARK    6  A    between atoms: C_11  and  N_18
REMARK    7  A    between atoms: C_13  and  C_14
REMARK    8  A    between atoms: C_14  and  C_15
REMARK    9  A    between atoms: C_15  and  C_16
REMARK   10  A    between atoms: C_15  and  C_17
REMARK   11  A    between atoms: N_21  and  C_22
REMARK                            x       y       z     vdW  Elec       q    Type
REMARK                         _______ _______ _______ _____ _____    ______ ____
ROOT
ATOM      1  N   UNL     1      -2.825  -3.290  -0.163  0.00  0.00    +0.383 N 
ATOM      2  C   UNL     1      -2.203  -2.544   0.940  0.00  0.00    -0.074 C 
ATOM      3  C   UNL     1      -1.449  -1.327   0.397  0.00  0.00    +0.018 C 
ATOM      4  C   UNL     1      -2.399  -0.537  -0.499  0.00  0.00    -0.034 A 
ATOM      5  C   UNL     1      -3.529  -1.135  -0.969  0.00  0.00    -0.021 A 
ATOM      6  S   UNL     1      -4.313   0.131  -1.927  0.00  0.00    -0.077 S 
ATOM      7  C   UNL     1      -3.103   1.418  -1.662  0.00  0.00    +0.090 A 
ATOM      8  C   UNL     1      -2.196   0.791  -0.866  0.00  0.00    +0.007 A 
ATOM      9  C   UNL     1      -3.969  -2.540  -0.717  0.00  0.00    -0.035 C 
ATOM     10  H   UNL     1      -2.074  -3.413  -0.957  0.00  0.00    -0.081 HD
ENDROOT
BRANCH   7  11
ATOM     11  N   UNL     1      -3.092   2.731  -2.147  0.00  0.00    -0.317 N 
ATOM     12  C   UNL     1      -2.210   3.707  -1.781  0.00  0.00    +0.092 A 
ATOM     13  C   UNL     1      -2.518   4.830  -2.463  0.00  0.00    +0.019 A 
ATOM     14  C   UNL     1      -3.634   4.541  -3.272  0.00  0.00    +0.019 A 
ATOM     15  C   UNL     1      -3.964   3.250  -3.060  0.00  0.00    +0.092 A 
ENDBRANCH   7  11
BRANCH   1  17
ATOM     16  C   UNL     1      -4.198  -4.510   1.456  0.00  0.00    -0.017 C 
ATOM     17  C   UNL     1      -3.235  -4.631   0.273  0.00  0.00    -0.082 C 
ENDBRANCH   1  17
BRANCH   8  18
ATOM     18  C   UNL     1      -0.972   1.529  -0.388  0.00  0.00    +0.108 C 
BRANCH  18  19
ATOM     19  N   UNL     1       0.103   0.570  -0.121  0.00  0.00    -0.292 N 
ATOM     20  C   UNL     1       0.952   0.217  -1.107  0.00  0.00    +0.300 C 
ATOM     21  O   UNL     1       0.829   0.699  -2.216  0.00  0.00    -0.253 OA
ATOM     22  N   UNL     1       1.938  -0.669  -0.863  0.00  0.00    -0.297 N 
ATOM     23  H   UNL     1       0.217   0.137   0.884  0.00  0.00    +0.151 HD
ATOM     24  H   UNL     1       2.049  -1.105   0.141  0.00  0.00    +0.151 HD
BRANCH  22  25
ATOM     25  C   UNL     1       2.860  -1.052  -1.934  0.00  0.00    +0.074 C 
ATOM     26  C   UNL     1       2.283  -2.242  -2.728  0.00  0.00    +0.022 C 
ATOM     27  C   UNL     1       3.522  -3.108  -3.068  0.00  0.00    +0.002 C 
ATOM     28  C   UNL     1       4.382  -2.993  -1.786  0.00  0.00    +0.002 C 
ATOM     29  C   UNL     1       4.195  -1.530  -1.335  0.00  0.00    +0.022 C 
ENDBRANCH  22  25
ENDBRANCH  18  19
BRANCH  18  30
ATOM     30  C   UNL     1      -1.305   2.292   0.896  0.00  0.00    +0.027 C 
BRANCH  30  31
ATOM     31  C   UNL     1      -0.101   3.139   1.313  0.00  0.00    +0.005 C 
BRANCH  31  32
ATOM     32  C   UNL     1      -0.434   3.901   2.596  0.00  0.00    -0.017 C 
ATOM     33  C   UNL     1       0.808   4.650   3.082  0.00  0.00    +0.007 C 
ATOM     34  C   UNL     1      -1.557   4.903   2.317  0.00  0.00    +0.007 C 
ENDBRANCH  31  32
ENDBRANCH  30  31
ENDBRANCH  18  30
ENDBRANCH   8  18
TORSDOF 8
