REMARK  Name = ZINC38805893
REMARK  12 active torsions:
REMARK  status: ('A' for Active; 'I' for Inactive)
REMARK    1  A    between atoms: C_1  and  C_2
REMARK    2  A    between atoms: C_2  and  O_3
REMARK    3  A    between atoms: O_3  and  C_4
REMARK    4  A    between atoms: C_4  and  C_6
REMARK    5  A    between atoms: C_10  and  N_11
REMARK    6  A    between atoms: C_12  and  C_14
REMARK    7  A    between atoms: C_14  and  N_15
REMARK    8  A    between atoms: N_22  and  C_27
REMARK    9  A    between atoms: N_25  and  C_26
REMARK   10  A    between atoms: C_32  and  O_34
REMARK   11  A    between atoms: O_34  and  C_35
REMARK   12  A    between atoms: C_35  and  C_36
REMARK                            x       y       z     vdW  Elec       q    Type
REMARK                         _______ _______ _______ _____ _____    ______ ____
ROOT
ATOM      1  C   UNL     1      -2.842  -2.416   0.016  0.00  0.00    +0.091 A 
ATOM      2  C   UNL     1      -3.548  -2.713  -1.220  0.00  0.00    -0.018 A 
ATOM      3  C   UNL     1      -4.776  -3.244  -1.038  0.00  0.00    +0.013 A 
ATOM      4  S   UNL     1      -4.974  -3.335   0.717  0.00  0.00    -0.076 S 
ATOM      5  C   UNL     1      -3.495  -2.708   1.205  0.00  0.00    +0.086 A 
ATOM      6  C   UNL     1      -5.739  -3.660  -2.108  0.00  0.00    +0.153 C 
ATOM      7  N   UNL     1      -5.202  -3.165  -3.391  0.00  0.00    -0.262 N 
ATOM      8  C   UNL     1      -3.757  -3.307  -3.625  0.00  0.00    +0.116 C 
ATOM      9  C   UNL     1      -2.987  -2.459  -2.611  0.00  0.00    +0.056 C 
ATOM     10  C   UNL     1      -6.007  -2.602  -4.314  0.00  0.00    +0.403 C 
ATOM     11  O   UNL     1      -5.542  -2.202  -5.363  0.00  0.00    -0.226 OA
ENDROOT
BRANCH   5  12
ATOM     12  N   UNL     1      -3.032  -2.523   2.498  0.00  0.00    -0.278 N 
ATOM     13  C   UNL     1      -3.807  -2.866   3.546  0.00  0.00    +0.237 C 
ATOM     14  O   UNL     1      -4.909  -3.337   3.358  0.00  0.00    -0.273 OA
ATOM     15  H   UNL     1      -2.151  -2.147   2.649  0.00  0.00    +0.155 HD
BRANCH  13  16
ATOM     16  C   UNL     1      -3.304  -2.665   4.953  0.00  0.00    +0.219 C 
BRANCH  16  17
ATOM     17  N   UNL     1      -4.324  -3.112   5.905  0.00  0.00    -0.316 N 
ATOM     18  C   UNL     1      -5.254  -2.343   6.503  0.00  0.00    +0.202 A 
ATOM     19  N   UNL     1      -5.997  -3.080   7.290  0.00  0.00    -0.218 NA
ATOM     20  C   UNL     1      -5.587  -4.350   7.240  0.00  0.00    +0.168 A 
ATOM     21  C   UNL     1      -4.518  -4.403   6.354  0.00  0.00    +0.152 A 
ATOM     22  C   UNL     1      -3.891  -5.643   6.107  0.00  0.00    +0.282 A 
ATOM     23  O   UNL     1      -2.950  -5.715   5.338  0.00  0.00    -0.265 OA
ATOM     24  N   UNL     1      -4.346  -6.748   6.734  0.00  0.00    -0.262 N 
ATOM     25  C   UNL     1      -5.384  -6.683   7.585  0.00  0.00    +0.333 A 
ATOM     26  O   UNL     1      -5.767  -7.699   8.132  0.00  0.00    -0.246 OA
ATOM     27  N   UNL     1      -6.005  -5.519   7.855  0.00  0.00    -0.280 N 
ATOM     28  C   UNL     1      -7.134  -5.491   8.789  0.00  0.00    +0.155 C 
ATOM     29  C   UNL     1      -3.700  -8.039   6.481  0.00  0.00    +0.157 C 
ENDBRANCH  16  17
ENDBRANCH  13  16
ENDBRANCH   5  12
BRANCH   1  30
ATOM     30  C   UNL     1      -1.497  -1.838   0.006  0.00  0.00    +0.342 C 
ATOM     31  O   UNL     1      -0.523  -2.566  -0.007  0.00  0.00    -0.245 OA
BRANCH  30  32
ATOM     32  O   UNL     1      -1.339  -0.499   0.012  0.00  0.00    -0.461 OA
BRANCH  32  34
ATOM     33  C   UNL     1      -0.019   1.526   0.010  0.00  0.00    +0.048 C 
ATOM     34  C   UNL     1       0.002  -0.004   0.002  0.00  0.00    +0.229 C 
ENDBRANCH  32  34
ENDBRANCH  30  32
ENDBRANCH   1  30
BRANCH  10  35
ATOM     35  O   UNL     1      -7.327  -2.483  -4.074  0.00  0.00    -0.451 OA
BRANCH  35  36
ATOM     36  C   UNL     1      -8.120  -1.877  -5.097  0.00  0.00    +0.230 C 
ATOM     37  C   UNL     1      -9.582  -1.830  -4.647  0.00  0.00    +0.048 C 
ENDBRANCH  35  36
ENDBRANCH  10  35
TORSDOF 8
