REMARK  Name = ZINC45471395
REMARK  9 active torsions:
REMARK  status: ('A' for Active; 'I' for Inactive)
REMARK    1  A    between atoms: C_1  and  C_2
REMARK    2  A    between atoms: C_2  and  C_3
REMARK    3  A    between atoms: C_2  and  C_4
REMARK    4  A    between atoms: C_2  and  N_5
REMARK    5  A    between atoms: C_6  and  C_8
REMARK    6  A    between atoms: C_8  and  N_9
REMARK    7  A    between atoms: N_13  and  C_16
REMARK    8  A    between atoms: C_16  and  C_17
REMARK    9  A    between atoms: N_19  and  C_20
REMARK                            x       y       z     vdW  Elec       q    Type
REMARK                         _______ _______ _______ _____ _____    ______ ____
ROOT
ATOM      1  N   UNL     1       4.055  -0.110  -2.677  0.00  0.00    -0.296 NA
ATOM      2  C   UNL     1       4.074   1.372  -2.738  0.00  0.00    +0.083 C 
ATOM      3  C   UNL     1       5.380   1.857  -2.162  0.00  0.00    -0.003 C 
ATOM      4  C   UNL     1       6.466   2.044  -3.233  0.00  0.00    -0.077 C 
ATOM      5  N   UNL     1       6.481   0.948  -4.229  0.00  0.00    +0.386 N 
ATOM      6  C   UNL     1       6.299  -0.348  -3.617  0.00  0.00    -0.063 C 
ATOM      7  C   UNL     1       4.806  -0.718  -3.688  0.00  0.00    +0.066 C 
ATOM      8  H   UNL     1       5.739   1.102  -4.896  0.00  0.00    -0.081 HD
ENDROOT
BRANCH   1   9
ATOM      9  C   UNL     1       2.677  -0.618  -2.667  0.00  0.00    +0.180 C 
BRANCH   9  11
ATOM     10  N   UNL     1       0.688  -0.476  -1.203  0.00  0.00    -0.310 N 
ATOM     11  C   UNL     1       1.972  -0.132  -1.427  0.00  0.00    +0.227 C 
ATOM     12  O   UNL     1       2.559   0.569  -0.630  0.00  0.00    -0.274 OA
ATOM     13  H   UNL     1       0.218  -1.037  -1.840  0.00  0.00    +0.149 HD
BRANCH  10  15
ATOM     14  C   UNL     1      -0.019   1.526   0.010  0.00  0.00    +0.031 C 
ATOM     15  C   UNL     1       0.002  -0.004   0.002  0.00  0.00    +0.026 C 
ATOM     16  C   UNL     1       0.742  -0.511   1.242  0.00  0.00    +0.031 C 
ATOM     17  C   UNL     1      -1.433  -0.534   0.013  0.00  0.00    +0.031 C 
ENDBRANCH  10  15
ENDBRANCH   9  11
ENDBRANCH   1   9
BRANCH   5  18
ATOM     18  C   UNL     1       7.767   0.965  -4.937  0.00  0.00    +0.019 C 
BRANCH  18  19
ATOM     19  C   UNL     1       7.885   2.239  -5.735  0.00  0.00    +0.197 C 
ATOM     20  O   UNL     1       6.985   3.052  -5.714  0.00  0.00    -0.278 OA
ATOM     21  N   UNL     1       8.989   2.474  -6.470  0.00  0.00    -0.311 N 
ATOM     22  H   UNL     1       9.709   1.823  -6.486  0.00  0.00    +0.149 HD
BRANCH  21  23
ATOM     23  C   UNL     1       9.104   3.712  -7.245  0.00  0.00    +0.035 C 
ATOM     24  C   UNL     1       7.961   3.785  -8.260  0.00  0.00    +0.029 C 
ATOM     25  C   UNL     1       8.081   5.078  -9.070  0.00  0.00    -0.008 C 
ATOM     26  C   UNL     1       9.421   5.096  -9.808  0.00  0.00    +0.007 C 
ATOM     27  C   UNL     1      10.563   5.022  -8.793  0.00  0.00    -0.008 C 
ATOM     28  C   UNL     1      10.444   3.729  -7.983  0.00  0.00    +0.029 C 
ATOM     29  C   UNL     1      10.485   6.224  -7.849  0.00  0.00    +0.007 C 
ATOM     30  C   UNL     1       9.145   6.206  -7.111  0.00  0.00    -0.008 C 
ATOM     31  C   UNL     1       8.002   6.280  -8.126  0.00  0.00    +0.007 C 
ATOM     32  C   UNL     1       9.026   4.913  -6.301  0.00  0.00    +0.029 C 
ENDBRANCH  21  23
ENDBRANCH  18  19
ENDBRANCH   5  18
TORSDOF 6
