REMARK  Name = ZINC16647523
REMARK  11 active torsions:
REMARK  status: ('A' for Active; 'I' for Inactive)
REMARK    1  A    between atoms: C_1  and  C_2
REMARK    2  A    between atoms: C_2  and  C_3
REMARK    3  A    between atoms: C_3  and  C_5
REMARK    4  A    between atoms: C_3  and  C_6
REMARK    5  A    between atoms: C_6  and  N_7
REMARK    6  A    between atoms: C_8  and  C_10
REMARK    7  A    between atoms: C_10  and  N_11
REMARK    8  A    between atoms: N_13  and  C_32
REMARK    9  A    between atoms: C_22  and  C_24
REMARK   10  A    between atoms: C_27  and  O_30
REMARK   11  A    between atoms: O_30  and  C_31
REMARK                            x       y       z     vdW  Elec       q    Type
REMARK                         _______ _______ _______ _____ _____    ______ ____
ROOT
ATOM      1  N   UNL     1      -0.196  -0.571  -2.465  0.00  0.00    -0.275 N 
ATOM      2  C   UNL     1      -0.164  -0.954  -1.048  0.00  0.00    +0.217 C 
ATOM      3  N   UNL     1      -1.573  -0.941  -0.586  0.00  0.00    -0.300 N 
ATOM      4  C   UNL     1      -2.331  -1.216  -1.825  0.00  0.00    +0.115 C 
ATOM      5  C   UNL     1      -1.448  -0.727  -2.946  0.00  0.00    +0.241 C 
ATOM      6  O   UNL     1      -1.802  -0.510  -4.086  0.00  0.00    -0.273 OA
ATOM      7  C   UNL     1      -2.584  -2.714  -1.962  0.00  0.00    +0.054 C 
ATOM      8  C   UNL     1      -3.326  -2.987  -3.275  0.00  0.00    +0.110 C 
ATOM      9  N   UNL     1      -4.534  -2.152  -3.316  0.00  0.00    -0.297 N 
ATOM     10  C   UNL     1      -4.400  -0.702  -3.124  0.00  0.00    +0.110 C 
ATOM     11  C   UNL     1      -3.649  -0.447  -1.812  0.00  0.00    +0.054 C 
ATOM     12  C   UNL     1      -5.745  -2.707  -3.527  0.00  0.00    +0.247 C 
ATOM     13  O   UNL     1      -6.722  -1.997  -3.669  0.00  0.00    -0.270 OA
ENDROOT
BRANCH  12  14
ATOM     14  C   UNL     1      -5.883  -4.175  -3.586  0.00  0.00    +0.037 A 
ATOM     15  C   UNL     1      -5.064  -4.988  -2.799  0.00  0.00    +0.016 A 
ATOM     16  C   UNL     1      -5.201  -6.357  -2.852  0.00  0.00    +0.046 A 
ATOM     17  C   UNL     1      -6.144  -6.931  -3.697  0.00  0.00    +0.120 A 
ATOM     18  C   UNL     1      -6.957  -6.126  -4.487  0.00  0.00    +0.046 A 
ATOM     19  C   UNL     1      -6.830  -4.755  -4.434  0.00  0.00    +0.016 A 
BRANCH  17  20
ATOM     20  O   UNL     1      -6.272  -8.281  -3.752  0.00  0.00    -0.495 OA
ATOM     21  C   UNL     1      -5.405  -9.049  -2.914  0.00  0.00    +0.277 C 
ENDBRANCH  17  20
ENDBRANCH  12  14
BRANCH   3  22
ATOM     22  C   UNL     1      -1.793  -1.939   0.367  0.00  0.00    +0.032 A 
ATOM     23  C   UNL     1      -3.083  -2.213   0.802  0.00  0.00    +0.023 A 
ATOM     24  C   UNL     1      -3.298  -3.203   1.741  0.00  0.00    +0.002 A 
ATOM     25  C   UNL     1      -2.229  -3.914   2.255  0.00  0.00    +0.000 A 
ATOM     26  C   UNL     1      -0.943  -3.640   1.828  0.00  0.00    +0.002 A 
ATOM     27  C   UNL     1      -0.722  -2.655   0.885  0.00  0.00    +0.023 A 
ENDBRANCH   3  22
BRANCH   1  28
ATOM     28  C   UNL     1       0.954  -0.099  -3.239  0.00  0.00    +0.205 C 
BRANCH  28  30
ATOM     29  N   UNL     1       2.031   2.061  -3.780  0.00  0.00    -0.314 N 
ATOM     30  C   UNL     1       1.043   1.402  -3.143  0.00  0.00    +0.230 C 
ATOM     31  O   UNL     1       0.223   2.018  -2.495  0.00  0.00    -0.274 OA
ATOM     32  H   UNL     1       2.684   1.569  -4.301  0.00  0.00    +0.149 HD
BRANCH  29  33
ATOM     33  C   UNL     1       2.117   3.521  -3.686  0.00  0.00    +0.107 C 
BRANCH  33  34
ATOM     34  C   UNL     1       3.319   4.013  -4.495  0.00  0.00    +0.003 C 
ATOM     35  C   UNL     1       3.091   3.716  -5.978  0.00  0.00    +0.009 C 
BRANCH  34  37
ATOM     36  C   UNL     1       4.756   5.993  -5.003  0.00  0.00    +0.004 C 
ATOM     37  C   UNL     1       3.483   5.521  -4.296  0.00  0.00    +0.001 C 
ENDBRANCH  34  37
ENDBRANCH  33  34
ENDBRANCH  29  33
ENDBRANCH  28  30
ENDBRANCH   1  28
TORSDOF 8
