REMARK  Name = ZINC16346378
REMARK  8 active torsions:
REMARK  status: ('A' for Active; 'I' for Inactive)
REMARK    1  A    between atoms: C_1  and  C_2
REMARK    2  A    between atoms: C_5  and  C_8
REMARK    3  A    between atoms: C_8  and  S_9
REMARK    4  A    between atoms: S_9  and  C_10
REMARK    5  A    between atoms: C_21  and  C_23
REMARK    6  A    between atoms: C_26  and  N_29
REMARK    7  A    between atoms: N_29  and  C_30
REMARK    8  A    between atoms: N_29  and  C_31
REMARK                            x       y       z     vdW  Elec       q    Type
REMARK                         _______ _______ _______ _____ _____    ______ ____
ROOT
ATOM      1  C   UNL     1       0.031  -0.046   0.008  0.00  0.00    +0.171 A 
ATOM      2  N   UNL     1      -0.003   1.316   0.019  0.00  0.00    -0.302 N 
ATOM      3  H   UNL     1      -0.855   1.779   0.029  0.00  0.00    +0.171 HD
ATOM      4  C   UNL     1       1.147   2.022   0.009  0.00  0.00    +0.258 A 
ATOM      5  O   UNL     1       1.127   3.243   0.018  0.00  0.00    -0.267 OA
ATOM      6  C   UNL     1       2.363   1.329  -0.011  0.00  0.00    +0.069 A 
ATOM      7  C   UNL     1       2.342  -0.055  -0.024  0.00  0.00    +0.135 A 
ATOM      8  N   UNL     1       1.172  -0.704  -0.013  0.00  0.00    -0.208 NA
ATOM      9  N   UNL     1       3.531  -0.757  -0.051  0.00  0.00    -0.302 N 
ATOM     10  C   UNL     1       4.689  -0.150  -0.454  0.00  0.00    +0.017 C 
ATOM     11  C   UNL     1       4.801   1.195  -0.465  0.00  0.00    +0.024 C 
ATOM     12  C   UNL     1       3.663   2.077  -0.018  0.00  0.00    +0.092 C 
ATOM     13  C   UNL     1       5.985   1.819  -0.897  0.00  0.00    +0.162 C 
ATOM     14  O   UNL     1       6.055   3.033  -0.887  0.00  0.00    -0.292 OA
ATOM     15  C   UNL     1       7.165   1.017  -1.371  0.00  0.00    +0.080 C 
ATOM     16  C   UNL     1       6.664  -0.309  -1.953  0.00  0.00    +0.014 C 
ATOM     17  C   UNL     1       5.840  -1.028  -0.883  0.00  0.00    +0.051 C 
ATOM     18  H   UNL     1       3.546  -1.688   0.219  0.00  0.00    +0.153 HD
ENDROOT
BRANCH  12  19
ATOM     19  C   UNL     1       3.948   2.583   1.373  0.00  0.00    -0.035 A 
ATOM     20  C   UNL     1       4.107   1.687   2.414  0.00  0.00    +0.006 A 
ATOM     21  C   UNL     1       4.375   2.147   3.688  0.00  0.00    +0.023 A 
ATOM     22  C   UNL     1       4.472   3.513   3.926  0.00  0.00    +0.029 A 
ATOM     23  C   UNL     1       4.305   4.410   2.879  0.00  0.00    +0.023 A 
ATOM     24  C   UNL     1       4.044   3.943   1.606  0.00  0.00    +0.006 A 
BRANCH  22  25
ATOM     25  N   UNL     1       4.736   3.982   5.215  0.00  0.00    -0.336 N 
ATOM     26  C   UNL     1       4.961   5.411   5.442  0.00  0.00    +0.129 C 
ATOM     27  C   UNL     1       4.787   3.045   6.339  0.00  0.00    +0.129 C 
ENDBRANCH  22  25
ENDBRANCH  12  19
BRANCH   1  28
ATOM     28  S   UNL     1      -1.483  -0.947   0.024  0.00  0.00    -0.083 S 
BRANCH  28  29
ATOM     29  C   UNL     1      -0.843  -2.639   0.002  0.00  0.00    +0.112 C 
BRANCH  29  34
ATOM     30  C   UNL     1      -5.254  -6.372   0.038  0.00  0.00    +0.044 C 
ATOM     31  C   UNL     1      -4.104  -5.398   0.029  0.00  0.00    -0.050 A 
ATOM     32  C   UNL     1      -3.594  -4.943  -1.172  0.00  0.00    +0.003 A 
ATOM     33  C   UNL     1      -2.538  -4.050  -1.181  0.00  0.00    +0.005 A 
ATOM     34  C   UNL     1      -1.993  -3.613   0.011  0.00  0.00    -0.037 A 
ATOM     35  C   UNL     1      -2.500  -4.072   1.213  0.00  0.00    +0.005 A 
ATOM     36  C   UNL     1      -3.558  -4.961   1.222  0.00  0.00    +0.003 A 
ENDBRANCH  29  34
ENDBRANCH  28  29
ENDBRANCH   1  28
TORSDOF 5
