REMARK  Name = ZINC20708398
REMARK  6 active torsions:
REMARK  status: ('A' for Active; 'I' for Inactive)
REMARK    1  A    between atoms: C_4  and  O_7
REMARK    2  A    between atoms: O_7  and  C_8
REMARK    3  A    between atoms: C_8  and  C_9
REMARK    4  A    between atoms: C_9  and  O_10
REMARK    5  A    between atoms: O_10  and  C_11
REMARK    6  A    between atoms: C_24  and  C_27
REMARK                            x       y       z     vdW  Elec       q    Type
REMARK                         _______ _______ _______ _____ _____    ______ ____
ROOT
ATOM      1  C   UNL     1       0.910   5.839   1.393  0.00  0.00    +0.121 A 
ATOM      2  C   UNL     1       2.072   5.387   0.784  0.00  0.00    +0.047 A 
ATOM      3  C   UNL     1       2.167   4.067   0.391  0.00  0.00    +0.027 A 
ATOM      4  C   UNL     1       1.105   3.198   0.603  0.00  0.00    +0.032 A 
ATOM      5  C   UNL     1      -0.059   3.643   1.212  0.00  0.00    -0.016 A 
ATOM      6  C   UNL     1      -0.147   4.972   1.605  0.00  0.00    +0.051 A 
ATOM      7  C   UNL     1      -1.226   2.742   1.463  0.00  0.00    +0.049 C 
ATOM      8  C   UNL     1      -2.353   3.018   0.495  0.00  0.00    -0.023 C 
ATOM      9  C   UNL     1      -2.954   1.900   0.170  0.00  0.00    -0.030 C 
ATOM     10  C   UNL     1      -2.314   0.724   0.882  0.00  0.00    +0.033 C 
ATOM     11  C   UNL     1      -0.896   1.253   1.248  0.00  0.00    +0.029 C 
ATOM     12  C   UNL     1      -0.013   1.086   0.008  0.00  0.00    +0.105 C 
ATOM     13  N   UNL     1       1.218   1.862   0.195  0.00  0.00    -0.336 N 
ATOM     14  H   UNL     1       2.196   1.393   0.014  0.00  0.00    +0.147 HD
ENDROOT
BRANCH  12  15
ATOM     15  C   UNL     1      -0.747   1.587  -1.209  0.00  0.00    -0.026 A 
ATOM     16  C   UNL     1      -0.629   2.926  -1.578  0.00  0.00    +0.006 A 
ATOM     17  C   UNL     1      -1.279   3.412  -2.671  0.00  0.00    +0.009 A 
ATOM     18  C   UNL     1      -2.080   2.552  -3.442  0.00  0.00    -0.018 A 
ATOM     19  C   UNL     1      -2.766   3.017  -4.577  0.00  0.00    +0.008 A 
ATOM     20  C   UNL     1      -3.533   2.155  -5.300  0.00  0.00    +0.001 A 
ATOM     21  C   UNL     1      -3.650   0.816  -4.931  0.00  0.00    +0.001 A 
ATOM     22  C   UNL     1      -3.000   0.331  -3.838  0.00  0.00    +0.008 A 
ATOM     23  C   UNL     1      -2.199   1.191  -3.067  0.00  0.00    -0.018 A 
ATOM     24  C   UNL     1      -1.509   0.725  -1.935  0.00  0.00    +0.014 A 
ENDBRANCH  12  15
BRANCH   1  25
ATOM     25  O   UNL     1       0.810   7.138   1.781  0.00  0.00    -0.489 OA
BRANCH  25  26
ATOM     26  C   UNL     1       1.939   7.979   1.532  0.00  0.00    +0.270 C 
BRANCH  26  27
ATOM     27  C   UNL     1       1.642   9.393   2.034  0.00  0.00    +0.270 C 
BRANCH  27  28
ATOM     28  O   UNL     1       1.492   9.373   3.455  0.00  0.00    -0.489 OA
BRANCH  28  32
ATOM     29  C   UNL     1       0.675  12.969   5.305  0.00  0.00    +0.000 A 
ATOM     30  C   UNL     1       0.792  11.816   6.059  0.00  0.00    +0.004 A 
ATOM     31  C   UNL     1       1.065  10.610   5.442  0.00  0.00    +0.045 A 
ATOM     32  C   UNL     1       1.223  10.557   4.064  0.00  0.00    +0.121 A 
ATOM     33  C   UNL     1       1.111  11.717   3.311  0.00  0.00    +0.045 A 
ATOM     34  C   UNL     1       0.831  12.919   3.932  0.00  0.00    +0.004 A 
ENDBRANCH  28  32
ENDBRANCH  27  28
ENDBRANCH  26  27
ENDBRANCH  25  26
ENDBRANCH   1  25
TORSDOF 6
