REMARK  Name = ZINC24227983
REMARK  12 active torsions:
REMARK  status: ('A' for Active; 'I' for Inactive)
REMARK    1  A    between atoms: C_1  and  C_2
REMARK    2  A    between atoms: C_2  and  C_4
REMARK    3  A    between atoms: C_2  and  N_32
REMARK    4  A    between atoms: C_7  and  S_16
REMARK    5  A    between atoms: N_8  and  C_9
REMARK    6  A    between atoms: S_16  and  C_17
REMARK    7  A    between atoms: C_17  and  C_19
REMARK    8  A    between atoms: C_17  and  C_20
REMARK    9  A    between atoms: N_22  and  C_23
REMARK   10  A    between atoms: C_28  and  C_29
REMARK   11  A    between atoms: C_29  and  C_30
REMARK   12  A    between atoms: C_29  and  C_31
REMARK                            x       y       z     vdW  Elec       q    Type
REMARK                         _______ _______ _______ _____ _____    ______ ____
ROOT
ATOM      1  C   UNL     1       0.693  -0.538  -1.221  0.00  0.00    +0.125 A 
ATOM      2  N   UNL     1       1.979  -0.525  -1.430  0.00  0.00    -0.135 NA
ATOM      3  N   UNL     1       2.244  -1.003  -2.593  0.00  0.00    -0.122 NA
ATOM      4  C   UNL     1       1.131  -1.351  -3.197  0.00  0.00    +0.197 A 
ATOM      5  N   UNL     1       0.105  -1.070  -2.338  0.00  0.00    -0.275 N 
ENDROOT
BRANCH   5   6
ATOM      6  C   UNL     1      -1.265  -1.280  -2.556  0.00  0.00    +0.050 A 
ATOM      7  C   UNL     1      -1.963  -2.187  -1.770  0.00  0.00    +0.029 A 
ATOM      8  C   UNL     1      -3.311  -2.393  -1.986  0.00  0.00    +0.040 A 
ATOM      9  C   UNL     1      -3.967  -1.696  -2.987  0.00  0.00    +0.124 A 
ATOM     10  C   UNL     1      -3.273  -0.791  -3.772  0.00  0.00    +0.040 A 
ATOM     11  C   UNL     1      -1.926  -0.578  -3.554  0.00  0.00    +0.029 A 
ATOM     12  F   UNL     1      -5.286  -1.899  -3.198  0.00  0.00    -0.205 F 
ENDBRANCH   5   6
BRANCH   1  14
ATOM     13  C   UNL     1      -0.035   1.468   0.041  0.00  0.00    -0.005 C 
ATOM     14  C   UNL     1      -0.016  -0.061   0.021  0.00  0.00    -0.002 C 
BRANCH  14  15
ATOM     15  N   UNL     1       0.691  -0.558   1.209  0.00  0.00    +0.386 N 
ATOM     16  C   UNL     1       0.717  -2.026   1.183  0.00  0.00    -0.078 C 
ATOM     17  C   UNL     1       1.522  -2.546   2.376  0.00  0.00    -0.019 C 
ATOM     18  C   UNL     1       0.866  -2.069   3.674  0.00  0.00    -0.004 C 
ATOM     19  C   UNL     1       0.777  -0.540   3.658  0.00  0.00    -0.019 C 
ATOM     20  C   UNL     1      -0.000  -0.093   2.417  0.00  0.00    -0.078 C 
ATOM     21  H   UNL     1       1.637  -0.207   1.207  0.00  0.00    -0.081 HD
ENDBRANCH  14  15
ENDBRANCH   1  14
BRANCH   4  22
ATOM     22  S   UNL     1       0.989  -2.052  -4.807  0.00  0.00    -0.073 S 
BRANCH  22  23
ATOM     23  C   UNL     1       2.703  -2.166  -5.390  0.00  0.00    +0.137 C 
ATOM     24  C   UNL     1       3.284  -0.759  -5.542  0.00  0.00    +0.029 C 
BRANCH  23  25
ATOM     25  C   UNL     1       2.734  -2.870  -6.722  0.00  0.00    +0.230 C 
ATOM     26  O   UNL     1       1.756  -2.857  -7.439  0.00  0.00    -0.274 OA
ATOM     27  N   UNL     1       3.850  -3.514  -7.118  0.00  0.00    -0.284 N 
ATOM     28  H   UNL     1       4.658  -3.458  -6.583  0.00  0.00    +0.155 HD
BRANCH  27  29
ATOM     29  C   UNL     1       3.844  -4.263  -8.299  0.00  0.00    +0.037 A 
ATOM     30  C   UNL     1       2.652  -4.781  -8.789  0.00  0.00    +0.023 A 
ATOM     31  C   UNL     1       2.649  -5.520  -9.956  0.00  0.00    +0.002 A 
ATOM     32  C   UNL     1       3.832  -5.745 -10.636  0.00  0.00    +0.000 A 
ATOM     33  C   UNL     1       5.020  -5.232 -10.151  0.00  0.00    +0.006 A 
ATOM     34  C   UNL     1       5.029  -4.486  -8.988  0.00  0.00    -0.024 A 
BRANCH  34  35
ATOM     35  C   UNL     1       6.324  -3.921  -8.464  0.00  0.00    +0.015 C 
ATOM     36  C   UNL     1       7.344  -5.050  -8.300  0.00  0.00    +0.012 C 
ATOM     37  C   UNL     1       6.864  -2.884  -9.451  0.00  0.00    +0.012 C 
ENDBRANCH  34  35
ENDBRANCH  27  29
ENDBRANCH  23  25
ENDBRANCH  22  23
ENDBRANCH   4  22
TORSDOF 8
