REMARK  Name = ZINC04680582
REMARK  5 active torsions:
REMARK  status: ('A' for Active; 'I' for Inactive)
REMARK    1  A    between atoms: C_1  and  C_2
REMARK    2  A    between atoms: C_7  and  N_12
REMARK    3  A    between atoms: C_9  and  C_11
REMARK    4  A    between atoms: C_13  and  C_15
REMARK    5  A    between atoms: C_18  and  N_22
REMARK                            x       y       z     vdW  Elec       q    Type
REMARK                         _______ _______ _______ _____ _____    ______ ____
ROOT
ATOM      1  N   UNL     1      -1.191   1.869   0.018  0.00  0.00    -0.308 N 
ATOM      2  C   UNL     1      -0.014   1.211   0.009  0.00  0.00    +0.246 C 
ATOM      3  O   UNL     1       0.002  -0.004   0.002  0.00  0.00    -0.270 OA
ATOM      4  H   UNL     1      -1.204   2.839   0.023  0.00  0.00    +0.149 HD
ENDROOT
BRANCH   1  10
ATOM      5  C   UNL     1      -5.984   2.068  -1.178  0.00  0.00    +0.008 C 
ATOM      6  C   UNL     1      -4.874   1.202  -0.578  0.00  0.00    -0.009 C 
ATOM      7  C   UNL     1      -5.241   0.826   0.859  0.00  0.00    +0.003 C 
ATOM      8  C   UNL     1      -4.131  -0.040   1.458  0.00  0.00    +0.002 C 
ATOM      9  C   UNL     1      -2.816   0.743   1.456  0.00  0.00    +0.022 C 
ATOM     10  C   UNL     1      -2.449   1.120   0.020  0.00  0.00    +0.076 C 
ATOM     11  C   UNL     1      -3.559   1.985  -0.580  0.00  0.00    +0.009 C 
ATOM     12  C   UNL     1      -3.722   3.257   0.255  0.00  0.00    +0.009 C 
ENDBRANCH   1  10
BRANCH   2  13
ATOM     13  C   UNL     1       1.255   1.968   0.001  0.00  0.00    +0.055 A 
ATOM     14  C   UNL     1       1.240   3.364   0.008  0.00  0.00    +0.017 A 
ATOM     15  C   UNL     1       2.428   4.063   0.001  0.00  0.00    +0.033 A 
ATOM     16  C   UNL     1       3.635   3.385  -0.013  0.00  0.00    +0.128 A 
ATOM     17  C   UNL     1       3.659   2.003  -0.021  0.00  0.00    +0.053 A 
ATOM     18  C   UNL     1       2.476   1.289  -0.009  0.00  0.00    +0.055 A 
ATOM     19 CL   UNL     1       2.507  -0.447  -0.011  0.00  0.00    -0.083 Cl
BRANCH  16  20
ATOM     20  N   UNL     1       4.906   4.144  -0.021  0.00  0.00    +0.056 N 
ATOM     21  O   UNL     1       4.888   5.362  -0.013  0.00  0.00    -0.126 OA
ATOM     22  O   UNL     1       5.969   3.550  -0.034  0.00  0.00    -0.126 OA
ENDBRANCH  16  20
ENDBRANCH   2  13
TORSDOF 3
