REMARK  Name = ZINC62876809
REMARK  6 active torsions:
REMARK  status: ('A' for Active; 'I' for Inactive)
REMARK    1  A    between atoms: C_1  and  C_2
REMARK    2  A    between atoms: C_2  and  C_3
REMARK    3  A    between atoms: C_3  and  C_20
REMARK    4  A    between atoms: N_11  and  C_12
REMARK    5  A    between atoms: C_12  and  C_14
REMARK    6  A    between atoms: C_12  and  C_15
REMARK                            x       y       z     vdW  Elec       q    Type
REMARK                         _______ _______ _______ _____ _____    ______ ____
ROOT
ATOM      1  C   UNL     1       0.721  -0.494  -1.261  0.00  0.00    +0.087 C 
ATOM      2  C   UNL     1       0.738  -2.024  -1.266  0.00  0.00    +0.021 C 
ATOM      3  C   UNL     1      -0.698  -2.552  -1.218  0.00  0.00    +0.020 C 
ATOM      4  C   UNL     1      -1.457  -2.072  -2.459  0.00  0.00    +0.109 C 
ATOM      5  N   UNL     1      -1.354  -0.609  -2.539  0.00  0.00    -0.285 N 
ATOM      6  C   UNL     1      -0.022   0.009  -2.502  0.00  0.00    +0.127 C 
ATOM      7  C   UNL     1      -2.462   0.152  -2.646  0.00  0.00    +0.303 C 
ATOM      8  O   UNL     1      -2.372   1.364  -2.616  0.00  0.00    -0.253 OA
ATOM      9  N   UNL     1      -3.669  -0.431  -2.785  0.00  0.00    -0.293 N 
ATOM     10  H   UNL     1      -3.750  -1.396  -2.736  0.00  0.00    +0.151 HD
ENDROOT
BRANCH   1  11
ATOM     11  C   UNL     1       2.135   0.026  -1.276  0.00  0.00    +0.364 C 
ATOM     12  O   UNL     1       2.536   0.729  -0.364  0.00  0.00    -0.246 OA
ATOM     13  O   UNL     1       2.879  -0.258  -2.199  0.00  0.00    -0.246 OA
ENDBRANCH   1  11
BRANCH   1  15
ATOM     14  C   UNL     1      -0.013   1.534   0.001  0.00  0.00    +0.005 C 
ATOM     15  C   UNL     1       0.007   0.004  -0.002  0.00  0.00    +0.016 C 
ENDBRANCH   1  15
BRANCH   9  16
ATOM     16  C   UNL     1      -4.859   0.394  -3.009  0.00  0.00    +0.102 C 
ATOM     17  C   UNL     1      -5.408   0.874  -1.664  0.00  0.00    +0.033 C 
BRANCH  16  18
ATOM     18  C   UNL     1      -5.909  -0.422  -3.719  0.00  0.00    -0.020 A 
ATOM     19  C   UNL     1      -6.673   0.140  -4.724  0.00  0.00    +0.013 A 
ATOM     20  C   UNL     1      -7.609  -0.621  -5.343  0.00  0.00    +0.045 A 
ATOM     21  S   UNL     1      -7.429  -2.184  -4.499  0.00  0.00    -0.105 S 
ATOM     22  C   UNL     1      -6.114  -1.719  -3.384  0.00  0.00    +0.050 A 
ENDBRANCH  16  18
ENDBRANCH   9  16
TORSDOF 4
