REMARK  Name = ZINC01372021
REMARK  7 active torsions:
REMARK  status: ('A' for Active; 'I' for Inactive)
REMARK    1  A    between atoms: C_3  and  N_8
REMARK    2  A    between atoms: N_8  and  C_9
REMARK    3  A    between atoms: C_9  and  C_11
REMARK    4  A    between atoms: C_9  and  C_18
REMARK    5  A    between atoms: C_14  and  O_17
REMARK    6  A    between atoms: N_20  and  C_21
REMARK    7  A    between atoms: C_26  and  C_28
REMARK                            x       y       z     vdW  Elec       q    Type
REMARK                         _______ _______ _______ _____ _____    ______ ____
ROOT
ATOM      1  C   UNL     1      -1.351   3.509  -0.728  0.00  0.00    +0.197 C 
ENDROOT
BRANCH   1   2
ATOM      2  C   UNL     1      -2.271   4.255   0.204  0.00  0.00    -0.018 A 
ATOM      3  C   UNL     1      -3.284   3.580   0.860  0.00  0.00    +0.009 A 
ATOM      4  C   UNL     1      -4.125   4.261   1.720  0.00  0.00    +0.046 A 
ATOM      5  C   UNL     1      -3.959   5.625   1.915  0.00  0.00    +0.117 A 
ATOM      6  C   UNL     1      -2.945   6.300   1.251  0.00  0.00    +0.046 A 
ATOM      7  C   UNL     1      -2.103   5.614   0.397  0.00  0.00    +0.009 A 
BRANCH   5   8
ATOM      8  O   UNL     1      -4.789   6.298   2.755  0.00  0.00    -0.507 OA
ATOM      9  H   UNL     1      -5.578   6.655   2.325  0.00  0.00    +0.292 HD
ENDBRANCH   5   8
ENDBRANCH   1   2
BRANCH   1  10
ATOM     10  C   UNL     1      -2.142   2.979  -1.896  0.00  0.00    +0.239 C 
ATOM     11  O   UNL     1      -2.183   1.785  -2.109  0.00  0.00    -0.273 OA
ATOM     12  N   UNL     1      -2.804   3.830  -2.704  0.00  0.00    -0.311 N 
ATOM     13  H   UNL     1      -2.771   4.785  -2.534  0.00  0.00    +0.149 HD
BRANCH  12  14
ATOM     14  C   UNL     1      -3.573   3.315  -3.840  0.00  0.00    +0.073 C 
ATOM     15  C   UNL     1      -2.664   3.188  -5.080  0.00  0.00    +0.022 C 
ATOM     16  C   UNL     1      -3.577   3.591  -6.263  0.00  0.00    +0.002 C 
ATOM     17  C   UNL     1      -4.420   4.746  -5.667  0.00  0.00    +0.002 C 
ATOM     18  C   UNL     1      -4.690   4.305  -4.213  0.00  0.00    +0.022 C 
ENDBRANCH  12  14
ENDBRANCH   1  10
BRANCH   1  19
ATOM     19  N   UNL     1      -0.730   2.392  -0.011  0.00  0.00    -0.250 N 
ATOM     20  C   UNL     1       0.245   1.672  -0.601  0.00  0.00    +0.272 C 
ATOM     21  O   UNL     1       0.670   2.002  -1.691  0.00  0.00    -0.268 OA
BRANCH  19  24
ATOM     22  C   UNL     1      -1.123   2.512   3.642  0.00  0.00    +0.005 A 
ATOM     23  C   UNL     1      -0.704   2.825   2.364  0.00  0.00    +0.024 A 
ATOM     24  C   UNL     1      -1.149   2.073   1.284  0.00  0.00    +0.041 A 
ATOM     25  C   UNL     1      -2.007   1.002   1.494  0.00  0.00    +0.062 A 
ATOM     26  C   UNL     1      -2.419   0.689   2.776  0.00  0.00    +0.125 A 
ATOM     27  C   UNL     1      -1.977   1.445   3.850  0.00  0.00    +0.038 A 
ATOM     28  F   UNL     1      -3.253  -0.353   2.983  0.00  0.00    -0.205 F 
ENDBRANCH  19  24
BRANCH  20  29
ATOM     29  C   UNL     1       0.791   0.478   0.074  0.00  0.00    +0.155 A 
ATOM     30  C   UNL     1       1.719  -0.347  -0.559  0.00  0.00    +0.098 A 
ATOM     31  C   UNL     1       2.117  -1.395   0.209  0.00  0.00    +0.117 A 
ATOM     32  S   UNL     1       1.206  -1.158   1.659  0.00  0.00    +0.026 S 
ATOM     33  N   UNL     1       0.416   0.154   1.292  0.00  0.00    -0.203 NA
ATOM     34 CL   UNL     1       3.248  -2.657  -0.172  0.00  0.00    -0.073 Cl
ATOM     35 CL   UNL     1       2.310  -0.062  -2.167  0.00  0.00    -0.079 Cl
ENDBRANCH  20  29
ENDBRANCH   1  19
TORSDOF 7
