REMARK  Name = ZINC09504722
REMARK  10 active torsions:
REMARK  status: ('A' for Active; 'I' for Inactive)
REMARK    1  A    between atoms: C_1  and  C_2
REMARK    2  A    between atoms: C_4  and  C_32
REMARK    3  A    between atoms: N_11  and  C_12
REMARK    4  A    between atoms: C_12  and  C_13
REMARK    5  A    between atoms: C_13  and  N_63
REMARK    6  A    between atoms: C_14  and  N_63
REMARK    7  A    between atoms: C_15  and  N_63
REMARK    8  A    between atoms: C_16  and  C_18
REMARK    9  A    between atoms: N_21  and  S_24
REMARK   10  A    between atoms: S_24  and  C_27
REMARK                            x       y       z     vdW  Elec       q    Type
REMARK                         _______ _______ _______ _____ _____    ______ ____
ROOT
ATOM      1  C   UNL     1      -0.973  -1.553   0.410  0.00  0.00    +0.044 C 
ATOM      2  C   UNL     1      -1.421  -0.687   1.559  0.00  0.00    -0.049 A 
ATOM      3  C   UNL     1      -2.681  -0.104   1.548  0.00  0.00    +0.009 A 
ATOM      4  C   UNL     1      -3.115   0.683   2.582  0.00  0.00    -0.024 A 
ATOM      5  C   UNL     1      -2.281   0.938   3.695  0.00  0.00    +0.083 A 
ATOM      6  C   UNL     1      -1.004   0.333   3.670  0.00  0.00    +0.041 A 
ATOM      7  C   UNL     1      -0.580  -0.459   2.632  0.00  0.00    +0.020 A 
ATOM      8  S   UNL     1      -0.294   0.884   5.202  0.00  0.00    -0.052 S 
ATOM      9  C   UNL     1      -1.689   1.850   5.762  0.00  0.00    +0.168 A 
ATOM     10  N   UNL     1      -2.551   1.688   4.785  0.00  0.00    -0.224 NA
ATOM     11  N   UNL     1      -1.826   2.584   6.929  0.00  0.00    -0.252 N 
ATOM     12  C   UNL     1      -2.924   3.341   7.124  0.00  0.00    +0.224 C 
ATOM     13  O   UNL     1      -3.001   4.058   8.099  0.00  0.00    -0.275 OA
ATOM     14  C   UNL     1      -4.493   1.290   2.529  0.00  0.00    +0.046 C 
ENDROOT
BRANCH  12  15
ATOM     15  C   UNL     1      -4.057   3.295   6.131  0.00  0.00    +0.078 C 
ATOM     16  C   UNL     1      -3.768   4.265   4.983  0.00  0.00    +0.030 C 
ATOM     17  C   UNL     1      -4.904   4.191   3.959  0.00  0.00    +0.110 C 
ATOM     18  N   UNL     1      -6.179   4.435   4.648  0.00  0.00    -0.176 NA
ATOM     19  C   UNL     1      -6.515   3.617   5.822  0.00  0.00    +0.110 C 
ATOM     20  C   UNL     1      -5.360   3.698   6.826  0.00  0.00    +0.030 C 
BRANCH  18  21
ATOM     21  S   UNL     1      -7.217   5.609   4.113  0.00  0.00    +0.067 S 
ATOM     22  O   UNL     1      -6.926   5.811   2.737  0.00  0.00    -0.152 OA
ATOM     23  O   UNL     1      -8.512   5.246   4.572  0.00  0.00    -0.152 OA
BRANCH  21  24
ATOM     24  C   UNL     1      -6.788   7.102   4.943  0.00  0.00    +0.143 A 
ATOM     25  C   UNL     1      -5.905   8.062   4.572  0.00  0.00    +0.036 A 
ATOM     26  C   UNL     1      -5.730   9.164   5.389  0.00  0.00    +0.010 A 
ATOM     27  C   UNL     1      -6.439   9.246   6.542  0.00  0.00    +0.047 A 
ATOM     28  S   UNL     1      -7.396   7.740   6.495  0.00  0.00    -0.077 S 
ENDBRANCH  21  24
ENDBRANCH  18  21
ENDBRANCH  12  15
BRANCH  11  29
ATOM     29  C   UNL     1      -0.778   2.537   7.951  0.00  0.00    +0.097 C 
BRANCH  29  30
ATOM     30  C   UNL     1       0.183   3.711   7.750  0.00  0.00    -0.060 C 
BRANCH  30  33
ATOM     31  C   UNL     1       2.087   2.481   8.600  0.00  0.00    -0.097 C 
ATOM     32  C   UNL     1       2.034   4.896   8.765  0.00  0.00    -0.097 C 
ATOM     33  N   UNL     1       1.222   3.662   8.801  0.00  0.00    +0.377 N 
ATOM     34  H   UNL     1       0.765   3.589   9.718  0.00  0.00    -0.083 HD
ENDBRANCH  30  33
ENDBRANCH  29  30
ENDBRANCH  11  29
TORSDOF 6
