REMARK  Name = ZINC11913224
REMARK  8 active torsions:
REMARK  status: ('A' for Active; 'I' for Inactive)
REMARK    1  A    between atoms: C_1  and  N_2
REMARK    2  A    between atoms: C_6  and  C_18
REMARK    3  A    between atoms: C_8  and  N_9
REMARK    4  A    between atoms: C_10  and  C_12
REMARK    5  A    between atoms: N_20  and  C_21
REMARK    6  A    between atoms: C_21  and  C_22
REMARK    7  A    between atoms: C_22  and  C_23
REMARK    8  A    between atoms: C_34  and  C_35
REMARK                            x       y       z     vdW  Elec       q    Type
REMARK                         _______ _______ _______ _____ _____    ______ ____
ROOT
ATOM      1  C   UNL     1      -1.285   0.822  -3.969  0.00  0.00    +0.150 C 
ATOM      2  N   UNL     1      -0.394   1.897  -3.524  0.00  0.00    -0.329 N 
ATOM      3  C   UNL     1       0.414   2.672  -4.328  0.00  0.00    +0.090 A 
ATOM      4  C   UNL     1       1.083   3.557  -3.465  0.00  0.00    +0.092 A 
ATOM      5  C   UNL     1       1.990   4.479  -3.989  0.00  0.00    +0.043 A 
ATOM      6  C   UNL     1       2.224   4.516  -5.360  0.00  0.00    +0.041 A 
ATOM      7  C   UNL     1       1.553   3.631  -6.214  0.00  0.00    +0.038 A 
ATOM      8  C   UNL     1       0.655   2.716  -5.702  0.00  0.00    +0.060 A 
ATOM      9  N   UNL     1       0.653   3.284  -2.206  0.00  0.00    -0.232 NA
ATOM     10  C   UNL     1      -0.214   2.314  -2.242  0.00  0.00    +0.114 A 
ENDROOT
BRANCH   8  11
ATOM     11  N   UNL     1      -0.013   1.834  -6.560  0.00  0.00    -0.282 N 
ATOM     12  C   UNL     1       0.533   1.506  -7.748  0.00  0.00    +0.246 C 
ATOM     13  O   UNL     1       1.646   1.896  -8.032  0.00  0.00    -0.273 OA
ATOM     14  H   UNL     1      -0.868   1.458  -6.299  0.00  0.00    +0.155 HD
BRANCH  12  15
ATOM     15  C   UNL     1      -0.240   0.656  -8.723  0.00  0.00    +0.204 C 
ATOM     16  C   UNL     1      -0.435  -0.768  -8.159  0.00  0.00    +0.043 C 
ATOM     17  C   UNL     1      -0.303  -1.684  -9.397  0.00  0.00    +0.031 C 
ATOM     18  C   UNL     1      -0.045  -0.704 -10.563  0.00  0.00    +0.161 C 
ATOM     19  O   UNL     1       0.516   0.474  -9.940  0.00  0.00    -0.367 OA
ENDBRANCH  12  15
ENDBRANCH   8  11
BRANCH   6  20
ATOM     20  C   UNL     1       3.184   5.491  -5.916  0.00  0.00    +0.244 C 
ATOM     21  O   UNL     1       3.390   5.525  -7.114  0.00  0.00    -0.270 OA
ATOM     22  N   UNL     1       3.830   6.343  -5.097  0.00  0.00    -0.311 N 
ATOM     23  H   UNL     1       3.666   6.315  -4.141  0.00  0.00    +0.149 HD
BRANCH  22  24
ATOM     24  C   UNL     1       4.782   7.310  -5.649  0.00  0.00    +0.109 C 
BRANCH  24  25
ATOM     25  C   UNL     1       5.372   8.150  -4.514  0.00  0.00    +0.056 C 
BRANCH  25  26
ATOM     26  C   UNL     1       6.351   9.145  -5.082  0.00  0.00    -0.021 A 
ATOM     27  C   UNL     1       7.681   8.989  -5.180  0.00  0.00    +0.087 A 
ATOM     28  N   UNL     1       8.240  10.102  -5.748  0.00  0.00    -0.360 N 
ATOM     29  H   UNL     1       9.187  10.223  -5.921  0.00  0.00    +0.165 HD
ATOM     30  C   UNL     1       7.258  11.023  -6.036  0.00  0.00    +0.047 A 
ATOM     31  C   UNL     1       6.032  10.462  -5.637  0.00  0.00    +0.003 A 
ATOM     32  C   UNL     1       4.847  11.178  -5.815  0.00  0.00    +0.010 A 
ATOM     33  C   UNL     1       4.885  12.422  -6.381  0.00  0.00    +0.001 A 
ATOM     34  C   UNL     1       6.092  12.979  -6.779  0.00  0.00    +0.002 A 
ATOM     35  C   UNL     1       7.274  12.292  -6.606  0.00  0.00    +0.026 A 
ENDBRANCH  25  26
ENDBRANCH  24  25
ENDBRANCH  22  24
ENDBRANCH   6  20
BRANCH  10  36
ATOM     36  C   UNL     1      -0.912   1.735  -1.039  0.00  0.00    +0.055 C 
ATOM     37  C   UNL     1       0.049   1.138   0.002  0.00  0.00    +0.011 C 
ATOM     38  C   UNL     1      -0.861   1.750   1.081  0.00  0.00    +0.001 C 
ATOM     39  C   UNL     1      -1.285   2.784   0.021  0.00  0.00    +0.011 C 
ENDBRANCH  10  36
TORSDOF 7
