REMARK  Name = ZINC21263478
REMARK  15 active torsions:
REMARK  status: ('A' for Active; 'I' for Inactive)
REMARK    1  A    between atoms: C_1  and  C_2
REMARK    2  A    between atoms: C_2  and  C_32
REMARK    3  A    between atoms: C_4  and  N_10
REMARK    4  A    between atoms: C_6  and  C_8
REMARK    5  A    between atoms: C_6  and  C_9
REMARK    6  A    between atoms: N_10  and  C_11
REMARK    7  A    between atoms: C_11  and  N_13
REMARK    8  A    between atoms: N_13  and  C_14
REMARK    9  A    between atoms: N_13  and  C_25
REMARK   10  A    between atoms: C_14  and  C_15
REMARK   11  A    between atoms: C_18  and  O_23
REMARK   12  A    between atoms: C_20  and  O_21
REMARK   13  A    between atoms: O_21  and  C_22
REMARK   14  A    between atoms: O_23  and  C_24
REMARK   15  A    between atoms: C_25  and  C_26
REMARK                            x       y       z     vdW  Elec       q    Type
REMARK                         _______ _______ _______ _____ _____    ______ ____
ROOT
ATOM      1  N   UNL     1      -2.910   1.929   3.047  0.00  0.00    -0.306 N 
ENDROOT
BRANCH   1   2
ATOM      2  C   UNL     1      -2.020   2.456   3.910  0.00  0.00    +0.133 C 
ATOM      3  S   UNL     1      -2.100   2.056   5.573  0.00  0.00    -0.019 S 
BRANCH   2   4
ATOM      4  N   UNL     1      -1.067   3.299   3.465  0.00  0.00    -0.324 N 
ATOM      5  H   UNL     1      -1.016   3.556   2.397  0.00  0.00    +0.148 HD
BRANCH   4   9
ATOM      6  C   UNL     1       2.763   3.753   5.524  0.00  0.00    -0.010 C 
ATOM      7  C   UNL     1       2.199   4.845   4.615  0.00  0.00    -0.072 C 
ATOM      8  C   UNL     1       1.178   4.246   3.646  0.00  0.00    +0.009 C 
ATOM      9  C   UNL     1      -0.097   3.873   4.406  0.00  0.00    +0.069 C 
ATOM     10  C   UNL     1      -0.684   5.142   5.022  0.00  0.00    +0.009 C 
ATOM     11  C   UNL     1       0.319   5.801   5.965  0.00  0.00    -0.072 C 
ATOM     12  N   UNL     1       1.636   5.948   5.374  0.00  0.00    +0.386 N 
ATOM     13  C   UNL     1       0.377   5.024   7.284  0.00  0.00    -0.010 C 
ATOM     14  C   UNL     1      -0.214   7.215   6.293  0.00  0.00    -0.010 C 
ATOM     15  C   UNL     1       3.370   5.395   3.771  0.00  0.00    -0.010 C 
ATOM     16  H   UNL     1       2.293   6.182   6.224  0.00  0.00    -0.084 HD
ATOM     17  H   UNL     1       1.547   6.832   4.725  0.00  0.00    -0.084 HD
ENDBRANCH   4   9
ENDBRANCH   2   4
ENDBRANCH   1   2
BRANCH   1  18
ATOM     18  C   UNL     1      -3.874   0.927   3.509  0.00  0.00    +0.145 C 
BRANCH  18  19
ATOM     19  C   UNL     1      -5.161   1.608   3.894  0.00  0.00    +0.012 A 
ATOM     20  C   UNL     1      -5.416   1.904   5.220  0.00  0.00    +0.012 A 
ATOM     21  C   UNL     1      -6.593   2.534   5.576  0.00  0.00    +0.046 A 
ATOM     22  C   UNL     1      -7.528   2.860   4.604  0.00  0.00    +0.124 A 
ATOM     23  C   UNL     1      -7.278   2.559   3.274  0.00  0.00    +0.091 A 
ATOM     24  C   UNL     1      -6.093   1.933   2.919  0.00  0.00    +0.128 A 
BRANCH  24  25
ATOM     25  O   UNL     1      -5.845   1.636   1.616  0.00  0.00    -0.495 OA
ATOM     26  C   UNL     1      -6.848   1.999   0.665  0.00  0.00    +0.277 C 
ENDBRANCH  24  25
BRANCH  22  27
ATOM     27  O   UNL     1      -8.688   3.474   4.955  0.00  0.00    -0.495 OA
ATOM     28  C   UNL     1      -8.880   3.754   6.343  0.00  0.00    +0.277 C 
ENDBRANCH  22  27
ENDBRANCH  18  19
ENDBRANCH   1  18
BRANCH   1  29
ATOM     29  C   UNL     1      -2.914   2.358   1.646  0.00  0.00    +0.138 C 
BRANCH  29  30
ATOM     30  C   UNL     1      -1.980   1.458   0.834  0.00  0.00    +0.136 C 
ATOM     31  C   UNL     1      -1.969   1.893  -0.648  0.00  0.00    +0.035 C 
ATOM     32  C   UNL     1      -0.502   1.687  -1.089  0.00  0.00    +0.031 C 
ATOM     33  C   UNL     1       0.199   1.153   0.180  0.00  0.00    +0.160 C 
ATOM     34  O   UNL     1      -0.613   1.621   1.278  0.00  0.00    -0.375 OA
ENDBRANCH  29  30
ENDBRANCH   1  29
TORSDOF 9
