REMARK  Name = ZINC12489935
REMARK  12 active torsions:
REMARK  status: ('A' for Active; 'I' for Inactive)
REMARK    1  A    between atoms: C_1  and  C_2
REMARK    2  A    between atoms: C_2  and  O_3
REMARK    3  A    between atoms: O_3  and  C_4
REMARK    4  A    between atoms: C_9  and  N_10
REMARK    5  A    between atoms: N_10  and  C_11
REMARK    6  A    between atoms: C_11  and  C_13
REMARK    7  A    between atoms: C_11  and  C_19
REMARK    8  A    between atoms: N_21  and  C_22
REMARK    9  A    between atoms: C_22  and  C_23
REMARK   10  A    between atoms: C_29  and  C_31
REMARK   11  A    between atoms: C_31  and  N_32
REMARK   12  A    between atoms: C_33  and  C_35
REMARK                            x       y       z     vdW  Elec       q    Type
REMARK                         _______ _______ _______ _____ _____    ______ ____
ROOT
ATOM      1  N   UNL     1       1.957   4.769  -0.122  0.00  0.00    -0.251 N 
ATOM      2  C   UNL     1       1.684   5.678  -1.078  0.00  0.00    +0.238 C 
ATOM      3  O   UNL     1       0.710   5.538  -1.788  0.00  0.00    -0.273 OA
ENDROOT
BRANCH   1   9
ATOM      4  C   UNL     1       2.987   5.667   1.877  0.00  0.00    +0.142 A 
ATOM      5  C   UNL     1       4.101   5.819   2.686  0.00  0.00    +0.047 A 
ATOM      6  C   UNL     1       5.307   5.251   2.317  0.00  0.00    +0.004 A 
ATOM      7  C   UNL     1       5.403   4.525   1.145  0.00  0.00    +0.002 A 
ATOM      8  C   UNL     1       4.295   4.364   0.335  0.00  0.00    +0.027 A 
ATOM      9  C   UNL     1       3.082   4.931   0.698  0.00  0.00    +0.079 A 
BRANCH   4  10
ATOM     10  O   UNL     1       1.802   6.230   2.235  0.00  0.00    -0.490 OA
BRANCH  10  12
ATOM     11  C   UNL     1       0.373   7.525   3.691  0.00  0.00    +0.048 C 
ATOM     12  C   UNL     1       1.780   6.971   3.457  0.00  0.00    +0.226 C 
ENDBRANCH  10  12
ENDBRANCH   4  10
ENDBRANCH   1   9
BRANCH   1  13
ATOM     13  C   UNL     1       1.078   3.611   0.061  0.00  0.00    +0.197 C 
BRANCH  13  14
ATOM     14  C   UNL     1       1.064   2.787  -1.200  0.00  0.00    -0.018 A 
ATOM     15  C   UNL     1      -0.138   2.454  -1.795  0.00  0.00    +0.006 A 
ATOM     16  C   UNL     1      -0.151   1.698  -2.952  0.00  0.00    +0.000 A 
ATOM     17  C   UNL     1       1.039   1.275  -3.515  0.00  0.00    +0.000 A 
ATOM     18  C   UNL     1       2.241   1.608  -2.920  0.00  0.00    +0.000 A 
ATOM     19  C   UNL     1       2.254   2.364  -1.763  0.00  0.00    +0.006 A 
ENDBRANCH  13  14
BRANCH  13  20
ATOM     20  C   UNL     1       1.586   2.771   1.205  0.00  0.00    +0.239 C 
ATOM     21  O   UNL     1       2.774   2.562   1.323  0.00  0.00    -0.273 OA
ATOM     22  N   UNL     1       0.718   2.253   2.097  0.00  0.00    -0.311 N 
ATOM     23  H   UNL     1      -0.232   2.421   2.003  0.00  0.00    +0.149 HD
BRANCH  22  24
ATOM     24  C   UNL     1       1.212   1.436   3.209  0.00  0.00    +0.135 C 
BRANCH  24  25
ATOM     25  C   UNL     1       0.031   0.976   4.066  0.00  0.00    +0.135 C 
ATOM     26  C   UNL     1       0.534   0.185   5.294  0.00  0.00    +0.035 C 
ATOM     27  C   UNL     1      -0.516  -0.933   5.477  0.00  0.00    +0.031 C 
ATOM     28  C   UNL     1      -1.531  -0.685   4.338  0.00  0.00    +0.160 C 
ATOM     29  O   UNL     1      -0.789   0.040   3.332  0.00  0.00    -0.375 OA
ENDBRANCH  24  25
ENDBRANCH  22  24
ENDBRANCH  13  20
ENDBRANCH   1  13
BRANCH   2  30
ATOM     30  C   UNL     1       2.588   6.869  -1.267  0.00  0.00    +0.201 C 
BRANCH  30  31
ATOM     31  N   UNL     1       2.079   7.700  -2.360  0.00  0.00    -0.302 N 
ATOM     32  C   UNL     1       2.731   8.827  -2.710  0.00  0.00    +0.251 C 
ATOM     33  O   UNL     1       3.743   9.153  -2.117  0.00  0.00    -0.270 OA
ATOM     34  H   UNL     1       1.273   7.440  -2.833  0.00  0.00    +0.150 HD
BRANCH  32  35
ATOM     35  C   UNL     1       2.222   9.659  -3.804  0.00  0.00    +0.074 A 
ATOM     36  C   UNL     1       2.735  10.841  -4.315  0.00  0.00    +0.021 A 
ATOM     37  C   UNL     1       2.053  11.421  -5.355  0.00  0.00    +0.008 A 
ATOM     38  C   UNL     1       0.928  10.822  -5.827  0.00  0.00    +0.046 A 
ATOM     39  S   UNL     1       0.784   9.410  -4.831  0.00  0.00    -0.092 S 
ENDBRANCH  32  35
ENDBRANCH  30  31
ENDBRANCH   2  30
TORSDOF 11
