REMARK  Name = ZINC09730638
REMARK  11 active torsions:
REMARK  status: ('A' for Active; 'I' for Inactive)
REMARK    1  A    between atoms: C_1  and  C_2
REMARK    2  A    between atoms: C_5  and  C_36
REMARK    3  A    between atoms: C_6  and  O_8
REMARK    4  A    between atoms: O_8  and  C_9
REMARK    5  A    between atoms: C_9  and  C_10
REMARK    6  A    between atoms: C_10  and  O_11
REMARK    7  A    between atoms: O_11  and  C_12
REMARK    8  A    between atoms: C_15  and  C_18
REMARK    9  A    between atoms: C_28  and  C_30
REMARK   10  A    between atoms: C_36  and  C_37
REMARK   11  A    between atoms: C_36  and  C_38
REMARK                            x       y       z     vdW  Elec       q    Type
REMARK                         _______ _______ _______ _____ _____    ______ ____
ROOT
ATOM      1  C   UNL     1       2.193  -4.189   6.115  0.00  0.00    +0.121 A 
ATOM      2  C   UNL     1       1.009  -4.437   6.802  0.00  0.00    +0.046 A 
ATOM      3  C   UNL     1       0.948  -5.444   7.723  0.00  0.00    +0.011 A 
ATOM      4  C   UNL     1       2.083  -6.228   7.976  0.00  0.00    -0.024 A 
ATOM      5  C   UNL     1       3.274  -5.973   7.281  0.00  0.00    +0.011 A 
ATOM      6  C   UNL     1       3.320  -4.967   6.358  0.00  0.00    +0.046 A 
ENDROOT
BRANCH   4   7
ATOM      7  C   UNL     1       2.025  -7.308   8.964  0.00  0.00    +0.024 C 
ATOM      8  C   UNL     1       2.715  -8.479   8.744  0.00  0.00    +0.081 C 
ATOM      9  C   UNL     1       2.835  -9.529   9.795  0.00  0.00    +0.152 C 
ATOM     10  N   UNL     1       1.900  -9.773  10.675  0.00  0.00    -0.283 NA
ATOM     11  N   UNL     1       4.057 -10.233   9.747  0.00  0.00    -0.152 N 
ATOM     12  C   UNL     1       4.732 -10.255   8.545  0.00  0.00    +0.181 C 
ATOM     13  N   UNL     1       4.424  -9.615   7.445  0.00  0.00    -0.152 NA
ATOM     14  C   UNL     1       3.374  -8.767   7.446  0.00  0.00    +0.273 C 
ATOM     15  O   UNL     1       2.980  -8.249   6.413  0.00  0.00    -0.268 OA
ATOM     16  S   UNL     1       6.093 -11.333   8.903  0.00  0.00    -0.038 S 
ATOM     17  C   UNL     1       5.734 -11.597  10.634  0.00  0.00    +0.103 C 
ATOM     18  N   UNL     1       4.636 -10.915  10.796  0.00  0.00    -0.169 NA
ATOM     19  H   UNL     1       2.029 -10.469  11.339  0.00  0.00    +0.188 HD
BRANCH  17  20
ATOM     20  C   UNL     1       6.504 -12.403  11.648  0.00  0.00    +0.046 C 
ATOM     21  C   UNL     1       5.560 -12.854  12.764  0.00  0.00    +0.010 C 
ATOM     22  C   UNL     1       6.343 -13.673  13.794  0.00  0.00    +0.001 C 
ATOM     23  C   UNL     1       7.460 -12.812  14.387  0.00  0.00    +0.000 C 
ATOM     24  C   UNL     1       8.404 -12.361  13.271  0.00  0.00    +0.001 C 
ATOM     25  C   UNL     1       7.622 -11.543  12.241  0.00  0.00    +0.010 C 
ENDBRANCH  17  20
ENDBRANCH   4   7
BRANCH   1  26
ATOM     26  O   UNL     1       2.247  -3.188   5.201  0.00  0.00    -0.489 OA
BRANCH  26  27
ATOM     27  C   UNL     1       1.054  -2.427   5.000  0.00  0.00    +0.270 C 
BRANCH  27  28
ATOM     28  C   UNL     1       1.306  -1.352   3.942  0.00  0.00    +0.270 C 
BRANCH  28  29
ATOM     29  O   UNL     1       1.573  -1.976   2.684  0.00  0.00    -0.488 OA
BRANCH  29  35
ATOM     30  C   UNL     1       2.041   2.548   0.912  0.00  0.00    +0.044 C 
ATOM     31  C   UNL     1       2.057   1.052   0.726  0.00  0.00    -0.047 A 
ATOM     32  C   UNL     1       2.322   0.513  -0.519  0.00  0.00    +0.004 A 
ATOM     33  C   UNL     1       2.337  -0.858  -0.693  0.00  0.00    +0.008 A 
ATOM     34  C   UNL     1       2.087  -1.694   0.378  0.00  0.00    -0.003 A 
ATOM     35  C   UNL     1       1.820  -1.156   1.629  0.00  0.00    +0.124 A 
ATOM     36  C   UNL     1       1.811   0.221   1.802  0.00  0.00    +0.049 A 
BRANCH  34  37
ATOM     37  C   UNL     1       2.102  -3.189   0.188  0.00  0.00    +0.016 C 
ATOM     38  C   UNL     1       1.043  -3.583  -0.844  0.00  0.00    +0.012 C 
ATOM     39  C   UNL     1       3.483  -3.626  -0.306  0.00  0.00    +0.012 C 
ENDBRANCH  34  37
ENDBRANCH  29  35
ENDBRANCH  28  29
ENDBRANCH  27  28
ENDBRANCH  26  27
ENDBRANCH   1  26
TORSDOF 8
