REMARK  Name = ZINC06300897
REMARK  15 active torsions:
REMARK  status: ('A' for Active; 'I' for Inactive)
REMARK    1  A    between atoms: C_1  and  C_2
REMARK    2  A    between atoms: C_4  and  C_41
REMARK    3  A    between atoms: C_9  and  C_14
REMARK    4  A    between atoms: C_14  and  C_16
REMARK    5  A    between atoms: C_14  and  N_77
REMARK    6  A    between atoms: N_20  and  C_21
REMARK    7  A    between atoms: C_21  and  C_22
REMARK    8  A    between atoms: C_21  and  C_23
REMARK    9  A    between atoms: C_21  and  C_24
REMARK   10  A    between atoms: C_25  and  C_26
REMARK   11  A    between atoms: C_25  and  N_77
REMARK   12  A    between atoms: C_30  and  O_32
REMARK   13  A    between atoms: O_32  and  C_33
REMARK   14  A    between atoms: C_34  and  C_35
REMARK   15  A    between atoms: C_34  and  N_77
REMARK                            x       y       z     vdW  Elec       q    Type
REMARK                         _______ _______ _______ _____ _____    ______ ____
ROOT
ATOM      1  C   UNL     1      -4.580   1.453   0.407  0.00  0.00    +0.039 C 
ENDROOT
BRANCH   1  10
ATOM      2  C   UNL     1       2.757   1.802   1.702  0.00  0.00    +0.044 C 
ATOM      3  C   UNL     1       1.462   2.456   1.293  0.00  0.00    -0.050 A 
ATOM      4  C   UNL     1       1.448   3.802   0.952  0.00  0.00    +0.008 A 
ATOM      5  C   UNL     1       0.275   4.420   0.576  0.00  0.00    -0.026 A 
ATOM      6  C   UNL     1      -0.909   3.689   0.537  0.00  0.00    +0.052 A 
ATOM      7  C   UNL     1      -0.889   2.324   0.878  0.00  0.00    -0.001 A 
ATOM      8  C   UNL     1       0.312   1.719   1.262  0.00  0.00    +0.013 A 
ATOM      9  C   UNL     1      -2.141   1.565   0.838  0.00  0.00    +0.017 A 
ATOM     10  C   UNL     1      -3.275   2.206   0.463  0.00  0.00    +0.011 A 
ATOM     11  C   UNL     1      -3.240   3.576   0.126  0.00  0.00    +0.251 A 
ATOM     12  O   UNL     1      -4.271   4.133  -0.209  0.00  0.00    -0.268 OA
ATOM     13  N   UNL     1      -2.096   4.282   0.164  0.00  0.00    -0.322 N 
ATOM     14  H   UNL     1      -2.107   5.222  -0.075  0.00  0.00    +0.169 HD
ATOM     15  C   UNL     1       0.274   5.881   0.209  0.00  0.00    +0.046 C 
ENDBRANCH   1  10
BRANCH   1  16
ATOM     16  C   UNL     1      -5.064   1.393  -1.019  0.00  0.00    +0.143 A 
ATOM     17  N   UNL     1      -5.632   2.362  -1.694  0.00  0.00    -0.115 NA
ATOM     18  N   UNL     1      -5.900   1.922  -2.875  0.00  0.00    -0.023 NA
ATOM     19  N   UNL     1      -5.517   0.696  -2.971  0.00  0.00    -0.043 NA
ATOM     20  N   UNL     1      -4.992   0.336  -1.849  0.00  0.00    -0.225 N 
BRANCH  20  21
ATOM     21  C   UNL     1      -4.426  -0.979  -1.536  0.00  0.00    +0.059 C 
ATOM     22  C   UNL     1      -5.253  -1.641  -0.432  0.00  0.00    +0.036 C 
ATOM     23  C   UNL     1      -4.451  -1.857  -2.788  0.00  0.00    +0.036 C 
ATOM     24  C   UNL     1      -2.981  -0.812  -1.059  0.00  0.00    +0.036 C 
ENDBRANCH  20  21
ENDBRANCH   1  16
BRANCH   1  25
ATOM     25  N   UNL     1      -5.585   2.166   1.222  0.00  0.00    +0.394 N 
ATOM     26  H   UNL     1      -5.824   3.050   0.758  0.00  0.00    -0.080 HD
BRANCH  25  27
ATOM     27  C   UNL     1      -6.808   1.345   1.348  0.00  0.00    -0.041 C 
BRANCH  27  28
ATOM     28  C   UNL     1      -7.629   1.507   0.096  0.00  0.00    -0.060 A 
ATOM     29  C   UNL     1      -8.270   2.706  -0.160  0.00  0.00    +0.002 A 
ATOM     30  C   UNL     1      -9.020   2.860  -1.310  0.00  0.00    +0.004 A 
ATOM     31  C   UNL     1      -9.141   1.812  -2.203  0.00  0.00    +0.045 A 
ATOM     32  C   UNL     1      -8.504   0.607  -1.947  0.00  0.00    +0.120 A 
ATOM     33  C   UNL     1      -7.747   0.457  -0.794  0.00  0.00    +0.047 A 
BRANCH  32  34
ATOM     34  O   UNL     1      -8.621  -0.425  -2.824  0.00  0.00    -0.495 OA
ATOM     35  C   UNL     1      -9.416  -0.199  -3.989  0.00  0.00    +0.277 C 
ENDBRANCH  32  34
ENDBRANCH  27  28
ENDBRANCH  25  27
BRANCH  25  36
ATOM     36  C   UNL     1      -5.034   2.460   2.561  0.00  0.00    -0.045 C 
BRANCH  36  37
ATOM     37  C   UNL     1      -5.899   3.534   3.223  0.00  0.00    +0.102 C 
ATOM     38  C   UNL     1      -5.253   4.006   4.545  0.00  0.00    +0.032 C 
ATOM     39  C   UNL     1      -6.454   4.237   5.489  0.00  0.00    +0.030 C 
ATOM     40  C   UNL     1      -7.684   3.877   4.626  0.00  0.00    +0.160 C 
ATOM     41  O   UNL     1      -7.175   2.981   3.613  0.00  0.00    -0.378 OA
ENDBRANCH  36  37
ENDBRANCH  25  36
ENDBRANCH   1  25
TORSDOF 9
