REMARK  Name = ZINC13070848
REMARK  5 active torsions:
REMARK  status: ('A' for Active; 'I' for Inactive)
REMARK    1  A    between atoms: C_6  and  C_11
REMARK    2  A    between atoms: C_11  and  C_12
REMARK    3  A    between atoms: N_14  and  C_15
REMARK    4  A    between atoms: C_19  and  S_21
REMARK    5  A    between atoms: S_21  and  N_24
REMARK                            x       y       z     vdW  Elec       q    Type
REMARK                         _______ _______ _______ _____ _____    ______ ____
ROOT
ATOM      1  C   UNL     1       6.959  -3.872   2.915  0.00  0.00    +0.035 A 
ATOM      2  C   UNL     1       6.094  -3.513   3.941  0.00  0.00    +0.023 A 
ATOM      3  C   UNL     1       6.425  -3.795   5.252  0.00  0.00    +0.004 A 
ATOM      4  C   UNL     1       7.617  -4.434   5.544  0.00  0.00    +0.029 A 
ATOM      5  C   UNL     1       8.480  -4.792   4.525  0.00  0.00    +0.114 A 
ATOM      6  C   UNL     1       8.152  -4.519   3.211  0.00  0.00    +0.052 A 
ENDROOT
BRANCH   1   9
ATOM      7  C   UNL     1       6.974  -4.445   0.607  0.00  0.00    +0.222 C 
ATOM      8  O   UNL     1       7.646  -5.421   0.865  0.00  0.00    -0.275 OA
ATOM      9  N   UNL     1       6.627  -3.587   1.586  0.00  0.00    -0.285 N 
ATOM     10  H   UNL     1       6.147  -2.772   1.370  0.00  0.00    +0.155 HD
BRANCH   7  11
ATOM     11  C   UNL     1       6.526  -4.192  -0.810  0.00  0.00    +0.131 C 
BRANCH  11  17
ATOM     12  C   UNL     1       7.755  -9.425  -4.389  0.00  0.00    +0.001 A 
ATOM     13  C   UNL     1       6.511  -9.567  -3.777  0.00  0.00    +0.001 A 
ATOM     14  C   UNL     1       6.015  -8.595  -2.964  0.00  0.00    +0.008 A 
ATOM     15  C   UNL     1       6.766  -7.429  -2.736  0.00  0.00    -0.018 A 
ATOM     16  C   UNL     1       6.287  -6.404  -1.902  0.00  0.00    +0.012 A 
ATOM     17  C   UNL     1       7.043  -5.289  -1.704  0.00  0.00    -0.038 A 
ATOM     18  C   UNL     1       8.287  -5.148  -2.316  0.00  0.00    +0.005 A 
ATOM     19  C   UNL     1       8.783  -6.120  -3.129  0.00  0.00    +0.009 A 
ATOM     20  C   UNL     1       8.031  -7.285  -3.358  0.00  0.00    -0.018 A 
ATOM     21  C   UNL     1       8.510  -8.311  -4.191  0.00  0.00    +0.008 A 
ENDBRANCH  11  17
ENDBRANCH   7  11
ENDBRANCH   1   9
BRANCH   5  22
ATOM     22  S   UNL     1       9.997  -5.605   4.902  0.00  0.00    +0.100 S 
ATOM     23  O   UNL     1      10.878  -5.346   3.817  0.00  0.00    -0.146 OA
ATOM     24  O   UNL     1      10.319  -5.264   6.243  0.00  0.00    -0.146 OA
BRANCH  22  25
ATOM     25  N   UNL     1       9.696  -7.234   4.887  0.00  0.00    -0.118 NA
ATOM     26  C   UNL     1      10.651  -8.070   5.136  0.00  0.00    +0.117 C 
ATOM     27  C   UNL     1      12.055  -7.558   5.448  0.00  0.00    +0.073 C 
ATOM     28  C   UNL     1      12.323  -7.845   6.910  0.00  0.00    +0.008 C 
ATOM     29  C   UNL     1      12.925  -9.229   7.159  0.00  0.00    +0.002 C 
ATOM     30  C   UNL     1      12.260 -10.329   6.333  0.00  0.00    +0.019 C 
ATOM     31  C   UNL     1      10.752 -10.213   6.288  0.00  0.00    +0.102 C 
ATOM     32  N   UNL     1      10.414  -9.367   5.125  0.00  0.00    -0.331 N 
ATOM     33  H   UNL     1      10.012  -9.774   4.341  0.00  0.00    +0.147 HD
ENDBRANCH  22  25
ENDBRANCH   5  22
TORSDOF 5
