REMARK  Name = ZINC16393638
REMARK  4 active torsions:
REMARK  status: ('A' for Active; 'I' for Inactive)
REMARK    1  A    between atoms: C_1  and  C_2
REMARK    2  A    between atoms: C_3  and  C_26
REMARK    3  A    between atoms: C_4  and  C_20
REMARK    4  A    between atoms: C_10  and  C_15
REMARK                            x       y       z     vdW  Elec       q    Type
REMARK                         _______ _______ _______ _____ _____    ______ ____
ROOT
ATOM      1  C   UNL     1      -0.020   1.060   0.016  0.00  0.00    +0.061 C 
ATOM      2  C   UNL     1      -0.721   1.565   1.251  0.00  0.00    +0.014 C 
ATOM      3  C   UNL     1      -0.033   1.708   2.396  0.00  0.00    +0.043 C 
ATOM      4  C   UNL     1      -0.695   2.215   3.644  0.00  0.00    +0.090 C 
ATOM      5  C   UNL     1      -2.195   2.104   3.543  0.00  0.00    +0.024 C 
ATOM      6  C   UNL     1      -2.796   1.949   2.345  0.00  0.00    +0.016 C 
ATOM      7  N   UNL     1      -2.050   1.880   1.197  0.00  0.00    -0.321 N 
ATOM      8  C   UNL     1      -4.298   1.851   2.236  0.00  0.00    +0.060 C 
ATOM      9  C   UNL     1      -4.864   1.203   3.501  0.00  0.00    +0.039 C 
ATOM     10  C   UNL     1      -4.447   2.049   4.709  0.00  0.00    +0.088 C 
ATOM     11  C   UNL     1      -2.947   2.166   4.730  0.00  0.00    +0.162 C 
ATOM     12  O   UNL     1      -2.375   2.316   5.791  0.00  0.00    -0.292 OA
ATOM     13  H   UNL     1      -2.529   2.080   0.227  0.00  0.00    +0.152 HD
ENDROOT
BRANCH   3  14
ATOM     14  C   UNL     1       1.343   1.374   2.426  0.00  0.00    +0.248 C 
ATOM     15  O   UNL     1       1.917   1.063   1.399  0.00  0.00    -0.270 OA
ATOM     16  N   UNL     1       2.017   1.399   3.593  0.00  0.00    -0.267 N 
ATOM     17  C   UNL     1       3.392   1.176   3.608  0.00  0.00    +0.125 A 
ATOM     18  C   UNL     1       4.099   1.309   4.798  0.00  0.00    +0.044 A 
ATOM     19  C   UNL     1       5.464   1.085   4.799  0.00  0.00    +0.005 A 
ATOM     20  C   UNL     1       6.078   0.733   3.605  0.00  0.00    +0.020 A 
ATOM     21  C   UNL     1       5.314   0.619   2.460  0.00  0.00    +0.113 A 
ATOM     22  N   UNL     1       4.013   0.834   2.490  0.00  0.00    -0.240 NA
ATOM     23  H   UNL     1       1.482   1.596   4.534  0.00  0.00    +0.157 HD
ENDBRANCH   3  14
BRANCH   4  24
ATOM     24  C   UNL     1      -0.318   3.660   3.851  0.00  0.00    -0.035 A 
ATOM     25  C   UNL     1      -0.632   4.601   2.889  0.00  0.00    +0.004 A 
ATOM     26  C   UNL     1      -0.290   5.927   3.081  0.00  0.00    +0.000 A 
ATOM     27  C   UNL     1       0.374   6.309   4.232  0.00  0.00    +0.000 A 
ATOM     28  C   UNL     1       0.693   5.367   5.192  0.00  0.00    +0.000 A 
ATOM     29  C   UNL     1       0.347   4.042   5.001  0.00  0.00    +0.004 A 
ENDBRANCH   4  24
BRANCH   9  30
ATOM     30  C   UNL     1      -6.368   1.152   3.415  0.00  0.00    -0.006 A 
ATOM     31  C   UNL     1      -7.188   0.073   3.442  0.00  0.00    +0.011 A 
ATOM     32  C   UNL     1      -8.553   0.266   3.347  0.00  0.00    +0.008 A 
ATOM     33  C   UNL     1      -9.032   1.529   3.229  0.00  0.00    +0.045 A 
ATOM     34  S   UNL     1      -7.531   2.496   3.257  0.00  0.00    -0.101 S 
ENDBRANCH   9  30
TORSDOF 3
