REMARK  Name = ZINC20752113
REMARK  5 active torsions:
REMARK  status: ('A' for Active; 'I' for Inactive)
REMARK    1  A    between atoms: C_2  and  C_3
REMARK    2  A    between atoms: C_3  and  O_4
REMARK    3  A    between atoms: O_4  and  C_5
REMARK    4  A    between atoms: C_12  and  C_21
REMARK    5  A    between atoms: C_30  and  O_31
REMARK                            x       y       z     vdW  Elec       q    Type
REMARK                         _______ _______ _______ _____ _____    ______ ____
ROOT
ATOM      1  C   UNL     1      -5.741   2.901   1.846  0.00  0.00    +0.142 A 
ATOM      2  C   UNL     1      -7.109   3.058   1.734  0.00  0.00    +0.047 A 
ATOM      3  C   UNL     1      -7.647   3.716   0.643  0.00  0.00    +0.004 A 
ATOM      4  C   UNL     1      -6.809   4.224  -0.331  0.00  0.00    +0.006 A 
ATOM      5  C   UNL     1      -5.440   4.080  -0.224  0.00  0.00    -0.016 A 
ATOM      6  C   UNL     1      -4.882   3.403   0.861  0.00  0.00    +0.074 A 
ATOM      7  N   UNL     1      -3.512   3.190   1.030  0.00  0.00    -0.334 N 
ATOM      8  C   UNL     1      -2.618   3.823   0.047  0.00  0.00    +0.109 C 
ATOM      9  C   UNL     1      -3.286   3.699  -1.308  0.00  0.00    +0.029 C 
ATOM     10  C   UNL     1      -4.518   4.653  -1.228  0.00  0.00    +0.049 C 
ATOM     11  C   UNL     1      -4.893   4.839  -2.651  0.00  0.00    -0.023 C 
ATOM     12  C   UNL     1      -3.802   4.697  -3.397  0.00  0.00    -0.030 C 
ATOM     13  C   UNL     1      -2.602   4.364  -2.508  0.00  0.00    +0.033 C 
ATOM     14  H   UNL     1      -3.092   2.585   1.846  0.00  0.00    +0.147 HD
ENDROOT
BRANCH   8  15
ATOM     15  C   UNL     1      -1.289   3.113   0.031  0.00  0.00    +0.022 A 
ATOM     16  C   UNL     1      -0.094   3.852   0.024  0.00  0.00    -0.009 A 
ATOM     17  C   UNL     1      -0.106   5.258   0.032  0.00  0.00    +0.009 A 
ATOM     18  C   UNL     1       1.070   5.941   0.023  0.00  0.00    +0.001 A 
ATOM     19  C   UNL     1       2.291   5.269   0.007  0.00  0.00    +0.001 A 
ATOM     20  C   UNL     1       2.341   3.909   0.000  0.00  0.00    +0.008 A 
ATOM     21  C   UNL     1       1.147   3.168   0.008  0.00  0.00    -0.017 A 
ATOM     22  C   UNL     1       1.161   1.762   0.000  0.00  0.00    +0.012 A 
ATOM     23  C   UNL     1      -0.013   1.076   0.008  0.00  0.00    +0.046 A 
ATOM     24  C   UNL     1      -1.239   1.749   0.018  0.00  0.00    +0.122 A 
BRANCH  24  25
ATOM     25  O   UNL     1      -2.395   1.035   0.019  0.00  0.00    -0.506 OA
ATOM     26  H   UNL     1      -2.363  -0.065   0.008  0.00  0.00    +0.292 HD
ENDBRANCH  24  25
ENDBRANCH   8  15
BRANCH   1  27
ATOM     27  O   UNL     1      -5.224   2.251   2.923  0.00  0.00    -0.486 OA
BRANCH  27  28
ATOM     28  C   UNL     1      -6.153   1.762   3.893  0.00  0.00    +0.256 C 
BRANCH  28  30
ATOM     29  C   UNL     1      -5.723   1.311   6.253  0.00  0.00    +0.007 C 
ATOM     30  C   UNL     1      -5.403   1.076   5.005  0.00  0.00    +0.006 C 
ENDBRANCH  28  30
ENDBRANCH  27  28
ENDBRANCH   1  27
TORSDOF 5
