REMARK  Name = ZINC66807520
REMARK  7 active torsions:
REMARK  status: ('A' for Active; 'I' for Inactive)
REMARK    1  A    between atoms: C_1  and  C_2
REMARK    2  A    between atoms: C_2  and  C_4
REMARK    3  A    between atoms: C_2  and  O_27
REMARK    4  A    between atoms: N_6  and  C_7
REMARK    5  A    between atoms: C_11  and  N_13
REMARK    6  A    between atoms: N_16  and  C_17
REMARK    7  A    between atoms: O_27  and  C_28
REMARK                            x       y       z     vdW  Elec       q    Type
REMARK                         _______ _______ _______ _____ _____    ______ ____
ROOT
ATOM      1  N   UNL     1      -6.540  -1.000   3.152  0.00  0.00    -0.269 N 
ATOM      2  C   UNL     1      -7.737  -1.618   3.194  0.00  0.00    +0.308 C 
ATOM      3  O   UNL     1      -8.091  -2.323   2.268  0.00  0.00    -0.252 OA
ATOM      4  N   UNL     1      -8.543  -1.455   4.262  0.00  0.00    -0.269 N 
ATOM      5  H   UNL     1      -6.286  -0.387   3.859  0.00  0.00    +0.156 HD
ATOM      6  H   UNL     1      -8.298  -0.831   4.963  0.00  0.00    +0.156 HD
ENDROOT
BRANCH   4   7
ATOM      7  C   UNL     1      -9.732  -2.186   4.360  0.00  0.00    +0.038 A 
ATOM      8  C   UNL     1      -9.789  -3.479   3.864  0.00  0.00    +0.023 A 
ATOM      9  C   UNL     1     -10.964  -4.198   3.961  0.00  0.00    +0.002 A 
ATOM     10  C   UNL     1     -12.074  -3.624   4.548  0.00  0.00    +0.004 A 
ATOM     11  C   UNL     1     -12.023  -2.328   5.045  0.00  0.00    -0.042 A 
ATOM     12  C   UNL     1     -10.852  -1.611   4.962  0.00  0.00    -0.023 A 
ATOM     13  C   UNL     1     -10.718  -0.210   5.500  0.00  0.00    +0.037 C 
ATOM     14  C   UNL     1     -12.094   0.415   5.720  0.00  0.00    +0.005 C 
ATOM     15  C   UNL     1     -12.941  -0.560   6.547  0.00  0.00    +0.005 C 
ATOM     16  C   UNL     1     -13.275  -1.765   5.665  0.00  0.00    +0.035 C 
ENDBRANCH   4   7
BRANCH   1  21
ATOM     17  C   UNL     1      -3.430  -1.510   1.249  0.00  0.00    +0.035 A 
ATOM     18  C   UNL     1      -3.938  -1.724  -0.026  0.00  0.00    +0.023 A 
ATOM     19  C   UNL     1      -5.302  -1.699  -0.241  0.00  0.00    +0.004 A 
ATOM     20  C   UNL     1      -6.166  -1.459   0.810  0.00  0.00    +0.023 A 
ATOM     21  C   UNL     1      -5.665  -1.243   2.087  0.00  0.00    +0.037 A 
ATOM     22  C   UNL     1      -4.295  -1.275   2.308  0.00  0.00    +0.046 A 
BRANCH  17  25
ATOM     23  C   UNL     1      -1.557  -2.033   2.619  0.00  0.00    +0.246 C 
ATOM     24  O   UNL     1      -2.313  -2.382   3.501  0.00  0.00    -0.273 OA
ATOM     25  N   UNL     1      -2.048  -1.537   1.467  0.00  0.00    -0.283 N 
ATOM     26  H   UNL     1      -1.444  -1.198   0.788  0.00  0.00    +0.155 HD
BRANCH  23  28
ATOM     27  C   UNL     1       0.495  -3.171   1.816  0.00  0.00    +0.048 C 
ATOM     28  C   UNL     1      -0.067  -2.155   2.813  0.00  0.00    +0.200 C 
BRANCH  28  29
ATOM     29  O   UNL     1       0.206  -2.594   4.145  0.00  0.00    -0.371 OA
ATOM     30  C   UNL     1       1.451  -2.126   4.668  0.00  0.00    +0.195 C 
ENDBRANCH  28  29
ENDBRANCH  23  28
ENDBRANCH  17  25
ENDBRANCH   1  21
TORSDOF 5
