REMARK  Name = ZINC02912149
REMARK  5 active torsions:
REMARK  status: ('A' for Active; 'I' for Inactive)
REMARK    1  A    between atoms: C_1  and  C_2
REMARK    2  A    between atoms: C_2  and  C_3
REMARK    3  A    between atoms: C_3  and  S_4
REMARK    4  A    between atoms: S_4  and  C_5
REMARK    5  A    between atoms: C_18  and  C_21
REMARK                            x       y       z     vdW  Elec       q    Type
REMARK                         _______ _______ _______ _____ _____    ______ ____
ROOT
ATOM      1  C   UNL     1      -4.999  -0.170   0.014  0.00  0.00    +0.212 A 
ATOM      2  N   UNL     1      -4.822   0.826   0.878  0.00  0.00    -0.184 NA
ATOM      3  C   UNL     1      -3.640   1.413   0.954  0.00  0.00    +0.248 A 
ATOM      4  C   UNL     1      -2.603   0.964   0.107  0.00  0.00    +0.156 A 
ATOM      5  N   UNL     1      -2.843  -0.035  -0.729  0.00  0.00    -0.141 NA
ATOM      6  N   UNL     1      -4.009  -0.581  -0.769  0.00  0.00    -0.122 NA
ATOM      7  C   UNL     1      -1.278   1.615   0.168  0.00  0.00    +0.028 A 
ATOM      8  C   UNL     1      -0.105   0.873   0.234  0.00  0.00    +0.012 A 
ATOM      9  C   UNL     1       1.116   1.518   0.260  0.00  0.00    +0.001 A 
ATOM     10  C   UNL     1       1.178   2.901   0.228  0.00  0.00    +0.002 A 
ATOM     11  C   UNL     1       0.018   3.653   0.174  0.00  0.00    +0.024 A 
ATOM     12  C   UNL     1      -1.211   3.021   0.153  0.00  0.00    +0.039 A 
ATOM     13  N   UNL     1      -2.405   3.749   0.128  0.00  0.00    -0.305 N 
ATOM     14  C   UNL     1      -3.270   3.732   1.291  0.00  0.00    +0.294 C 
ATOM     15  O   UNL     1      -3.408   2.422   1.827  0.00  0.00    -0.449 OA
ATOM     16  H   UNL     1      -2.657   4.257  -0.659  0.00  0.00    +0.150 HD
ENDROOT
BRANCH  14  17
ATOM     17  C   UNL     1      -2.682   4.635   2.344  0.00  0.00    +0.011 A 
ATOM     18  C   UNL     1      -2.771   4.287   3.679  0.00  0.00    +0.012 A 
ATOM     19  C   UNL     1      -2.227   5.111   4.646  0.00  0.00    +0.039 A 
ATOM     20  C   UNL     1      -1.603   6.291   4.278  0.00  0.00    +0.123 A 
ATOM     21  C   UNL     1      -1.519   6.641   2.941  0.00  0.00    +0.039 A 
ATOM     22  C   UNL     1      -2.058   5.812   1.976  0.00  0.00    +0.012 A 
ATOM     23  F   UNL     1      -1.076   7.101   5.223  0.00  0.00    -0.205 F 
ENDBRANCH  14  17
BRANCH   1  24
ATOM     24  S   UNL     1      -6.572  -0.957  -0.092  0.00  0.00    -0.084 S 
BRANCH  24  25
ATOM     25  C   UNL     1      -6.226  -2.180  -1.380  0.00  0.00    +0.077 C 
BRANCH  25  27
ATOM     26  C   UNL     1      -7.191  -4.041  -2.740  0.00  0.00    +0.004 C 
ATOM     27  C   UNL     1      -7.484  -3.006  -1.651  0.00  0.00    +0.008 C 
ENDBRANCH  25  27
ENDBRANCH  24  25
ENDBRANCH   1  24
TORSDOF 4
