REMARK  Name = ZINC40980635
REMARK  10 active torsions:
REMARK  status: ('A' for Active; 'I' for Inactive)
REMARK    1  A    between atoms: C_1  and  C_2
REMARK    2  A    between atoms: C_2  and  C_3
REMARK    3  A    between atoms: C_3  and  S_4
REMARK    4  A    between atoms: S_4  and  C_5
REMARK    5  A    between atoms: C_10  and  C_20
REMARK    6  A    between atoms: C_22  and  O_29
REMARK    7  A    between atoms: C_23  and  O_27
REMARK    8  A    between atoms: O_27  and  C_28
REMARK    9  A    between atoms: O_29  and  C_30
REMARK   10  A    between atoms: C_30  and  C_31
REMARK                            x       y       z     vdW  Elec       q    Type
REMARK                         _______ _______ _______ _____ _____    ______ ____
ROOT
ATOM      1  C   UNL     1       1.641  -2.747   2.702  0.00  0.00    +0.210 A 
ATOM      2  N   UNL     1       2.143  -1.874   3.588  0.00  0.00    -0.187 NA
ATOM      3  C   UNL     1       2.730  -2.524   4.555  0.00  0.00    +0.219 A 
ATOM      4  N   UNL     1       2.608  -3.851   4.307  0.00  0.00    -0.220 N 
ATOM      5  N   UNL     1       1.903  -3.970   3.110  0.00  0.00    -0.141 NA
ATOM      6  C   UNL     1       3.138  -4.884   5.188  0.00  0.00    +0.176 C 
ATOM      7  C   UNL     1       4.100  -4.273   6.183  0.00  0.00    +0.041 C 
ATOM      8  C   UNL     1       4.181  -2.939   6.377  0.00  0.00    +0.020 C 
ATOM      9  N   UNL     1       3.390  -2.057   5.679  0.00  0.00    -0.287 N 
ATOM     10  C   UNL     1       5.156  -2.357   7.373  0.00  0.00    +0.052 C 
ATOM     11  C   UNL     1       5.369  -3.343   8.523  0.00  0.00    +0.014 C 
ATOM     12  C   UNL     1       5.893  -4.659   7.939  0.00  0.00    +0.080 C 
ATOM     13  C   UNL     1       4.918  -5.158   6.909  0.00  0.00    +0.163 C 
ATOM     14  O   UNL     1       4.835  -6.352   6.698  0.00  0.00    -0.292 OA
ATOM     15  H   UNL     1       3.299  -1.135   5.966  0.00  0.00    +0.155 HD
ENDROOT
BRANCH   6  16
ATOM     16  C   UNL     1       2.002  -5.538   5.932  0.00  0.00    -0.014 A 
ATOM     17  C   UNL     1       1.780  -6.896   5.796  0.00  0.00    +0.055 A 
ATOM     18  C   UNL     1       0.736  -7.499   6.478  0.00  0.00    +0.163 A 
ATOM     19  C   UNL     1      -0.087  -6.736   7.301  0.00  0.00    +0.175 A 
ATOM     20  C   UNL     1       0.142  -5.375   7.434  0.00  0.00    +0.063 A 
ATOM     21  C   UNL     1       1.189  -4.780   6.753  0.00  0.00    +0.025 A 
ATOM     22 BR   UNL     1      -0.973  -4.333   8.551  0.00  0.00    -0.046 Br
BRANCH  19  23
ATOM     23  O   UNL     1      -1.113  -7.323   7.973  0.00  0.00    -0.490 OA
ATOM     24  C   UNL     1      -0.828  -7.830   9.278  0.00  0.00    +0.277 C 
ENDBRANCH  19  23
BRANCH  18  25
ATOM     25  O   UNL     1       0.515  -8.834   6.344  0.00  0.00    -0.489 OA
BRANCH  25  26
ATOM     26  C   UNL     1       1.399  -9.554   5.483  0.00  0.00    +0.226 C 
ATOM     27  C   UNL     1       0.997 -11.031   5.459  0.00  0.00    +0.048 C 
ENDBRANCH  25  26
ENDBRANCH  18  25
ENDBRANCH   6  16
BRANCH   1  28
ATOM     28  S   UNL     1       0.767  -2.325   1.232  0.00  0.00    -0.084 S 
BRANCH  28  29
ATOM     29  C   UNL     1       0.742  -0.511   1.242  0.00  0.00    +0.077 C 
BRANCH  29  31
ATOM     30  C   UNL     1      -0.019   1.526   0.010  0.00  0.00    +0.004 C 
ATOM     31  C   UNL     1       0.002  -0.004   0.002  0.00  0.00    +0.008 C 
ENDBRANCH  29  31
ENDBRANCH  28  29
ENDBRANCH   1  28
TORSDOF 7
