REMARK  Name = ZINC22782856
REMARK  5 active torsions:
REMARK  status: ('A' for Active; 'I' for Inactive)
REMARK    1  A    between atoms: C_10  and  C_11
REMARK    2  A    between atoms: C_11  and  N_12
REMARK    3  A    between atoms: N_15  and  C_18
REMARK    4  A    between atoms: C_18  and  C_19
REMARK    5  A    between atoms: N_21  and  N_22
REMARK                            x       y       z     vdW  Elec       q    Type
REMARK                         _______ _______ _______ _____ _____    ______ ____
ROOT
ATOM      1  N   UNL     1      -0.783   3.048   1.252  0.00  0.00    -0.302 NA
ATOM      2  C   UNL     1      -0.730   1.580   1.267  0.00  0.00    +0.066 C 
ATOM      3  C   UNL     1      -0.013   1.086   0.008  0.00  0.00    -0.063 C 
ATOM      4  N   UNL     1      -0.724   1.573  -1.182  0.00  0.00    +0.387 N 
ATOM      5  C   UNL     1      -0.777   3.042  -1.196  0.00  0.00    -0.063 C 
ATOM      6  C   UNL     1      -1.495   3.536   0.062  0.00  0.00    +0.066 C 
ATOM      7  H   UNL     1      -1.757   1.196  -1.138  0.00  0.00    -0.081 HD
ENDROOT
BRANCH   1   8
ATOM      8  C   UNL     1      -1.399   3.565   2.482  0.00  0.00    +0.120 C 
BRANCH   8  18
ATOM      9  C   UNL     1       2.841   5.604   4.500  0.00  0.00    +0.001 A 
ATOM     10  C   UNL     1       2.030   5.908   3.407  0.00  0.00    +0.001 A 
ATOM     11  C   UNL     1       0.935   5.154   3.116  0.00  0.00    +0.009 A 
ATOM     12  C   UNL     1       0.616   4.050   3.924  0.00  0.00    -0.013 A 
ATOM     13  C   UNL     1       1.437   3.743   5.038  0.00  0.00    -0.018 A 
ATOM     14  C   UNL     1       2.560   4.545   5.307  0.00  0.00    +0.008 A 
ATOM     15  C   UNL     1       1.116   2.642   5.848  0.00  0.00    +0.008 A 
ATOM     16  C   UNL     1       0.020   1.889   5.557  0.00  0.00    +0.001 A 
ATOM     17  C   UNL     1      -0.790   2.193   4.465  0.00  0.00    +0.005 A 
ATOM     18  C   UNL     1      -0.510   3.252   3.658  0.00  0.00    -0.026 A 
ENDBRANCH   8  18
ENDBRANCH   1   8
BRANCH   4  19
ATOM     19  C   UNL     1      -0.109   1.057  -2.412  0.00  0.00    +0.020 C 
BRANCH  19  20
ATOM     20  C   UNL     1      -0.998   1.369  -3.588  0.00  0.00    +0.213 C 
ATOM     21  O   UNL     1      -2.041   1.963  -3.418  0.00  0.00    -0.276 OA
ATOM     22  N   UNL     1      -0.633   0.988  -4.828  0.00  0.00    -0.225 N 
ATOM     23  H   UNL     1       0.314   0.449  -4.982  0.00  0.00    +0.173 HD
BRANCH  22  24
ATOM     24  N   UNL     1      -1.459   1.278  -5.921  0.00  0.00    -0.137 N 
ATOM     25  C   UNL     1      -1.206   2.245  -6.828  0.00  0.00    +0.263 C 
ATOM     26  O   UNL     1      -0.257   2.999  -6.851  0.00  0.00    -0.271 OA
ATOM     27  C   UNL     1      -2.355   2.190  -7.809  0.00  0.00    +0.114 C 
ATOM     28  C   UNL     1      -1.844   1.863  -9.207  0.00  0.00    +0.035 C 
ATOM     29  C   UNL     1      -3.024   1.784 -10.179  0.00  0.00    +0.003 C 
ATOM     30  C   UNL     1      -3.765   3.123 -10.189  0.00  0.00    +0.000 C 
ATOM     31  C   UNL     1      -4.293   3.425  -8.785  0.00  0.00    +0.003 C 
ATOM     32  C   UNL     1      -3.118   3.510  -7.807  0.00  0.00    +0.035 C 
ATOM     33  N   UNL     1      -3.203   1.104  -7.303  0.00  0.00    -0.284 N 
ATOM     34  C   UNL     1      -2.595   0.627  -6.200  0.00  0.00    +0.326 C 
ATOM     35  O   UNL     1      -3.031  -0.289  -5.530  0.00  0.00    -0.251 OA
ATOM     36  H   UNL     1      -4.132   0.840  -7.831  0.00  0.00    +0.151 HD
ENDBRANCH  22  24
ENDBRANCH  19  20
ENDBRANCH   4  19
TORSDOF 5
