REMARK  Name = ZINC06819126
REMARK  7 active torsions:
REMARK  status: ('A' for Active; 'I' for Inactive)
REMARK    1  A    between atoms: C_1  and  C_2
REMARK    2  A    between atoms: C_2  and  C_3
REMARK    3  A    between atoms: C_2  and  C_4
REMARK    4  A    between atoms: C_7  and  N_10
REMARK    5  A    between atoms: C_17  and  C_27
REMARK    6  A    between atoms: C_24  and  O_25
REMARK    7  A    between atoms: O_25  and  C_26
REMARK                            x       y       z     vdW  Elec       q    Type
REMARK                         _______ _______ _______ _____ _____    ______ ____
ROOT
ATOM      1  N   UNL     1      -1.216  -0.721  -0.010  0.00  0.00    -0.216 N 
ATOM      2  C   UNL     1      -2.380  -0.064   0.110  0.00  0.00    +0.310 C 
ATOM      3  O   UNL     1      -2.367   1.152   0.119  0.00  0.00    -0.252 OA
ATOM      4  N   UNL     1      -3.559  -0.698   0.202  0.00  0.00    -0.292 N 
ATOM      5  C   UNL     1      -3.593  -2.168   0.274  0.00  0.00    +0.114 C 
ATOM      6  C   UNL     1      -2.494  -2.704  -0.647  0.00  0.00    +0.096 C 
ATOM      7  C   UNL     1      -1.156  -2.176  -0.110  0.00  0.00    +0.185 C 
ATOM      8  O   UNL     1      -0.919  -2.763   1.167  0.00  0.00    -0.464 OA
ATOM      9  C   UNL     1      -1.942  -2.820   2.060  0.00  0.00    +0.170 A 
ATOM     10  C   UNL     1      -3.249  -2.558   1.694  0.00  0.00    +0.018 A 
ATOM     11  C   UNL     1      -4.264  -2.640   2.631  0.00  0.00    +0.009 A 
ATOM     12  C   UNL     1      -3.977  -2.975   3.941  0.00  0.00    +0.004 A 
ATOM     13  C   UNL     1      -2.672  -3.232   4.318  0.00  0.00    +0.049 A 
ATOM     14  C   UNL     1      -1.654  -3.156   3.384  0.00  0.00    +0.162 A 
ATOM     15  C   UNL     1      -0.031  -2.574  -1.067  0.00  0.00    +0.079 C 
ATOM     16  H   UNL     1      -4.385  -0.190   0.228  0.00  0.00    +0.151 HD
ENDROOT
BRANCH   1  20
ATOM     17  C   UNL     1       2.336   1.456  -0.081  0.00  0.00    -0.045 A 
ATOM     18  C   UNL     1       1.875   0.926   1.110  0.00  0.00    +0.006 A 
ATOM     19  C   UNL     1       0.698   0.204   1.137  0.00  0.00    +0.024 A 
ATOM     20  C   UNL     1      -0.023   0.011  -0.034  0.00  0.00    +0.041 A 
ATOM     21  C   UNL     1       0.442   0.544  -1.228  0.00  0.00    +0.024 A 
ATOM     22  C   UNL     1       1.620   1.266  -1.249  0.00  0.00    +0.006 A 
BRANCH  17  24
ATOM     23  C   UNL     1       3.492   3.458   0.815  0.00  0.00    +0.012 C 
ATOM     24  C   UNL     1       3.620   2.244  -0.107  0.00  0.00    +0.013 C 
ATOM     25  C   UNL     1       4.771   1.358   0.373  0.00  0.00    +0.012 C 
ENDBRANCH  17  24
ENDBRANCH   1  20
BRANCH  14  26
ATOM     26  O   UNL     1      -0.370  -3.409   3.756  0.00  0.00    -0.491 OA
ATOM     27  C   UNL     1      -0.147  -3.746   5.127  0.00  0.00    +0.277 C 
ENDBRANCH  14  26
TORSDOF 3
