REMARK  Name = ZINC05086661
REMARK  3 active torsions:
REMARK  status: ('A' for Active; 'I' for Inactive)
REMARK    1  A    between atoms: C_1  and  C_2
REMARK    2  A    between atoms: C_1  and  O_6
REMARK    3  A    between atoms: C_1  and  O_7
REMARK                            x       y       z     vdW  Elec       q    Type
REMARK                         _______ _______ _______ _____ _____    ______ ____
ROOT
ATOM      1  C   UNL     1      -0.733   1.888   1.268  0.00  0.00    +0.352 C 
ENDROOT
BRANCH   1   2
ATOM      2  C   UNL     1      -0.017   1.395   0.010  0.00  0.00    +0.441 C 
ATOM      3  F   UNL     1       0.002  -0.004   0.002  0.00  0.00    -0.166 F 
ATOM      4  F   UNL     1       1.296   1.879  -0.000  0.00  0.00    -0.166 F 
ATOM      5  F   UNL     1      -0.694   1.858  -1.124  0.00  0.00    -0.166 F 
ENDBRANCH   1   2
BRANCH   1   6
ATOM      6  O   UNL     1      -0.042   1.415   2.426  0.00  0.00    -0.361 OA
ATOM      7  H   UNL     1      -0.441   1.690   3.263  0.00  0.00    +0.213 HD
ENDBRANCH   1   6
BRANCH   1   8
ATOM      8  O   UNL     1      -0.752   3.317   1.276  0.00  0.00    -0.361 OA
ATOM      9  H   UNL     1       0.126   3.722   1.270  0.00  0.00    +0.213 HD
ENDBRANCH   1   8
TORSDOF 3
