REMARK  Name = ZINC66327326
REMARK  5 active torsions:
REMARK  status: ('A' for Active; 'I' for Inactive)
REMARK    1  A    between atoms: C_1  and  C_2
REMARK    2  A    between atoms: C_2  and  C_4
REMARK    3  A    between atoms: C_2  and  N_13
REMARK    4  A    between atoms: C_22  and  O_26
REMARK    5  A    between atoms: O_26  and  C_27
REMARK                            x       y       z     vdW  Elec       q    Type
REMARK                         _______ _______ _______ _____ _____    ______ ____
ROOT
ATOM      1  N   UNL     1      -1.373  -0.510   0.013  0.00  0.00    -0.290 N 
ATOM      2  C   UNL     1      -2.051  -0.643  -1.145  0.00  0.00    +0.303 C 
ATOM      3  O   UNL     1      -1.556  -0.258  -2.187  0.00  0.00    -0.253 OA
ATOM      4  N   UNL     1      -3.277  -1.203  -1.147  0.00  0.00    -0.281 N 
ATOM      5  C   UNL     1      -3.996  -1.466  -2.405  0.00  0.00    +0.114 C 
ATOM      6  C   UNL     1      -4.167  -2.978  -2.540  0.00  0.00    +0.054 C 
ATOM      7  C   UNL     1      -4.678  -3.578  -1.257  0.00  0.00    -0.041 A 
ATOM      8  C   UNL     1      -5.284  -4.827  -1.327  0.00  0.00    +0.007 A 
ATOM      9  C   UNL     1      -5.766  -5.439  -0.190  0.00  0.00    +0.046 A 
ATOM     10  C   UNL     1      -5.646  -4.804   1.038  0.00  0.00    +0.120 A 
ATOM     11  C   UNL     1      -5.045  -3.558   1.108  0.00  0.00    +0.051 A 
ATOM     12  C   UNL     1      -4.566  -2.943  -0.040  0.00  0.00    -0.023 A 
ATOM     13  C   UNL     1      -3.946  -1.580   0.103  0.00  0.00    +0.144 C 
ATOM     14  H   UNL     1      -1.796  -0.749   0.852  0.00  0.00    +0.151 HD
ENDROOT
BRANCH   1  16
ATOM     15  C   UNL     1      -0.017   1.525   0.008  0.00  0.00    +0.036 C 
ATOM     16  C   UNL     1       0.002  -0.004   0.002  0.00  0.00    +0.137 C 
BRANCH  16  17
ATOM     17  C   UNL     1       0.730  -0.502   1.225  0.00  0.00    +0.126 A 
ATOM     18  C   UNL     1       2.003  -0.917   1.243  0.00  0.00    +0.055 A 
ATOM     19  C   UNL     1       2.287  -1.307   2.630  0.00  0.00    +0.020 A 
ATOM     20  C   UNL     1       3.405  -1.810   3.292  0.00  0.00    +0.011 A 
ATOM     21  C   UNL     1       3.337  -2.076   4.631  0.00  0.00    +0.001 A 
ATOM     22  C   UNL     1       2.163  -1.849   5.334  0.00  0.00    +0.004 A 
ATOM     23  C   UNL     1       1.047  -1.351   4.697  0.00  0.00    +0.047 A 
ATOM     24  C   UNL     1       1.095  -1.074   3.336  0.00  0.00    +0.135 A 
ATOM     25  O   UNL     1       0.196  -0.589   2.456  0.00  0.00    -0.458 OA
ENDBRANCH  16  17
ENDBRANCH   1  16
BRANCH  10  26
ATOM     26  O   UNL     1      -6.115  -5.401   2.165  0.00  0.00    -0.495 OA
ATOM     27  C   UNL     1      -6.722  -6.686   2.014  0.00  0.00    +0.277 C 
ENDBRANCH  10  26
TORSDOF 3
