REMARK  Name = ZINC67537194
REMARK  6 active torsions:
REMARK  status: ('A' for Active; 'I' for Inactive)
REMARK    1  A    between atoms: C_1  and  C_2
REMARK    2  A    between atoms: C_4  and  C_24
REMARK    3  A    between atoms: C_5  and  N_9
REMARK    4  A    between atoms: N_12  and  C_13
REMARK    5  A    between atoms: C_13  and  C_15
REMARK    6  A    between atoms: C_13  and  C_16
REMARK                            x       y       z     vdW  Elec       q    Type
REMARK                         _______ _______ _______ _____ _____    ______ ____
ROOT
ATOM      1  N   UNL     1       0.102  -4.130   0.007  0.00  0.00    -0.268 N 
ATOM      2  C   UNL     1       0.491  -4.825   1.095  0.00  0.00    +0.304 C 
ATOM      3  O   UNL     1       0.731  -4.243   2.135  0.00  0.00    -0.252 OA
ATOM      4  N   UNL     1       0.615  -6.166   1.029  0.00  0.00    -0.288 N 
ATOM      5  H   UNL     1      -0.138  -4.598  -0.807  0.00  0.00    +0.156 HD
ATOM      6  H   UNL     1       0.424  -6.630   0.199  0.00  0.00    +0.151 HD
ENDROOT
BRANCH   1  11
ATOM      7  C   UNL     1      -0.134   1.536   0.198  0.00  0.00    +0.044 C 
ATOM      8  C   UNL     1      -0.071   0.032   0.148  0.00  0.00    -0.049 A 
ATOM      9  C   UNL     1      -1.080  -0.681  -0.474  0.00  0.00    +0.008 A 
ATOM     10  C   UNL     1      -1.025  -2.060  -0.522  0.00  0.00    -0.028 A 
ATOM     11  C   UNL     1       0.044  -2.732   0.054  0.00  0.00    +0.056 A 
ATOM     12  C   UNL     1       1.057  -2.014   0.678  0.00  0.00    +0.063 A 
ATOM     13  C   UNL     1       0.999  -0.633   0.719  0.00  0.00    +0.025 A 
ATOM     14 CL   UNL     1       2.396  -2.849   1.401  0.00  0.00    -0.082 Cl
ATOM     15  C   UNL     1      -2.126  -2.835  -1.200  0.00  0.00    +0.046 C 
ENDBRANCH   1  11
BRANCH   4  16
ATOM     16  C   UNL     1       1.038  -6.921   2.210  0.00  0.00    +0.157 C 
ATOM     17  C   UNL     1      -0.180  -7.224   3.085  0.00  0.00    +0.038 C 
BRANCH  16  18
ATOM     18  C   UNL     1       1.679  -8.215   1.777  0.00  0.00    +0.236 C 
ATOM     19  O   UNL     1       1.368  -8.721   0.719  0.00  0.00    -0.274 OA
ATOM     20  N   UNL     1       2.597  -8.809   2.564  0.00  0.00    -0.300 N 
ATOM     21  C   UNL     1       2.898  -8.273   3.899  0.00  0.00    +0.108 C 
ATOM     22  C   UNL     1       2.744  -9.397   4.928  0.00  0.00    +0.019 C 
ATOM     23  C   UNL     1       3.617 -10.584   4.516  0.00  0.00    +0.003 C 
ATOM     24  C   UNL     1       3.156 -11.110   3.154  0.00  0.00    +0.019 C 
ATOM     25  C   UNL     1       3.311 -10.009   2.107  0.00  0.00    +0.108 C 
ENDBRANCH  16  18
ENDBRANCH   4  16
TORSDOF 3
