REMARK  Name = ZINC12202055
REMARK  7 active torsions:
REMARK  status: ('A' for Active; 'I' for Inactive)
REMARK    1  A    between atoms: C_1  and  C_2
REMARK    2  A    between atoms: C_2  and  O_3
REMARK    3  A    between atoms: O_3  and  C_4
REMARK    4  A    between atoms: C_6  and  N_32
REMARK    5  A    between atoms: C_20  and  C_22
REMARK    6  A    between atoms: C_25  and  C_31
REMARK    7  A    between atoms: C_33  and  C_35
REMARK                            x       y       z     vdW  Elec       q    Type
REMARK                         _______ _______ _______ _____ _____    ______ ____
ROOT
ATOM      1  C   UNL     1       5.160   4.963   0.561  0.00  0.00    +0.153 C 
ATOM      2  C   UNL     1       3.773   5.338  -0.004  0.00  0.00    +0.133 C 
ATOM      3  C   UNL     1       4.031   5.798  -1.423  0.00  0.00    -0.021 A 
ATOM      4  C   UNL     1       3.234   6.528  -2.289  0.00  0.00    +0.006 A 
ATOM      5  C   UNL     1       3.685   6.837  -3.557  0.00  0.00    +0.000 A 
ATOM      6  C   UNL     1       4.937   6.416  -3.965  0.00  0.00    +0.000 A 
ATOM      7  C   UNL     1       5.733   5.687  -3.104  0.00  0.00    +0.004 A 
ATOM      8  C   UNL     1       5.283   5.376  -1.832  0.00  0.00    -0.034 A 
ATOM      9  C   UNL     1       5.946   4.602  -0.717  0.00  0.00    +0.027 C 
ATOM     10  C   UNL     1       7.404   5.026  -0.569  0.00  0.00    +0.033 C 
ATOM     11  C   UNL     1       8.036   4.275   0.607  0.00  0.00    +0.109 C 
ATOM     12  N   UNL     1       7.830   2.833   0.413  0.00  0.00    -0.300 N 
ATOM     13  C   UNL     1       6.465   2.337   0.193  0.00  0.00    +0.109 C 
ATOM     14  C   UNL     1       5.846   3.102  -0.981  0.00  0.00    +0.033 C 
ATOM     15  C   UNL     1       8.874   1.982   0.436  0.00  0.00    +0.236 C 
ATOM     16  O   UNL     1       8.692   0.794   0.274  0.00  0.00    -0.274 OA
ENDROOT
BRANCH  15  17
ATOM     17  C   UNL     1      10.269   2.506   0.662  0.00  0.00    +0.160 C 
ATOM     18  C   UNL     1      10.819   3.079  -0.648  0.00  0.00    +0.053 C 
ATOM     19  C   UNL     1      12.276   3.499  -0.422  0.00  0.00    +0.071 C 
ATOM     20  N   UNL     1      13.033   2.354   0.084  0.00  0.00    -0.324 N 
ATOM     21  C   UNL     1      12.443   1.394   0.812  0.00  0.00    +0.131 C 
ATOM     22  S   UNL     1      13.396   0.092   1.383  0.00  0.00    -0.019 S 
ATOM     23  N   UNL     1      11.135   1.414   1.111  0.00  0.00    -0.315 N 
ATOM     24  C   UNL     1      12.328   4.638   0.598  0.00  0.00    +0.028 C 
ATOM     25  H   UNL     1      13.981   2.287  -0.110  0.00  0.00    +0.148 HD
ATOM     26  H   UNL     1      10.755   0.691   1.635  0.00  0.00    +0.148 HD
ENDBRANCH  15  17
BRANCH   2  27
ATOM     27  N   UNL     1       2.891   4.168  -0.003  0.00  0.00    -0.299 N 
ATOM     28  C   UNL     1       1.554   4.332   0.011  0.00  0.00    +0.280 C 
ATOM     29  O   UNL     1       1.078   5.452   0.022  0.00  0.00    -0.267 OA
ATOM     30  H   UNL     1       3.270   3.275  -0.011  0.00  0.00    +0.150 HD
BRANCH  28  31
ATOM     31  C   UNL     1       0.671   3.161   0.013  0.00  0.00    +0.189 A 
ATOM     32  C   UNL     1      -0.694   3.185   0.026  0.00  0.00    +0.054 A 
ATOM     33  C   UNL     1      -1.122   1.848   0.017  0.00  0.00    +0.042 A 
ATOM     34  C   UNL     1      -0.013   1.076   0.008  0.00  0.00    +0.196 A 
ATOM     35  O   UNL     1       1.065   1.871   0.002  0.00  0.00    -0.458 OA
ENDBRANCH  28  31
ENDBRANCH   2  27
BRANCH   1  36
ATOM     36  O   UNL     1       5.756   6.079   1.226  0.00  0.00    -0.374 OA
BRANCH  36  38
ATOM     37  C   UNL     1       6.153   7.371   3.229  0.00  0.00    +0.034 C 
ATOM     38  C   UNL     1       5.468   6.144   2.624  0.00  0.00    +0.157 C 
ENDBRANCH  36  38
ENDBRANCH   1  36
TORSDOF 5
