REMARK  Name = ZINC06874870
REMARK  14 active torsions:
REMARK  status: ('A' for Active; 'I' for Inactive)
REMARK    1  A    between atoms: C_1  and  C_2
REMARK    2  A    between atoms: C_2  and  C_3
REMARK    3  A    between atoms: C_3  and  N_4
REMARK    4  A    between atoms: C_12  and  O_31
REMARK    5  A    between atoms: C_13  and  O_29
REMARK    6  A    between atoms: C_16  and  C_18
REMARK    7  A    between atoms: C_18  and  C_20
REMARK    8  A    between atoms: C_18  and  N_22
REMARK    9  A    between atoms: C_20  and  C_21
REMARK   10  A    between atoms: N_25  and  C_26
REMARK   11  A    between atoms: C_26  and  C_27
REMARK   12  A    between atoms: C_26  and  C_28
REMARK   13  A    between atoms: O_29  and  C_30
REMARK   14  A    between atoms: O_31  and  C_32
REMARK                            x       y       z     vdW  Elec       q    Type
REMARK                         _______ _______ _______ _____ _____    ______ ____
ROOT
ATOM      1  N   UNL     1      -1.897   1.648   4.229  0.00  0.00    -0.299 N 
ATOM      2  C   UNL     1      -0.684   1.190   3.862  0.00  0.00    +0.303 C 
ATOM      3  O   UNL     1      -0.457   0.937   2.694  0.00  0.00    -0.253 OA
ATOM      4  N   UNL     1       0.278   1.012   4.789  0.00  0.00    -0.276 N 
ATOM      5  C   UNL     1       1.647   0.624   4.408  0.00  0.00    +0.114 C 
ATOM      6  C   UNL     1       1.923  -0.759   4.995  0.00  0.00    +0.054 C 
ATOM      7  C   UNL     1       1.514  -0.818   6.444  0.00  0.00    -0.037 A 
ATOM      8  C   UNL     1       2.071  -1.821   7.228  0.00  0.00    +0.053 A 
ATOM      9  C   UNL     1       1.734  -1.941   8.563  0.00  0.00    +0.162 A 
ATOM     10  C   UNL     1       0.826  -1.049   9.126  0.00  0.00    +0.162 A 
ATOM     11  C   UNL     1       0.276  -0.050   8.344  0.00  0.00    +0.055 A 
ATOM     12  C   UNL     1       0.623   0.069   7.005  0.00  0.00    -0.018 A 
ATOM     13  C   UNL     1       0.006   1.203   6.217  0.00  0.00    +0.128 C 
ATOM     14  H   UNL     1      -2.102   1.778   5.168  0.00  0.00    +0.150 HD
ENDROOT
BRANCH  10  15
ATOM     15  O   UNL     1       0.481  -1.159  10.437  0.00  0.00    -0.491 OA
ATOM     16  C   UNL     1      -0.457  -0.207  10.944  0.00  0.00    +0.277 C 
ENDBRANCH  10  15
BRANCH   9  17
ATOM     17  O   UNL     1       2.286  -2.925   9.322  0.00  0.00    -0.491 OA
ATOM     18  C   UNL     1       3.210  -3.802   8.675  0.00  0.00    +0.277 C 
ENDBRANCH   9  17
BRANCH   1  19
ATOM     19  C   UNL     1      -2.906   1.948   3.210  0.00  0.00    +0.105 C 
BRANCH  19  21
ATOM     20  C   UNL     1      -5.237   2.762   2.825  0.00  0.00    +0.005 C 
ATOM     21  C   UNL     1      -4.183   2.448   3.889  0.00  0.00    +0.015 C 
ENDBRANCH  19  21
ENDBRANCH   1  19
BRANCH  13  22
ATOM     22  C   UNL     1       0.607   2.533   6.677  0.00  0.00    +0.099 C 
BRANCH  22  23
ATOM     23  N   UNL     1       0.232   2.784   8.070  0.00  0.00    -0.294 N 
ATOM     24  C   UNL     1       1.141   3.274   8.936  0.00  0.00    +0.300 C 
ATOM     25  O   UNL     1       2.273   3.510   8.559  0.00  0.00    -0.253 OA
ATOM     26  N   UNL     1       0.795   3.505  10.218  0.00  0.00    -0.297 N 
ATOM     27  H   UNL     1      -0.672   2.596   8.370  0.00  0.00    +0.151 HD
ATOM     28  H   UNL     1      -0.108   3.317  10.518  0.00  0.00    +0.150 HD
BRANCH  26  29
ATOM     29  C   UNL     1       1.784   4.038  11.158  0.00  0.00    +0.068 C 
ATOM     30  C   UNL     1       1.821   5.564  11.048  0.00  0.00    +0.027 C 
ATOM     31  C   UNL     1       1.398   3.639  12.584  0.00  0.00    +0.027 C 
ENDBRANCH  26  29
ENDBRANCH  22  23
BRANCH  22  32
ATOM     32  C   UNL     1       0.076   3.665   5.794  0.00  0.00    +0.021 C 
ATOM     33  C   UNL     1       0.770   4.975   6.172  0.00  0.00    +0.006 C 
ENDBRANCH  22  32
ENDBRANCH  13  22
TORSDOF 8
