REMARK  Name = ZINC17242863
REMARK  9 active torsions:
REMARK  status: ('A' for Active; 'I' for Inactive)
REMARK    1  A    between atoms: C_1  and  C_2
REMARK    2  A    between atoms: C_2  and  C_33
REMARK    3  A    between atoms: C_5  and  C_30
REMARK    4  A    between atoms: C_6  and  N_13
REMARK    5  A    between atoms: C_9  and  C_11
REMARK    6  A    between atoms: C_9  and  C_12
REMARK    7  A    between atoms: C_14  and  C_16
REMARK    8  A    between atoms: C_19  and  C_22
REMARK    9  A    between atoms: C_22  and  C_24
REMARK                            x       y       z     vdW  Elec       q    Type
REMARK                         _______ _______ _______ _____ _____    ______ ____
ROOT
ATOM      1  C   UNL     1       0.841   1.659  -0.155  0.00  0.00    -0.010 C 
ATOM      2  C   UNL     1       0.574   0.142  -0.193  0.00  0.00    -0.069 C 
ATOM      3  C   UNL     1       1.463  -0.463  -1.286  0.00  0.00    +0.024 C 
ATOM      4  C   UNL     1       1.253  -1.968  -1.251  0.00  0.00    -0.026 A 
ATOM      5  C   UNL     1       1.347  -2.884  -2.366  0.00  0.00    +0.068 A 
ATOM      6  C   UNL     1       1.110  -4.227  -2.100  0.00  0.00    +0.085 A 
ATOM      7  S   UNL     1       0.780  -4.268  -0.454  0.00  0.00    -0.079 S 
ATOM      8  C   UNL     1       0.953  -2.551  -0.067  0.00  0.00    -0.016 A 
ATOM      9  C   UNL     1       0.820  -1.864   1.250  0.00  0.00    -0.041 C 
ATOM     10  N   UNL     1       0.871  -0.408   1.123  0.00  0.00    +0.389 N 
ATOM     11  C   UNL     1      -0.492  -2.293   1.922  0.00  0.00    -0.005 C 
ATOM     12  C   UNL     1       1.983  -2.320   2.152  0.00  0.00    -0.005 C 
ATOM     13  C   UNL     1      -0.897  -0.065  -0.560  0.00  0.00    -0.010 C 
ATOM     14  H   UNL     1       1.801  -0.090   1.404  0.00  0.00    -0.084 HD
ATOM     15  H   UNL     1       0.225   0.001   1.800  0.00  0.00    -0.084 HD
ENDROOT
BRANCH   5  16
ATOM     16  C   UNL     1       1.679  -2.428  -3.720  0.00  0.00    +0.244 C 
ATOM     17  O   UNL     1       2.841  -2.381  -4.079  0.00  0.00    -0.270 OA
ATOM     18  N   UNL     1       0.697  -2.061  -4.567  0.00  0.00    -0.325 N 
ATOM     19  H   UNL     1      -0.230  -2.098  -4.281  0.00  0.00    +0.145 HD
ATOM     20  H   UNL     1       0.916  -1.760  -5.463  0.00  0.00    +0.145 HD
ENDBRANCH   5  16
BRANCH   6  21
ATOM     21  N   UNL     1       1.141  -5.287  -2.990  0.00  0.00    -0.275 N 
ATOM     22  C   UNL     1       0.885  -6.538  -2.558  0.00  0.00    +0.249 C 
ATOM     23  O   UNL     1       0.626  -6.734  -1.387  0.00  0.00    -0.270 OA
ATOM     24  H   UNL     1       1.348  -5.130  -3.925  0.00  0.00    +0.156 HD
BRANCH  22  25
ATOM     25  C   UNL     1       0.918  -7.671  -3.509  0.00  0.00    +0.037 A 
ATOM     26  C   UNL     1       1.221  -7.446  -4.853  0.00  0.00    +0.014 A 
ATOM     27  C   UNL     1       1.252  -8.500  -5.738  0.00  0.00    +0.012 A 
ATOM     28  C   UNL     1       0.981  -9.796  -5.291  0.00  0.00    +0.022 A 
ATOM     29  C   UNL     1       0.678 -10.021  -3.946  0.00  0.00    +0.012 A 
ATOM     30  C   UNL     1       0.652  -8.966  -3.060  0.00  0.00    +0.014 A 
BRANCH  28  31
ATOM     31  C   UNL     1       1.014 -10.928  -6.242  0.00  0.00    +0.193 C 
ATOM     32  O   UNL     1       1.410 -10.757  -7.378  0.00  0.00    -0.287 OA
BRANCH  31  33
ATOM     33  C   UNL     1       0.566 -12.268  -5.810  0.00  0.00    +0.022 A 
ATOM     34  C   UNL     1      -0.480 -12.397  -4.893  0.00  0.00    +0.012 A 
ATOM     35  C   UNL     1      -0.893 -13.651  -4.495  0.00  0.00    +0.001 A 
ATOM     36  C   UNL     1      -0.273 -14.780  -5.001  0.00  0.00    +0.000 A 
ATOM     37  C   UNL     1       0.764 -14.660  -5.909  0.00  0.00    +0.001 A 
ATOM     38  C   UNL     1       1.183 -13.413  -6.321  0.00  0.00    +0.012 A 
ENDBRANCH  31  33
ENDBRANCH  28  31
ENDBRANCH  22  25
ENDBRANCH   6  21
TORSDOF 5
