REMARK  Name = ZINC08603496
REMARK  10 active torsions:
REMARK  status: ('A' for Active; 'I' for Inactive)
REMARK    1  A    between atoms: C_1  and  C_2
REMARK    2  A    between atoms: C_5  and  C_8
REMARK    3  A    between atoms: C_10  and  C_28
REMARK    4  A    between atoms: C_11  and  C_16
REMARK    5  A    between atoms: C_16  and  S_17
REMARK    6  A    between atoms: S_17  and  C_20
REMARK    7  A    between atoms: C_23  and  C_27
REMARK    8  A    between atoms: C_25  and  C_26
REMARK    9  A    between atoms: C_28  and  O_30
REMARK   10  A    between atoms: O_30  and  C_31
REMARK                            x       y       z     vdW  Elec       q    Type
REMARK                         _______ _______ _______ _____ _____    ______ ____
ROOT
ATOM      1  C   UNL     1       0.069  -4.217   0.024  0.00  0.00    +0.144 C 
ATOM      2  C   UNL     1       1.513  -4.647   0.183  0.00  0.00    +0.080 C 
ATOM      3  C   UNL     1       1.807  -5.506   1.182  0.00  0.00    +0.045 C 
ATOM      4  N   UNL     1       0.834  -5.972   2.020  0.00  0.00    -0.271 N 
ATOM      5  C   UNL     1      -0.456  -5.625   1.925  0.00  0.00    +0.304 C 
ATOM      6  O   UNL     1      -1.250  -6.092   2.719  0.00  0.00    -0.252 OA
ATOM      7  N   UNL     1      -0.902  -4.776   0.980  0.00  0.00    -0.288 N 
ATOM      8  H   UNL     1       1.092  -6.588   2.723  0.00  0.00    +0.156 HD
ATOM      9  H   UNL     1      -1.841  -4.538   0.930  0.00  0.00    +0.151 HD
ENDROOT
BRANCH   1  14
ATOM     10  C   UNL     1      -0.135   1.543   0.445  0.00  0.00    +0.044 C 
ATOM     11  C   UNL     1      -0.081   0.041   0.335  0.00  0.00    -0.050 A 
ATOM     12  C   UNL     1      -0.031  -0.560  -0.909  0.00  0.00    +0.004 A 
ATOM     13  C   UNL     1       0.018  -1.938  -1.010  0.00  0.00    +0.006 A 
ATOM     14  C   UNL     1       0.017  -2.715   0.134  0.00  0.00    -0.022 A 
ATOM     15  C   UNL     1      -0.033  -2.114   1.378  0.00  0.00    +0.006 A 
ATOM     16  C   UNL     1      -0.077  -0.736   1.478  0.00  0.00    +0.004 A 
ENDBRANCH   1  14
BRANCH   2  17
ATOM     17  C   UNL     1       2.520  -4.164  -0.686  0.00  0.00    +0.339 C 
ATOM     18  O   UNL     1       2.650  -4.649  -1.795  0.00  0.00    -0.245 OA
BRANCH  17  19
ATOM     19  O   UNL     1       3.336  -3.167  -0.286  0.00  0.00    -0.465 OA
ATOM     20  C   UNL     1       4.330  -2.729  -1.215  0.00  0.00    +0.280 C 
ENDBRANCH  17  19
ENDBRANCH   2  17
BRANCH   3  21
ATOM     21  C   UNL     1       3.231  -5.960   1.375  0.00  0.00    +0.223 C 
BRANCH  21  22
ATOM     22  S   UNL     1       3.942  -5.123   2.819  0.00  0.00    +0.002 S 
ATOM     23  O   UNL     1       4.088  -3.735   2.557  0.00  0.00    -0.169 OA
ATOM     24  O   UNL     1       3.305  -5.573   4.008  0.00  0.00    -0.169 OA
BRANCH  22  25
ATOM     25  C   UNL     1       5.590  -5.736   2.932  0.00  0.00    +0.091 A 
ATOM     26  C   UNL     1       6.660  -4.879   2.753  0.00  0.00    +0.027 A 
ATOM     27  C   UNL     1       7.952  -5.359   2.841  0.00  0.00    +0.005 A 
ATOM     28  C   UNL     1       8.176  -6.697   3.109  0.00  0.00    -0.050 A 
ATOM     29  C   UNL     1       7.106  -7.554   3.289  0.00  0.00    +0.008 A 
ATOM     30  C   UNL     1       5.813  -7.072   3.205  0.00  0.00    -0.025 A 
ATOM     31  C   UNL     1       4.647  -8.005   3.407  0.00  0.00    +0.046 C 
ATOM     32  C   UNL     1       9.585  -7.221   3.204  0.00  0.00    +0.044 C 
ENDBRANCH  22  25
ENDBRANCH  21  22
ENDBRANCH   3  21
TORSDOF 6
