REMARK  Name = ZINC62185386
REMARK  6 active torsions:
REMARK  status: ('A' for Active; 'I' for Inactive)
REMARK    1  A    between atoms: C_1  and  C_2
REMARK    2  A    between atoms: C_2  and  C_4
REMARK    3  A    between atoms: C_2  and  N_11
REMARK    4  A    between atoms: C_4  and  C_5
REMARK    5  A    between atoms: N_11  and  C_12
REMARK    6  A    between atoms: C_15  and  N_21
REMARK                            x       y       z     vdW  Elec       q    Type
REMARK                         _______ _______ _______ _____ _____    ______ ____
ROOT
ATOM      1  C   UNL     1      -0.019  -0.613  -2.401  0.00  0.00    +0.059 A 
ATOM      2  C   UNL     1      -1.342  -0.303  -2.454  0.00  0.00    +0.027 A 
ATOM      3  C   UNL     1      -2.092  -0.423  -3.626  0.00  0.00    +0.027 A 
ATOM      4  C   UNL     1      -1.553  -0.857  -4.796  0.00  0.00    +0.056 A 
ATOM      5  C   UNL     1      -0.133  -1.217  -4.848  0.00  0.00    +0.156 A 
ATOM      6  C   UNL     1       0.662  -1.085  -3.610  0.00  0.00    +0.157 A 
ATOM      7  N   UNL     1       1.893  -1.448  -3.876  0.00  0.00    -0.047 NA
ATOM      8  O   UNL     1       1.955  -1.813  -5.244  0.00  0.00    -0.241 OA
ATOM      9  N   UNL     1       0.659  -1.655  -5.796  0.00  0.00    -0.047 NA
ENDROOT
BRANCH   4  10
ATOM     10  N   UNL     1      -2.347  -0.960  -5.941  0.00  0.00    -0.356 N 
ATOM     11  H   UNL     1      -3.286  -0.721  -5.903  0.00  0.00    +0.142 HD
ATOM     12  H   UNL     1      -1.959  -1.270  -6.774  0.00  0.00    +0.142 HD
ENDBRANCH   4  10
BRANCH   1  13
ATOM     13  N   UNL     1       0.688  -0.476  -1.203  0.00  0.00    -0.339 N 
ATOM     14  H   UNL     1       1.632  -0.695  -1.170  0.00  0.00    +0.146 HD
BRANCH  13  16
ATOM     15  C   UNL     1      -0.019   1.526   0.010  0.00  0.00    +0.028 C 
ATOM     16  C   UNL     1       0.002  -0.004   0.002  0.00  0.00    +0.072 C 
BRANCH  16  17
ATOM     17  C   UNL     1       0.742  -0.511   1.242  0.00  0.00    +0.057 C 
BRANCH  17  18
ATOM     18  C   UNL     1       0.657  -2.014   1.298  0.00  0.00    -0.046 A 
ATOM     19  C   UNL     1      -0.396  -2.623   1.955  0.00  0.00    +0.004 A 
ATOM     20  C   UNL     1      -0.474  -4.002   2.007  0.00  0.00    +0.000 A 
ATOM     21  C   UNL     1       0.500  -4.773   1.401  0.00  0.00    +0.000 A 
ATOM     22  C   UNL     1       1.552  -4.164   0.742  0.00  0.00    +0.000 A 
ATOM     23  C   UNL     1       1.628  -2.785   0.687  0.00  0.00    +0.004 A 
ENDBRANCH  17  18
ENDBRANCH  16  17
ENDBRANCH  13  16
ENDBRANCH   1  13
TORSDOF 5
