REMARK  Name = ZINC07702448
REMARK  6 active torsions:
REMARK  status: ('A' for Active; 'I' for Inactive)
REMARK    1  A    between atoms: C_1  and  C_2
REMARK    2  A    between atoms: C_5  and  C_8
REMARK    3  A    between atoms: C_8  and  C_10
REMARK    4  A    between atoms: C_8  and  N_15
REMARK    5  A    between atoms: N_15  and  S_16
REMARK    6  A    between atoms: S_16  and  C_19
REMARK                            x       y       z     vdW  Elec       q    Type
REMARK                         _______ _______ _______ _____ _____    ______ ____
ROOT
ATOM      1  N   UNL     1       4.295   2.583  -1.606  0.00  0.00    -0.178 NA
ATOM      2  H   UNL     1       5.098   2.182  -1.974  0.00  0.00    +0.149 HD
ENDROOT
BRANCH   1   3
ATOM      3  S   UNL     1       3.891   2.322  -0.021  0.00  0.00    +0.059 S 
ATOM      4  O   UNL     1       3.602   3.595   0.539  0.00  0.00    -0.153 OA
ATOM      5  O   UNL     1       4.886   1.462   0.515  0.00  0.00    -0.153 OA
BRANCH   3   6
ATOM      6  C   UNL     1       2.381   1.413  -0.012  0.00  0.00    +0.107 A 
ATOM      7  C   UNL     1       1.172   2.086   0.002  0.00  0.00    +0.030 A 
ATOM      8  C   UNL     1      -0.017   1.382   0.010  0.00  0.00    +0.030 A 
ATOM      9  C   UNL     1       0.002  -0.004   0.002  0.00  0.00    +0.067 A 
ATOM     10  C   UNL     1       1.222  -0.683  -0.013  0.00  0.00    +0.069 A 
ATOM     11  C   UNL     1       2.410   0.032  -0.020  0.00  0.00    +0.056 A 
ATOM     12  N   UNL     1       0.926  -2.044  -0.018  0.00  0.00    -0.306 N 
ATOM     13  H   UNL     1       1.573  -2.766  -0.028  0.00  0.00    +0.170 HD
ATOM     14  C   UNL     1      -0.413  -2.186  -0.006  0.00  0.00    +0.325 A 
ATOM     15  O   UNL     1      -1.005  -3.250  -0.006  0.00  0.00    -0.247 OA
ATOM     16  N   UNL     1      -0.998  -0.974   0.006  0.00  0.00    -0.306 N 
ATOM     17  H   UNL     1      -1.953  -0.804   0.016  0.00  0.00    +0.170 HD
ENDBRANCH   3   6
ENDBRANCH   1   3
BRANCH   1  18
ATOM     18  C   UNL     1       3.441   3.421  -2.451  0.00  0.00    +0.143 C 
BRANCH  18  23
ATOM     19  C   UNL     1       3.435   1.341  -7.843  0.00  0.00    +0.044 C 
ATOM     20  C   UNL     1       3.437   1.883  -6.437  0.00  0.00    -0.050 A 
ATOM     21  C   UNL     1       2.265   2.361  -5.879  0.00  0.00    +0.004 A 
ATOM     22  C   UNL     1       2.267   2.859  -4.589  0.00  0.00    +0.006 A 
ATOM     23  C   UNL     1       3.439   2.878  -3.857  0.00  0.00    -0.024 A 
ATOM     24  C   UNL     1       4.612   2.406  -4.417  0.00  0.00    +0.006 A 
ATOM     25  C   UNL     1       4.609   1.904  -5.705  0.00  0.00    +0.004 A 
ENDBRANCH  18  23
BRANCH  18  26
ATOM     26  C   UNL     1       3.969   4.832  -2.458  0.00  0.00    +0.013 A 
ATOM     27  C   UNL     1       3.284   6.001  -2.418  0.00  0.00    +0.013 A 
ATOM     28  C   UNL     1       3.986   7.191  -2.433  0.00  0.00    +0.008 A 
ATOM     29  C   UNL     1       5.340   7.155  -2.488  0.00  0.00    +0.045 A 
ATOM     30  S   UNL     1       5.662   5.399  -2.512  0.00  0.00    -0.100 S 
ENDBRANCH  18  26
ENDBRANCH   1  18
TORSDOF 5
