REMARK  Name = ZINC22853306
REMARK  6 active torsions:
REMARK  status: ('A' for Active; 'I' for Inactive)
REMARK    1  A    between atoms: C_1  and  C_2
REMARK    2  A    between atoms: C_2  and  C_3
REMARK    3  A    between atoms: C_9  and  C_11
REMARK    4  A    between atoms: C_11  and  C_13
REMARK    5  A    between atoms: C_11  and  N_20
REMARK    6  A    between atoms: C_23  and  C_26
REMARK                            x       y       z     vdW  Elec       q    Type
REMARK                         _______ _______ _______ _____ _____    ______ ____
ROOT
ATOM      1  C   UNL     1      -0.013   1.086   0.008  0.00  0.00    +0.006 C 
ENDROOT
BRANCH   1   8
ATOM      2  C   UNL     1      -3.160   2.334  -4.900  0.00  0.00    +0.152 A 
ATOM      3  N   UNL     1      -2.471   3.326  -4.340  0.00  0.00    -0.205 NA
ATOM      4  C   UNL     1      -1.848   2.876  -3.285  0.00  0.00    +0.199 A 
ATOM      5  N   UNL     1      -2.119   1.552  -3.125  0.00  0.00    -0.170 N 
ATOM      6  N   UNL     1      -2.983   1.242  -4.207  0.00  0.00    -0.146 NA
ATOM      7  C   UNL     1      -1.534   0.914  -2.057  0.00  0.00    +0.282 A 
ATOM      8  C   UNL     1      -0.742   1.585  -1.213  0.00  0.00    +0.050 A 
ATOM      9  S   UNL     1      -0.768   3.226  -1.918  0.00  0.00    -0.050 S 
ATOM     10  O   UNL     1      -1.766  -0.411  -1.854  0.00  0.00    -0.265 OA
BRANCH   2  12
ATOM     11  C   UNL     1      -3.158   2.162  -7.373  0.00  0.00    +0.012 C 
ATOM     12  C   UNL     1      -4.012   2.454  -6.138  0.00  0.00    +0.075 C 
ENDBRANCH   2  12
ENDBRANCH   1   8
BRANCH   1  13
ATOM     13  N   UNL     1       1.365   1.594  -0.002  0.00  0.00    +0.387 N 
ATOM     14  C   UNL     1       2.040   1.313   1.271  0.00  0.00    -0.077 C 
ATOM     15  C   UNL     1       3.417   1.981   1.280  0.00  0.00    -0.015 C 
ATOM     16  C   UNL     1       4.247   1.442   0.111  0.00  0.00    -0.018 C 
ATOM     17  C   UNL     1       3.500   1.705  -1.199  0.00  0.00    -0.015 C 
ATOM     18  C   UNL     1       2.121   1.045  -1.136  0.00  0.00    -0.077 C 
ATOM     19  C   UNL     1       5.603   2.151   0.078  0.00  0.00    +0.007 C 
ATOM     20  H   UNL     1       1.323   2.687  -0.126  0.00  0.00    -0.080 HD
ENDBRANCH   1  13
BRANCH   1  21
ATOM     21  C   UNL     1      -0.718   1.572   1.248  0.00  0.00    -0.053 A 
ATOM     22  C   UNL     1      -0.510   2.862   1.700  0.00  0.00    +0.002 A 
ATOM     23  C   UNL     1      -1.161   3.311   2.835  0.00  0.00    +0.003 A 
ATOM     24  C   UNL     1      -2.011   2.466   3.524  0.00  0.00    +0.038 A 
ATOM     25  C   UNL     1      -2.215   1.173   3.075  0.00  0.00    +0.124 A 
ATOM     26  C   UNL     1      -1.568   0.726   1.935  0.00  0.00    +0.040 A 
ATOM     27  F   UNL     1      -3.046   0.347   3.748  0.00  0.00    -0.205 F 
ENDBRANCH   1  21
TORSDOF 4
