REMARK  Name = ZINC44161577
REMARK  8 active torsions:
REMARK  status: ('A' for Active; 'I' for Inactive)
REMARK    1  A    between atoms: C_1  and  C_2
REMARK    2  A    between atoms: C_7  and  N_8
REMARK    3  A    between atoms: C_11  and  C_14
REMARK    4  A    between atoms: C_16  and  C_27
REMARK    5  A    between atoms: C_17  and  C_26
REMARK    6  A    between atoms: N_18  and  C_19
REMARK    7  A    between atoms: C_19  and  C_20
REMARK    8  A    between atoms: C_20  and  C_21
REMARK                            x       y       z     vdW  Elec       q    Type
REMARK                         _______ _______ _______ _____ _____    ______ ____
ROOT
ATOM      1  C   UNL     1      -0.328  -0.543   7.260  0.00  0.00    +0.069 A 
ATOM      2  C   UNL     1      -0.488   0.764   7.591  0.00  0.00    +0.042 A 
ATOM      3  C   UNL     1      -0.595   0.826   9.005  0.00  0.00    +0.058 A 
ATOM      4  C   UNL     1      -0.493  -0.466   9.473  0.00  0.00    +0.028 A 
ATOM      5  N   UNL     1      -0.337  -1.288   8.413  0.00  0.00    -0.342 N 
ATOM      6  C   UNL     1      -0.551  -0.890  10.918  0.00  0.00    +0.064 C 
ENDROOT
BRANCH   1  10
ATOM      7  N   UNL     1      -0.297  -0.055   2.400  0.00  0.00    -0.294 N 
ATOM      8  C   UNL     1      -0.184  -0.732   3.604  0.00  0.00    +0.163 A 
ATOM      9  N   UNL     1      -0.318  -0.273   4.835  0.00  0.00    -0.223 NA
ATOM     10  C   UNL     1      -0.175  -1.075   5.888  0.00  0.00    +0.097 A 
ATOM     11  C   UNL     1       0.116  -2.396   5.687  0.00  0.00    +0.078 A 
ATOM     12  S   UNL     1       0.172  -2.458   3.901  0.00  0.00    -0.060 S 
ATOM     13  H   UNL     1      -0.607   0.864   2.387  0.00  0.00    +0.154 HD
BRANCH   7  20
ATOM     14  C   UNL     1      -1.656   0.734   0.028  0.00  0.00    +0.045 C 
ATOM     15  C   UNL     1      -0.602  -0.343   0.022  0.00  0.00    -0.029 A 
ATOM     16  C   UNL     1      -0.266  -0.975  -1.159  0.00  0.00    +0.005 A 
ATOM     17  C   UNL     1       0.700  -1.964  -1.165  0.00  0.00    +0.000 A 
ATOM     18  C   UNL     1       1.334  -2.323   0.011  0.00  0.00    +0.002 A 
ATOM     19  C   UNL     1       1.003  -1.695   1.195  0.00  0.00    +0.023 A 
ATOM     20  C   UNL     1       0.036  -0.697   1.204  0.00  0.00    +0.036 A 
ENDBRANCH   7  20
ENDBRANCH   1  10
BRANCH   3  21
ATOM     21  C   UNL     1      -0.780   2.040   9.818  0.00  0.00    +0.243 C 
ATOM     22  O   UNL     1      -0.857   1.955  11.029  0.00  0.00    -0.270 OA
ATOM     23  N   UNL     1      -0.863   3.245   9.221  0.00  0.00    -0.325 N 
ATOM     24  H   UNL     1      -0.802   3.313   8.255  0.00  0.00    +0.145 HD
ATOM     25  H   UNL     1      -0.985   4.045   9.756  0.00  0.00    +0.145 HD
ENDBRANCH   3  21
BRANCH   5  26
ATOM     26  C   UNL     1      -0.197  -2.744   8.483  0.00  0.00    +0.127 C 
BRANCH  26  27
ATOM     27  C   UNL     1       1.287  -3.115   8.452  0.00  0.00    +0.064 C 
BRANCH  27  28
ATOM     28  C   UNL     1       1.432  -4.614   8.524  0.00  0.00    -0.009 A 
ATOM     29  C   UNL     1       1.484  -5.516   7.513  0.00  0.00    +0.011 A 
ATOM     30  C   UNL     1       1.622  -6.857   7.818  0.00  0.00    +0.008 A 
ATOM     31  C   UNL     1       1.702  -7.230   9.119  0.00  0.00    +0.045 A 
ATOM     32  S   UNL     1       1.587  -5.660   9.961  0.00  0.00    -0.102 S 
ENDBRANCH  27  28
ENDBRANCH  26  27
ENDBRANCH   5  26
TORSDOF 6
