REMARK  Name = ZINC11259562
REMARK  12 active torsions:
REMARK  status: ('A' for Active; 'I' for Inactive)
REMARK    1  A    between atoms: C_1  and  C_2
REMARK    2  A    between atoms: C_2  and  C_4
REMARK    3  A    between atoms: C_2  and  O_13
REMARK    4  A    between atoms: N_9  and  C_10
REMARK    5  A    between atoms: C_10  and  C_11
REMARK    6  A    between atoms: C_10  and  C_12
REMARK    7  A    between atoms: O_13  and  C_14
REMARK    8  A    between atoms: C_14  and  C_16
REMARK    9  A    between atoms: C_18  and  C_28
REMARK   10  A    between atoms: N_24  and  C_25
REMARK   11  A    between atoms: C_25  and  C_26
REMARK   12  A    between atoms: C_25  and  C_27
REMARK                            x       y       z     vdW  Elec       q    Type
REMARK                         _______ _______ _______ _____ _____    ______ ____
ROOT
ATOM      1  C   UNL     1       2.803  -1.150   2.201  0.00  0.00    +0.073 A 
ATOM      2  C   UNL     1       2.186  -1.430   3.416  0.00  0.00    +0.044 A 
ATOM      3  C   UNL     1       2.960  -1.891   4.486  0.00  0.00    +0.074 A 
ATOM      4  N   UNL     1       4.266  -2.065   4.367  0.00  0.00    -0.228 NA
ATOM      5  C   UNL     1       4.906  -1.814   3.235  0.00  0.00    +0.160 A 
ATOM      6  C   UNL     1       4.200  -1.353   2.105  0.00  0.00    +0.053 A 
ATOM      7  C   UNL     1       5.140  -1.187   1.067  0.00  0.00    +0.145 A 
ATOM      8  N   UNL     1       6.317  -1.521   1.515  0.00  0.00    -0.177 NA
ATOM      9  N   UNL     1       6.220  -1.908   2.857  0.00  0.00    -0.244 N 
ENDROOT
BRANCH   3  10
ATOM     10  C   UNL     1       2.303  -2.189   5.780  0.00  0.00    +0.004 A 
ATOM     11  C   UNL     1       0.926  -2.017   5.922  0.00  0.00    +0.014 A 
ATOM     12  C   UNL     1       0.317  -2.293   7.127  0.00  0.00    +0.050 A 
ATOM     13  C   UNL     1       1.070  -2.745   8.204  0.00  0.00    +0.162 A 
ATOM     14  C   UNL     1       2.443  -2.922   8.067  0.00  0.00    +0.163 A 
ATOM     15  C   UNL     1       3.058  -2.649   6.858  0.00  0.00    +0.059 A 
ATOM     16  O   UNL     1       3.194  -3.372   9.110  0.00  0.00    -0.485 OA
ATOM     17  C   UNL     1       2.605  -3.286  10.412  0.00  0.00    +0.270 C 
ATOM     18  C   UNL     1       1.168  -3.816  10.325  0.00  0.00    +0.270 C 
ATOM     19  O   UNL     1       0.449  -3.009   9.385  0.00  0.00    -0.485 OA
ENDBRANCH   3  10
BRANCH   9  20
ATOM     20  C   UNL     1       7.329  -2.353   3.705  0.00  0.00    +0.103 C 
ATOM     21  C   UNL     1       7.983  -3.589   3.083  0.00  0.00    +0.032 C 
ATOM     22  C   UNL     1       8.364  -1.232   3.821  0.00  0.00    +0.032 C 
ENDBRANCH   9  20
BRANCH   1  23
ATOM     23  C   UNL     1       2.023  -0.663   1.045  0.00  0.00    +0.341 C 
ATOM     24  O   UNL     1       2.580  -0.429  -0.008  0.00  0.00    -0.245 OA
BRANCH  23  25
ATOM     25  O   UNL     1       0.693  -0.477   1.160  0.00  0.00    -0.449 OA
BRANCH  25  27
ATOM     26  C   UNL     1      -0.019   1.526   0.010  0.00  0.00    +0.062 C 
ATOM     27  C   UNL     1       0.002  -0.004   0.002  0.00  0.00    +0.259 C 
BRANCH  27  28
ATOM     28  C   UNL     1      -1.412  -0.526   0.013  0.00  0.00    +0.261 C 
ATOM     29  O   UNL     1      -1.818  -1.157   0.965  0.00  0.00    -0.271 OA
ATOM     30  N   UNL     1      -2.225  -0.290  -1.036  0.00  0.00    -0.237 N 
ATOM     31  C   UNL     1      -3.489  -0.757  -1.027  0.00  0.00    +0.306 C 
ATOM     32  O   UNL     1      -3.896  -1.390  -0.072  0.00  0.00    -0.252 OA
ATOM     33  N   UNL     1      -4.302  -0.522  -2.075  0.00  0.00    -0.297 N 
ATOM     34  H   UNL     1      -1.900   0.215  -1.798  0.00  0.00    +0.159 HD
ATOM     35  H   UNL     1      -3.977  -0.017  -2.837  0.00  0.00    +0.151 HD
BRANCH  33  36
ATOM     36  C   UNL     1      -5.677  -1.029  -2.065  0.00  0.00    +0.068 C 
ATOM     37  C   UNL     1      -6.580  -0.037  -1.330  0.00  0.00    +0.027 C 
ATOM     38  C   UNL     1      -6.169  -1.198  -3.504  0.00  0.00    +0.027 C 
ENDBRANCH  33  36
ENDBRANCH  27  28
ENDBRANCH  25  27
ENDBRANCH  23  25
ENDBRANCH   1  23
TORSDOF 7
