REMARK  Name = ZINC37137966
REMARK  10 active torsions:
REMARK  status: ('A' for Active; 'I' for Inactive)
REMARK    1  A    between atoms: C_1  and  C_2
REMARK    2  A    between atoms: C_2  and  C_4
REMARK    3  A    between atoms: C_2  and  N_9
REMARK    4  A    between atoms: C_4  and  C_5
REMARK    5  A    between atoms: C_5  and  C_6
REMARK    6  A    between atoms: C_6  and  C_7
REMARK    7  A    between atoms: C_6  and  C_8
REMARK    8  A    between atoms: N_9  and  C_10
REMARK    9  A    between atoms: C_13  and  S_17
REMARK   10  A    between atoms: S_17  and  N_20
REMARK                            x       y       z     vdW  Elec       q    Type
REMARK                         _______ _______ _______ _____ _____    ______ ____
ROOT
ATOM      1  C   UNL     1      -2.076  -0.648  -1.187  0.00  0.00    +0.042 A 
ATOM      2  C   UNL     1      -1.472  -0.308  -2.391  0.00  0.00    +0.026 A 
ATOM      3  C   UNL     1      -2.169  -0.445  -3.575  0.00  0.00    +0.030 A 
ATOM      4  C   UNL     1      -3.469  -0.919  -3.563  0.00  0.00    +0.106 A 
ATOM      5  C   UNL     1      -4.074  -1.257  -2.367  0.00  0.00    +0.045 A 
ATOM      6  C   UNL     1      -3.380  -1.128  -1.179  0.00  0.00    +0.041 A 
ATOM      7 BR   UNL     1      -4.205  -1.599   0.456  0.00  0.00    -0.048 Br
ENDROOT
BRANCH   4   8
ATOM      8  S   UNL     1      -4.355  -1.090  -5.076  0.00  0.00    +0.056 S 
ATOM      9  O   UNL     1      -5.736  -1.037  -4.746  0.00  0.00    -0.153 OA
ATOM     10  O   UNL     1      -3.758  -0.192  -6.001  0.00  0.00    -0.153 OA
BRANCH   8  11
ATOM     11  N   UNL     1      -4.063  -2.618  -5.644  0.00  0.00    -0.204 NA
ATOM     12  H   UNL     1      -4.734  -3.075  -6.176  0.00  0.00    +0.144 HD
ATOM     13  H   UNL     1      -3.221  -3.057  -5.446  0.00  0.00    +0.144 HD
ENDBRANCH   8  11
ENDBRANCH   4   8
BRANCH   1  14
ATOM     14  N   UNL     1      -1.372  -0.511   0.012  0.00  0.00    -0.340 N 
ATOM     15  H   UNL     1      -1.794  -0.752   0.852  0.00  0.00    +0.146 HD
BRANCH  14  17
ATOM     16  C   UNL     1      -0.019   1.526   0.010  0.00  0.00    +0.028 C 
ATOM     17  C   UNL     1       0.002  -0.004   0.002  0.00  0.00    +0.067 C 
BRANCH  17  18
ATOM     18  C   UNL     1       0.742  -0.511   1.242  0.00  0.00    +0.022 C 
BRANCH  18  19
ATOM     19  C   UNL     1       0.872  -2.034   1.171  0.00  0.00    +0.005 C 
BRANCH  19  20
ATOM     20  C   UNL     1       1.612  -2.541   2.410  0.00  0.00    -0.017 C 
ATOM     21  C   UNL     1       1.633  -4.070   2.402  0.00  0.00    +0.007 C 
ATOM     22  C   UNL     1       3.047  -2.011   2.400  0.00  0.00    +0.007 C 
ENDBRANCH  19  20
ENDBRANCH  18  19
ENDBRANCH  17  18
ENDBRANCH  14  17
ENDBRANCH   1  14
TORSDOF 7
