REMARK  Name = ZINC09422256
REMARK  15 active torsions:
REMARK  status: ('A' for Active; 'I' for Inactive)
REMARK    1  A    between atoms: C_1  and  C_2
REMARK    2  A    between atoms: C_2  and  C_3
REMARK    3  A    between atoms: C_2  and  C_4
REMARK    4  A    between atoms: C_4  and  N_68
REMARK    5  A    between atoms: C_5  and  C_6
REMARK    6  A    between atoms: C_5  and  N_68
REMARK    7  A    between atoms: C_7  and  O_29
REMARK    8  A    between atoms: C_14  and  C_15
REMARK    9  A    between atoms: N_17  and  C_26
REMARK   10  A    between atoms: C_21  and  O_24
REMARK   11  A    between atoms: O_24  and  C_25
REMARK   12  A    between atoms: C_30  and  C_31
REMARK   13  A    between atoms: C_30  and  N_68
REMARK   14  A    between atoms: C_31  and  C_32
REMARK   15  A    between atoms: C_31  and  C_33
REMARK                            x       y       z     vdW  Elec       q    Type
REMARK                         _______ _______ _______ _____ _____    ______ ____
ROOT
ATOM      1  C   UNL     1       1.622   1.018   3.158  0.00  0.00    +0.020 A 
ATOM      2  C   UNL     1       2.257   2.156   3.629  0.00  0.00    +0.122 A 
ATOM      3  C   UNL     1       2.618   2.261   4.970  0.00  0.00    +0.046 A 
ATOM      4  C   UNL     1       2.361   1.234   5.834  0.00  0.00    +0.019 A 
ATOM      5  C   UNL     1       1.728   0.081   5.372  0.00  0.00    +0.068 A 
ATOM      6  C   UNL     1       1.353  -0.033   4.023  0.00  0.00    +0.144 A 
ATOM      7  O   UNL     1       0.764  -1.233   3.835  0.00  0.00    -0.451 OA
ATOM      8  C   UNL     1       0.716  -1.947   4.985  0.00  0.00    +0.176 C 
ATOM      9  C   UNL     1       0.185  -3.194   5.127  0.00  0.00    +0.060 C 
ATOM     10  C   UNL     1       1.312  -1.177   6.018  0.00  0.00    +0.231 C 
ATOM     11  O   UNL     1       1.451  -1.489   7.189  0.00  0.00    -0.283 OA
ENDROOT
BRANCH   9  12
ATOM     12  C   UNL     1       0.066  -3.791   6.455  0.00  0.00    +0.004 A 
ATOM     13  C   UNL     1      -0.297  -3.150   7.620  0.00  0.00    +0.094 A 
ATOM     14  N   UNL     1      -0.296  -4.037   8.644  0.00  0.00    -0.349 N 
ATOM     15  C   UNL     1       0.075  -5.291   8.198  0.00  0.00    +0.050 A 
ATOM     16  C   UNL     1       0.318  -5.199   6.819  0.00  0.00    +0.011 A 
ATOM     17  C   UNL     1       0.712  -6.324   6.100  0.00  0.00    +0.056 A 
ATOM     18  C   UNL     1       0.864  -7.534   6.753  0.00  0.00    +0.121 A 
ATOM     19  C   UNL     1       0.622  -7.625   8.120  0.00  0.00    +0.047 A 
ATOM     20  C   UNL     1       0.232  -6.516   8.839  0.00  0.00    +0.030 A 
ATOM     21  C   UNL     1      -0.636  -3.712  10.032  0.00  0.00    +0.149 C 
BRANCH  18  22
ATOM     22  O   UNL     1       1.249  -8.636   6.057  0.00  0.00    -0.495 OA
ATOM     23  C   UNL     1       1.386  -9.853   6.794  0.00  0.00    +0.277 C 
ENDBRANCH  18  22
ENDBRANCH   9  12
BRANCH   2  24
ATOM     24  O   UNL     1       2.524   3.180   2.778  0.00  0.00    -0.506 OA
ATOM     25  H   UNL     1       1.855   3.877   2.780  0.00  0.00    +0.292 HD
ENDBRANCH   2  24
BRANCH   1  26
ATOM     26  C   UNL     1       1.230   0.920   1.706  0.00  0.00    -0.036 C 
BRANCH  26  27
ATOM     27  N   UNL     1      -0.230   1.120   1.595  0.00  0.00    +0.383 N 
ATOM     28  H   UNL     1      -0.699   0.568   2.323  0.00  0.00    -0.081 HD
BRANCH  27  29
ATOM     29  C   UNL     1      -0.702   0.665   0.270  0.00  0.00    -0.075 C 
BRANCH  29  31
ATOM     30  C   UNL     1      -1.839  -1.323   1.269  0.00  0.00    +0.005 C 
ATOM     31  C   UNL     1      -0.773  -0.863   0.272  0.00  0.00    -0.034 C 
ATOM     32  C   UNL     1      -1.137  -1.359  -1.129  0.00  0.00    +0.005 C 
ENDBRANCH  29  31
ENDBRANCH  27  29
BRANCH  27  33
ATOM     33  C   UNL     1      -0.561   2.547   1.786  0.00  0.00    -0.075 C 
BRANCH  33  34
ATOM     34  C   UNL     1      -0.726   2.813   3.284  0.00  0.00    -0.034 C 
ATOM     35  C   UNL     1      -0.960   4.307   3.514  0.00  0.00    +0.005 C 
ATOM     36  C   UNL     1      -1.923   2.021   3.814  0.00  0.00    +0.005 C 
ENDBRANCH  33  34
ENDBRANCH  27  33
ENDBRANCH  26  27
ENDBRANCH   1  26
TORSDOF 9
