REMARK  Name = ZINC59108784
REMARK  10 active torsions:
REMARK  status: ('A' for Active; 'I' for Inactive)
REMARK    1  A    between atoms: C_1  and  O_2
REMARK    2  A    between atoms: O_2  and  C_3
REMARK    3  A    between atoms: C_6  and  N_9
REMARK    4  A    between atoms: C_12  and  C_25
REMARK    5  A    between atoms: N_14  and  N_17
REMARK    6  A    between atoms: C_18  and  C_20
REMARK    7  A    between atoms: C_25  and  C_26
REMARK    8  A    between atoms: N_28  and  C_29
REMARK    9  A    between atoms: C_29  and  C_30
REMARK   10  A    between atoms: C_30  and  C_31
REMARK                            x       y       z     vdW  Elec       q    Type
REMARK                         _______ _______ _______ _____ _____    ______ ____
ROOT
ATOM      1  N   UNL     1       2.540  -2.504   4.233  0.00  0.00    -0.219 N 
ATOM      2  C   UNL     1       2.570  -3.839   4.416  0.00  0.00    +0.248 C 
ATOM      3  O   UNL     1       2.064  -4.686   3.712  0.00  0.00    -0.273 OA
ATOM      4  C   UNL     1       3.367  -4.061   5.686  0.00  0.00    +0.191 C 
ATOM      5  N   UNL     1       3.728  -2.697   6.111  0.00  0.00    -0.218 N 
ATOM      6  C   UNL     1       3.205  -1.859   5.198  0.00  0.00    +0.164 C 
ATOM      7  S   UNL     1       3.369  -0.156   5.266  0.00  0.00    -0.016 S 
ENDROOT
BRANCH   1  11
ATOM      8  C   UNL     1       0.625  -0.619   1.042  0.00  0.00    +0.120 A 
ATOM      9  C   UNL     1       2.009  -0.590   1.135  0.00  0.00    +0.047 A 
ATOM     10  C   UNL     1       2.643  -1.214   2.192  0.00  0.00    +0.027 A 
ATOM     11  C   UNL     1       1.896  -1.870   3.160  0.00  0.00    +0.043 A 
ATOM     12  C   UNL     1       0.511  -1.899   3.066  0.00  0.00    +0.027 A 
ATOM     13  C   UNL     1      -0.122  -1.271   2.012  0.00  0.00    +0.047 A 
BRANCH   8  15
ATOM     14  C   UNL     1       0.833   0.646  -0.961  0.00  0.00    +0.277 C 
ATOM     15  O   UNL     1       0.001  -0.005   0.002  0.00  0.00    -0.495 OA
ENDBRANCH   8  15
ENDBRANCH   1  11
BRANCH   5  16
ATOM     16  N   UNL     1       4.475  -2.343   7.242  0.00  0.00    -0.227 N 
ATOM     17  C   UNL     1       5.755  -1.943   7.107  0.00  0.00    +0.267 C 
ATOM     18  O   UNL     1       6.262  -1.890   6.003  0.00  0.00    -0.268 OA
ATOM     19  H   UNL     1       4.070  -2.385   8.123  0.00  0.00    +0.173 HD
BRANCH  17  20
ATOM     20  C   UNL     1       6.535  -1.573   8.291  0.00  0.00    +0.075 A 
ATOM     21  C   UNL     1       7.849  -1.135   8.370  0.00  0.00    +0.021 A 
ATOM     22  C   UNL     1       8.311  -0.860   9.635  0.00  0.00    +0.008 A 
ATOM     23  C   UNL     1       7.480  -1.030  10.692  0.00  0.00    +0.046 A 
ATOM     24  S   UNL     1       6.042  -1.560  10.004  0.00  0.00    -0.092 S 
ENDBRANCH  17  20
ENDBRANCH   5  16
BRANCH   4  25
ATOM     25  C   UNL     1       4.622  -4.888   5.396  0.00  0.00    +0.129 C 
BRANCH  25  26
ATOM     26  C   UNL     1       5.348  -5.167   6.687  0.00  0.00    +0.215 C 
ATOM     27  O   UNL     1       4.907  -4.746   7.735  0.00  0.00    -0.276 OA
ATOM     28  N   UNL     1       6.489  -5.884   6.676  0.00  0.00    -0.315 N 
ATOM     29  H   UNL     1       6.843  -6.221   5.838  0.00  0.00    +0.149 HD
BRANCH  28  30
ATOM     30  C   UNL     1       7.196  -6.155   7.930  0.00  0.00    +0.109 C 
BRANCH  30  31
ATOM     31  C   UNL     1       8.450  -6.982   7.641  0.00  0.00    +0.054 C 
BRANCH  31  32
ATOM     32  C   UNL     1       9.177  -7.261   8.931  0.00  0.00    -0.046 A 
ATOM     33  C   UNL     1      10.139  -6.379   9.387  0.00  0.00    +0.004 A 
ATOM     34  C   UNL     1      10.806  -6.635  10.571  0.00  0.00    +0.000 A 
ATOM     35  C   UNL     1      10.510  -7.773  11.298  0.00  0.00    +0.000 A 
ATOM     36  C   UNL     1       9.548  -8.655  10.842  0.00  0.00    +0.000 A 
ATOM     37  C   UNL     1       8.878  -8.397   9.661  0.00  0.00    +0.004 A 
ENDBRANCH  31  32
ENDBRANCH  30  31
ENDBRANCH  28  30
ENDBRANCH  25  26
ENDBRANCH   4  25
TORSDOF 9
