REMARK  Name = ZINC05275000
REMARK  6 active torsions:
REMARK  status: ('A' for Active; 'I' for Inactive)
REMARK    1  A    between atoms: C_1  and  C_2
REMARK    2  A    between atoms: C_9  and  C_13
REMARK    3  A    between atoms: C_9  and  O_17
REMARK    4  A    between atoms: C_20  and  C_23
REMARK    5  A    between atoms: C_26  and  O_29
REMARK    6  A    between atoms: O_29  and  C_30
REMARK                            x       y       z     vdW  Elec       q    Type
REMARK                         _______ _______ _______ _____ _____    ______ ____
ROOT
ATOM      1  C   UNL     1      -0.126  -0.719   2.343  0.00  0.00    +0.007 C 
ATOM      2  C   UNL     1      -0.318   0.794   2.467  0.00  0.00    -0.013 C 
ATOM      3  C   UNL     1       1.045   1.458   2.657  0.00  0.00    +0.009 C 
ATOM      4  C   UNL     1       1.979   1.090   1.493  0.00  0.00    +0.053 C 
ATOM      5  C   UNL     1       1.226   1.401   0.217  0.00  0.00    +0.045 C 
ATOM      6  N   UNL     1       1.579   2.133  -0.749  0.00  0.00    -0.184 NA
ATOM      7  N   UNL     1       0.588   2.337  -1.710  0.00  0.00    -0.160 N 
ATOM      8  C   UNL     1      -0.638   1.641  -1.279  0.00  0.00    +0.258 C 
ATOM      9  C   UNL     1      -0.191   0.897  -0.013  0.00  0.00    +0.096 C 
ATOM     10  C   UNL     1      -1.009   1.300   1.216  0.00  0.00    +0.017 C 
ATOM     11  C   UNL     1       0.733   3.072  -2.876  0.00  0.00    +0.184 A 
ATOM     12  N   UNL     1       1.790   3.721  -3.330  0.00  0.00    -0.223 NA
ATOM     13  C   UNL     1       1.752   4.380  -4.478  0.00  0.00    +0.080 A 
ATOM     14  C   UNL     1       0.596   4.390  -5.207  0.00  0.00    +0.077 A 
ATOM     15  S   UNL     1      -0.461   3.389  -4.168  0.00  0.00    -0.058 S 
ENDROOT
BRANCH  13  16
ATOM     16  C   UNL     1       2.951   5.101  -4.968  0.00  0.00    +0.001 A 
ATOM     17  C   UNL     1       4.155   5.008  -4.272  0.00  0.00    +0.013 A 
ATOM     18  C   UNL     1       5.271   5.676  -4.733  0.00  0.00    +0.046 A 
ATOM     19  C   UNL     1       5.193   6.448  -5.883  0.00  0.00    +0.120 A 
ATOM     20  C   UNL     1       3.994   6.548  -6.576  0.00  0.00    +0.046 A 
ATOM     21  C   UNL     1       2.876   5.878  -6.123  0.00  0.00    +0.013 A 
BRANCH  19  22
ATOM     22  O   UNL     1       6.292   7.109  -6.332  0.00  0.00    -0.495 OA
ATOM     23  C   UNL     1       7.493   6.963  -5.571  0.00  0.00    +0.277 C 
ENDBRANCH  19  22
ENDBRANCH  13  16
BRANCH   8  24
ATOM     24  C   UNL     1      -1.744   2.647  -0.952  0.00  0.00    +0.438 C 
ATOM     25  F   UNL     1      -1.232   3.649  -0.120  0.00  0.00    -0.166 F 
ATOM     26  F   UNL     1      -2.217   3.221  -2.136  0.00  0.00    -0.166 F 
ATOM     27  F   UNL     1      -2.793   1.991  -0.299  0.00  0.00    -0.166 F 
ENDBRANCH   8  24
BRANCH   8  28
ATOM     28  O   UNL     1      -1.073   0.719  -2.280  0.00  0.00    -0.363 OA
ATOM     29  H   UNL     1      -1.366   1.138  -3.100  0.00  0.00    +0.212 HD
ENDBRANCH   8  28
TORSDOF 4
