REMARK  Name = ZINC39636067
REMARK  8 active torsions:
REMARK  status: ('A' for Active; 'I' for Inactive)
REMARK    1  A    between atoms: C_1  and  C_2
REMARK    2  A    between atoms: C_8  and  N_10
REMARK    3  A    between atoms: C_11  and  C_13
REMARK    4  A    between atoms: C_24  and  C_26
REMARK    5  A    between atoms: C_28  and  O_34
REMARK    6  A    between atoms: C_31  and  O_32
REMARK    7  A    between atoms: O_32  and  C_33
REMARK    8  A    between atoms: O_34  and  C_35
REMARK                            x       y       z     vdW  Elec       q    Type
REMARK                         _______ _______ _______ _____ _____    ______ ____
ROOT
ATOM      1  C   UNL     1       0.031   0.583   4.835  0.00  0.00    +0.100 C 
ATOM      2  C   UNL     1      -0.375   2.066   4.678  0.00  0.00    +0.121 C 
ATOM      3  N   UNL     1      -0.172   2.654   6.023  0.00  0.00    -0.296 N 
ATOM      4  C   UNL     1       1.076   2.025   6.516  0.00  0.00    +0.115 C 
ATOM      5  C   UNL     1       0.985   0.560   6.041  0.00  0.00    -0.004 C 
ATOM      6  C   UNL     1       2.361   0.056   5.618  0.00  0.00    -0.010 C 
ATOM      7  C   UNL     1       3.274  -0.013   6.845  0.00  0.00    -0.082 C 
ATOM      8  N   UNL     1       2.687  -0.914   7.845  0.00  0.00    +0.379 N 
ATOM      9  C   UNL     1       1.406  -0.373   8.315  0.00  0.00    -0.082 C 
ATOM     10  C   UNL     1       0.413  -0.319   7.150  0.00  0.00    -0.010 C 
ATOM     11  C   UNL     1      -0.948   3.557   6.655  0.00  0.00    +0.250 C 
ATOM     12  O   UNL     1      -2.000   3.908   6.158  0.00  0.00    -0.270 OA
ATOM     13  H   UNL     1       2.535  -1.821   7.430  0.00  0.00    -0.086 HD
ATOM     14  H   UNL     1       3.319  -1.005   8.626  0.00  0.00    -0.086 HD
ENDROOT
BRANCH  11  15
ATOM     15  C   UNL     1      -0.520   4.118   7.951  0.00  0.00    +0.082 A 
ATOM     16  C   UNL     1       0.835   4.350   8.202  0.00  0.00    +0.062 A 
ATOM     17  C   UNL     1       1.229   4.877   9.418  0.00  0.00    +0.121 A 
ATOM     18  C   UNL     1       0.281   5.175  10.390  0.00  0.00    +0.049 A 
ATOM     19  C   UNL     1      -1.059   4.949  10.150  0.00  0.00    +0.050 A 
ATOM     20  C   UNL     1      -1.470   4.426   8.933  0.00  0.00    +0.132 A 
BRANCH  20  21
ATOM     21  O   UNL     1      -2.789   4.209   8.696  0.00  0.00    -0.494 OA
ATOM     22  C   UNL     1      -3.700   4.547   9.743  0.00  0.00    +0.277 C 
ENDBRANCH  20  21
BRANCH  17  23
ATOM     23  O   UNL     1       2.547   5.104   9.664  0.00  0.00    -0.495 OA
ATOM     24  C   UNL     1       2.884   5.649  10.941  0.00  0.00    +0.277 C 
ENDBRANCH  17  23
ENDBRANCH  11  15
BRANCH   1  26
ATOM     25  N   UNL     1       0.813  -1.220   3.333  0.00  0.00    -0.312 N 
ATOM     26  C   UNL     1       0.741   0.100   3.596  0.00  0.00    +0.218 C 
ATOM     27  O   UNL     1       1.246   0.898   2.836  0.00  0.00    -0.275 OA
ATOM     28  H   UNL     1       0.409  -1.859   3.941  0.00  0.00    +0.149 HD
BRANCH  25  35
ATOM     29  C   UNL     1      -0.551  -2.933   1.437  0.00  0.00    +0.009 C 
ATOM     30  C   UNL     1       0.947  -3.056   1.723  0.00  0.00    +0.006 C 
ATOM     31  C   UNL     1       1.667  -3.547   0.466  0.00  0.00    +0.005 C 
ATOM     32  C   UNL     1       3.165  -3.671   0.752  0.00  0.00    +0.000 C 
ATOM     33  C   UNL     1       3.721  -2.305   1.158  0.00  0.00    +0.002 C 
ATOM     34  C   UNL     1       3.001  -1.814   2.415  0.00  0.00    +0.022 C 
ATOM     35  C   UNL     1       1.503  -1.690   2.129  0.00  0.00    +0.076 C 
ENDBRANCH  25  35
ENDBRANCH   1  26
TORSDOF 5
