REMARK  Name = ZINC20905341
REMARK  12 active torsions:
REMARK  status: ('A' for Active; 'I' for Inactive)
REMARK    1  A    between atoms: C_1  and  C_2
REMARK    2  A    between atoms: C_2  and  O_3
REMARK    3  A    between atoms: O_3  and  C_4
REMARK    4  A    between atoms: C_4  and  C_6
REMARK    5  A    between atoms: C_7  and  C_36
REMARK    6  A    between atoms: C_8  and  C_34
REMARK    7  A    between atoms: C_9  and  N_11
REMARK    8  A    between atoms: C_12  and  C_14
REMARK    9  A    between atoms: C_14  and  S_15
REMARK   10  A    between atoms: S_15  and  C_16
REMARK   11  A    between atoms: N_21  and  N_22
REMARK   12  A    between atoms: C_23  and  C_24
REMARK                            x       y       z     vdW  Elec       q    Type
REMARK                         _______ _______ _______ _____ _____    ______ ____
ROOT
ATOM      1  C   UNL     1       3.850  -4.339  -0.390  0.00  0.00    +0.211 A 
ATOM      2  N   UNL     1       2.516  -4.074  -0.259  0.00  0.00    -0.186 NA
ATOM      3  C   UNL     1       2.356  -2.716  -0.238  0.00  0.00    +0.232 A 
ATOM      4  N   UNL     1       3.540  -2.166  -0.356  0.00  0.00    -0.245 N 
ATOM      5  N   UNL     1       4.487  -3.194  -0.448  0.00  0.00    -0.144 NA
ATOM      6  N   UNL     1       1.151  -2.039  -0.118  0.00  0.00    -0.205 N 
ATOM      7  H   UNL     1       0.210  -2.603  -0.029  0.00  0.00    +0.177 HD
ATOM      8  H   UNL     1       3.639  -1.070  -0.369  0.00  0.00    +0.192 HD
ENDROOT
BRANCH   6   9
ATOM      9  N   UNL     1       1.132  -0.638  -0.110  0.00  0.00    -0.188 NA
ATOM     10  C   UNL     1       0.002  -0.004   0.002  0.00  0.00    +0.139 C 
BRANCH  10  11
ATOM     11  C   UNL     1      -0.018   1.466   0.010  0.00  0.00    +0.002 A 
ATOM     12  C   UNL     1      -1.223   2.160   0.017  0.00  0.00    +0.010 A 
ATOM     13  C   UNL     1      -1.238   3.547   0.031  0.00  0.00    +0.001 A 
ATOM     14  C   UNL     1      -0.090   4.279   0.025  0.00  0.00    +0.008 A 
ATOM     15  C   UNL     1       1.164   3.644   0.012  0.00  0.00    -0.017 A 
ATOM     16  C   UNL     1       1.229   2.230   0.004  0.00  0.00    -0.009 A 
ATOM     17  C   UNL     1       2.476   1.594  -0.008  0.00  0.00    +0.009 A 
ATOM     18  C   UNL     1       3.614   2.344  -0.013  0.00  0.00    +0.001 A 
ATOM     19  C   UNL     1       3.554   3.736  -0.005  0.00  0.00    +0.001 A 
ATOM     20  C   UNL     1       2.358   4.386   0.007  0.00  0.00    +0.008 A 
ENDBRANCH  10  11
ENDBRANCH   6   9
BRANCH   1  21
ATOM     21  S   UNL     1       4.585  -5.939  -0.468  0.00  0.00    -0.075 S 
BRANCH  21  22
ATOM     22  C   UNL     1       6.326  -5.476  -0.636  0.00  0.00    +0.173 C 
BRANCH  22  24
ATOM     23  N   UNL     1       8.508  -6.622  -0.853  0.00  0.00    -0.278 N 
ATOM     24  C   UNL     1       7.170  -6.722  -0.723  0.00  0.00    +0.228 C 
ATOM     25  O   UNL     1       6.646  -7.814  -0.676  0.00  0.00    -0.275 OA
ATOM     26  H   UNL     1       8.984  -5.631  -0.896  0.00  0.00    +0.155 HD
BRANCH  23  30
ATOM     27  C   UNL     1      10.360 -10.208  -1.046  0.00  0.00    +0.102 A 
ATOM     28  C   UNL     1      11.223  -9.134  -1.127  0.00  0.00    -0.010 A 
ATOM     29  C   UNL     1      10.669  -7.866  -1.069  0.00  0.00    +0.084 A 
ATOM     30  C   UNL     1       9.282  -7.764  -0.933  0.00  0.00    +0.090 A 
ATOM     31  S   UNL     1       8.770  -9.419  -0.882  0.00  0.00    -0.065 S 
ATOM     32  C   UNL     1      12.710  -9.333  -1.273  0.00  0.00    +0.046 C 
BRANCH  27  33
ATOM     33  C   UNL     1      10.672 -11.636  -1.081  0.00  0.00    +0.346 C 
ATOM     34  O   UNL     1      11.826 -12.004  -1.195  0.00  0.00    -0.244 OA
BRANCH  33  35
ATOM     35  O   UNL     1       9.680 -12.546  -0.987  0.00  0.00    -0.461 OA
BRANCH  35  37
ATOM     36  C   UNL     1       8.808 -14.798  -0.909  0.00  0.00    +0.048 C 
ATOM     37  C   UNL     1      10.058 -13.924  -1.028  0.00  0.00    +0.229 C 
ENDBRANCH  35  37
ENDBRANCH  33  35
ENDBRANCH  27  33
BRANCH  29  38
ATOM     38  C   UNL     1      11.492  -6.697  -1.146  0.00  0.00    +0.102 C 
ATOM     39  N   UNL     1      12.145  -5.769  -1.207  0.00  0.00    -0.191 NA
ENDBRANCH  29  38
ENDBRANCH  23  30
ENDBRANCH  22  24
ENDBRANCH  21  22
ENDBRANCH   1  21
TORSDOF 10
