REMARK  Name = ZINC38701201
REMARK  11 active torsions:
REMARK  status: ('A' for Active; 'I' for Inactive)
REMARK    1  A    between atoms: C_1  and  C_2
REMARK    2  A    between atoms: C_2  and  O_3
REMARK    3  A    between atoms: O_3  and  C_4
REMARK    4  A    between atoms: C_8  and  C_10
REMARK    5  A    between atoms: C_15  and  O_24
REMARK    6  A    between atoms: C_19  and  N_23
REMARK    7  A    between atoms: C_20  and  C_21
REMARK    8  A    between atoms: O_24  and  C_25
REMARK    9  A    between atoms: C_25  and  C_27
REMARK   10  A    between atoms: C_28  and  C_37
REMARK   11  A    between atoms: C_32  and  C_36
REMARK                            x       y       z     vdW  Elec       q    Type
REMARK                         _______ _______ _______ _____ _____    ______ ____
ROOT
ATOM      1  C   UNL     1      -4.283  -4.415   0.035  0.00  0.00    +0.098 C 
ATOM      2  C   UNL     1      -4.476  -5.240  -1.209  0.00  0.00    +0.008 A 
ATOM      3  C   UNL     1      -4.802  -4.612  -2.398  0.00  0.00    +0.012 A 
ATOM      4  C   UNL     1      -4.983  -5.353  -3.550  0.00  0.00    +0.047 A 
ATOM      5  C   UNL     1      -4.838  -6.733  -3.517  0.00  0.00    +0.136 A 
ATOM      6  C   UNL     1      -4.511  -7.365  -2.328  0.00  0.00    +0.093 A 
ATOM      7  C   UNL     1      -4.329  -6.618  -1.171  0.00  0.00    +0.138 A 
ATOM      8  O   UNL     1      -4.010  -7.252  -0.015  0.00  0.00    -0.441 OA
ATOM      9  C   UNL     1      -4.206  -6.636   1.163  0.00  0.00    +0.199 C 
ATOM     10  C   UNL     1      -4.343  -5.295   1.252  0.00  0.00    +0.098 C 
ENDROOT
BRANCH   1  15
ATOM     11  C   UNL     1      -1.633  -1.723  -0.047  0.00  0.00    +0.121 A 
ATOM     12  C   UNL     1      -0.474  -2.482  -0.127  0.00  0.00    +0.045 A 
ATOM     13  C   UNL     1      -0.552  -3.861  -0.154  0.00  0.00    +0.004 A 
ATOM     14  C   UNL     1      -1.785  -4.485  -0.101  0.00  0.00    +0.005 A 
ATOM     15  C   UNL     1      -2.942  -3.732  -0.022  0.00  0.00    -0.031 A 
ATOM     16  C   UNL     1      -2.868  -2.352   0.012  0.00  0.00    +0.050 A 
BRANCH  11  17
ATOM     17  O   UNL     1      -1.558  -0.367  -0.019  0.00  0.00    -0.492 OA
BRANCH  17  19
ATOM     18  C   UNL     1      -0.369   1.737  -0.040  0.00  0.00    +0.048 C 
ATOM     19  C   UNL     1      -0.253   0.212  -0.083  0.00  0.00    +0.225 C 
ENDBRANCH  17  19
ENDBRANCH  11  17
ENDBRANCH   1  15
BRANCH   9  20
ATOM     20  N   UNL     1      -4.270  -7.391   2.307  0.00  0.00    -0.328 N 
ATOM     21  H   UNL     1      -4.173  -8.355   2.257  0.00  0.00    +0.145 HD
ATOM     22  H   UNL     1      -4.411  -6.962   3.165  0.00  0.00    +0.145 HD
ENDBRANCH   9  20
BRANCH  10  23
ATOM     23  C   UNL     1      -4.548  -4.700   2.539  0.00  0.00    +0.101 C 
ATOM     24  N   UNL     1      -4.712  -4.228   3.559  0.00  0.00    -0.191 NA
ENDBRANCH  10  23
BRANCH   5  25
ATOM     25  O   UNL     1      -5.016  -7.463  -4.649  0.00  0.00    -0.420 OA
BRANCH  25  26
ATOM     26  C   UNL     1      -6.099  -8.264  -4.721  0.00  0.00    +0.380 C 
ATOM     27  O   UNL     1      -6.934  -8.239  -3.838  0.00  0.00    -0.241 OA
BRANCH  26  28
ATOM     28  C   UNL     1      -6.269  -9.166  -5.867  0.00  0.00    +0.216 A 
ATOM     29  C   UNL     1      -7.319 -10.011  -6.048  0.00  0.00    +0.010 A 
ATOM     30  C   UNL     1      -7.067 -10.703  -7.311  0.00  0.00    +0.024 A 
ATOM     31  C   UNL     1      -7.754 -11.676  -8.042  0.00  0.00    +0.012 A 
ATOM     32  C   UNL     1      -7.235 -12.129  -9.222  0.00  0.00    +0.004 A 
ATOM     33  C   UNL     1      -6.031 -11.629  -9.699  0.00  0.00    -0.047 A 
ATOM     34  C   UNL     1      -5.338 -10.669  -8.993  0.00  0.00    +0.050 A 
ATOM     35  C   UNL     1      -5.846 -10.193  -7.790  0.00  0.00    +0.137 A 
ATOM     36  O   UNL     1      -5.411  -9.278  -6.902  0.00  0.00    -0.448 OA
ATOM     37  C   UNL     1      -5.475 -12.141 -11.002  0.00  0.00    +0.044 C 
ATOM     38  C   UNL     1      -8.501 -10.196  -5.133  0.00  0.00    +0.048 C 
ENDBRANCH  26  28
ENDBRANCH  25  26
ENDBRANCH   5  25
TORSDOF 8
