REMARK  Name = ZINC62665287
REMARK  5 active torsions:
REMARK  status: ('A' for Active; 'I' for Inactive)
REMARK    1  A    between atoms: C_1  and  C_2
REMARK    2  A    between atoms: C_7  and  C_8
REMARK    3  A    between atoms: C_8  and  C_10
REMARK    4  A    between atoms: C_8  and  N_17
REMARK    5  A    between atoms: N_17  and  C_18
REMARK                            x       y       z     vdW  Elec       q    Type
REMARK                         _______ _______ _______ _____ _____    ______ ____
ROOT
ATOM      1  C   UNL     1       0.209  -0.060   2.555  0.00  0.00    -0.008 C 
ENDROOT
BRANCH   1   8
ATOM      2  C   UNL     1       0.942   0.834  -0.092  0.00  0.00    +0.044 C 
ATOM      3  C   UNL     1       0.494  -0.589   0.125  0.00  0.00    -0.048 A 
ATOM      4  C   UNL     1       0.440  -1.467  -0.941  0.00  0.00    +0.006 A 
ATOM      5  C   UNL     1       0.030  -2.771  -0.743  0.00  0.00    +0.038 A 
ATOM      6  C   UNL     1      -0.327  -3.199   0.525  0.00  0.00    +0.124 A 
ATOM      7  C   UNL     1      -0.272  -2.319   1.592  0.00  0.00    +0.041 A 
ATOM      8  C   UNL     1       0.143  -1.016   1.392  0.00  0.00    -0.052 A 
ATOM      9  F   UNL     1      -0.729  -4.474   0.720  0.00  0.00    -0.205 F 
ENDBRANCH   1   8
BRANCH   1  10
ATOM     10  C   UNL     1      -1.174   0.139   3.120  0.00  0.00    -0.035 A 
ATOM     11  C   UNL     1      -1.627  -0.651   4.161  0.00  0.00    +0.026 A 
ATOM     12  C   UNL     1      -2.877  -0.446   4.646  0.00  0.00    +0.056 A 
ATOM     13  S   UNL     1      -3.454   0.898   3.622  0.00  0.00    -0.074 S 
ATOM     14  C   UNL     1      -1.990   1.099   2.620  0.00  0.00    +0.058 A 
ATOM     15 BR   UNL     1      -1.664   2.331   1.223  0.00  0.00    -0.042 Br
ATOM     16 BR   UNL     1      -3.774  -1.349   6.044  0.00  0.00    -0.043 Br
ENDBRANCH   1  10
BRANCH   1  17
ATOM     17  N   UNL     1       1.088  -0.612   3.594  0.00  0.00    +0.384 N 
ATOM     18  C   UNL     1       2.462  -0.694   3.080  0.00  0.00    -0.099 C 
ATOM     19  H   UNL     1       1.068  -0.013   4.405  0.00  0.00    -0.085 HD
ATOM     20  H   UNL     1       0.769  -1.535   3.849  0.00  0.00    -0.085 HD
ENDBRANCH   1  17
TORSDOF 3
