REMARK  Name = ZINC36307185
REMARK  18 active torsions:
REMARK  status: ('A' for Active; 'I' for Inactive)
REMARK    1  A    between atoms: C_1  and  C_2
REMARK    2  A    between atoms: C_2  and  C_3
REMARK    3  A    between atoms: C_3  and  N_4
REMARK    4  A    between atoms: N_4  and  C_5
REMARK    5  A    between atoms: N_4  and  C_26
REMARK    6  A    between atoms: C_5  and  C_6
REMARK    7  A    between atoms: C_7  and  C_20
REMARK    8  A    between atoms: N_9  and  C_19
REMARK    9  A    between atoms: C_10  and  O_11
REMARK   10  A    between atoms: O_11  and  C_12
REMARK   11  A    between atoms: C_26  and  C_27
REMARK   12  A    between atoms: C_27  and  C_29
REMARK   13  A    between atoms: C_27  and  O_35
REMARK   14  A    between atoms: C_29  and  O_30
REMARK   15  A    between atoms: O_30  and  C_31
REMARK   16  A    between atoms: C_31  and  C_32
REMARK   17  A    between atoms: C_32  and  C_33
REMARK   18  A    between atoms: C_32  and  C_34
REMARK                            x       y       z     vdW  Elec       q    Type
REMARK                         _______ _______ _______ _____ _____    ______ ____
ROOT
ATOM      1  C   UNL     1      -0.667  -4.054   0.707  0.00  0.00    +0.025 A 
ATOM      2  C   UNL     1      -1.508  -5.052   1.234  0.00  0.00    +0.098 A 
ATOM      3  N   UNL     1      -0.928  -6.218   1.045  0.00  0.00    -0.168 NA
ATOM      4  N   UNL     1       0.293  -6.001   0.395  0.00  0.00    -0.235 N 
ATOM      5  C   UNL     1       0.430  -4.665   0.192  0.00  0.00    +0.221 A 
ATOM      6  C   UNL     1       1.252  -7.035  -0.001  0.00  0.00    +0.176 C 
ENDROOT
BRANCH   2   7
ATOM      7  C   UNL     1      -2.821  -4.828   1.890  0.00  0.00    +0.002 A 
ATOM      8  C   UNL     1      -2.977  -3.788   2.804  0.00  0.00    +0.010 A 
ATOM      9  C   UNL     1      -4.200  -3.584   3.410  0.00  0.00    +0.001 A 
ATOM     10  C   UNL     1      -5.269  -4.410   3.112  0.00  0.00    +0.000 A 
ATOM     11  C   UNL     1      -5.119  -5.444   2.206  0.00  0.00    +0.001 A 
ATOM     12  C   UNL     1      -3.902  -5.653   1.589  0.00  0.00    +0.010 A 
ENDBRANCH   2   7
BRANCH   1  13
ATOM     13  C   UNL     1      -0.939  -2.572   0.708  0.00  0.00    -0.035 C 
BRANCH  13  14
ATOM     14  N   UNL     1      -1.520  -2.180  -0.583  0.00  0.00    +0.384 N 
ATOM     15  H   UNL     1      -0.916  -2.486  -1.331  0.00  0.00    -0.081 HD
BRANCH  14  16
ATOM     16  C   UNL     1      -1.660  -0.718  -0.634  0.00  0.00    -0.079 C 
BRANCH  16  18
ATOM     17  C   UNL     1      -0.412   1.440  -0.799  0.00  0.00    +0.002 C 
ATOM     18  C   UNL     1      -0.273  -0.073  -0.617  0.00  0.00    -0.022 C 
ENDBRANCH  16  18
ENDBRANCH  14  16
BRANCH  14  19
ATOM     19  C   UNL     1      -2.841  -2.804  -0.735  0.00  0.00    -0.044 C 
BRANCH  19  20
ATOM     20  C   UNL     1      -3.392  -2.498  -2.130  0.00  0.00    +0.124 C 
BRANCH  20  21
ATOM     21  O   UNL     1      -2.565  -3.119  -3.115  0.00  0.00    -0.391 OA
ATOM     22  H   UNL     1      -2.512  -4.081  -3.034  0.00  0.00    +0.210 HD
ENDBRANCH  20  21
BRANCH  20  23
ATOM     23  C   UNL     1      -4.818  -3.040  -2.245  0.00  0.00    +0.189 C 
BRANCH  23  24
ATOM     24  O   UNL     1      -5.375  -2.654  -3.503  0.00  0.00    -0.377 OA
BRANCH  24  25
ATOM     25  C   UNL     1      -6.712  -3.112  -3.712  0.00  0.00    +0.163 C 
BRANCH  25  26
ATOM     26  C   UNL     1      -7.203  -2.643  -5.083  0.00  0.00    +0.009 C 
ATOM     27  C   UNL     1      -6.370  -3.310  -6.179  0.00  0.00    +0.009 C 
ATOM     28  C   UNL     1      -8.674  -3.026  -5.257  0.00  0.00    +0.009 C 
ENDBRANCH  25  26
ENDBRANCH  24  25
ENDBRANCH  23  24
ENDBRANCH  20  23
ENDBRANCH  19  20
ENDBRANCH  14  19
ENDBRANCH  13  14
ENDBRANCH   1  13
BRANCH   5  29
ATOM     29  O   UNL     1       1.478  -4.051  -0.414  0.00  0.00    -0.438 OA
BRANCH  29  30
ATOM     30  C   UNL     1       2.563  -3.744   0.345  0.00  0.00    +0.133 A 
ATOM     31  C   UNL     1       2.623  -4.153   1.670  0.00  0.00    +0.046 A 
ATOM     32  C   UNL     1       3.726  -3.840   2.440  0.00  0.00    +0.006 A 
ATOM     33  C   UNL     1       4.770  -3.118   1.893  0.00  0.00    +0.038 A 
ATOM     34  C   UNL     1       4.714  -2.707   0.572  0.00  0.00    +0.127 A 
ATOM     35  C   UNL     1       3.614  -3.025  -0.205  0.00  0.00    +0.084 A 
ATOM     36  F   UNL     1       5.736  -2.002   0.039  0.00  0.00    -0.205 F 
ENDBRANCH  29  30
ENDBRANCH   5  29
TORSDOF 14
