REMARK  Name = ZINC63386145
REMARK  8 active torsions:
REMARK  status: ('A' for Active; 'I' for Inactive)
REMARK    1  A    between atoms: C_1  and  C_2
REMARK    2  A    between atoms: C_7  and  O_32
REMARK    3  A    between atoms: C_13  and  C_15
REMARK    4  A    between atoms: C_15  and  C_16
REMARK    5  A    between atoms: N_18  and  C_19
REMARK    6  A    between atoms: C_19  and  C_21
REMARK    7  A    between atoms: C_19  and  C_22
REMARK    8  A    between atoms: C_22  and  C_23
REMARK                            x       y       z     vdW  Elec       q    Type
REMARK                         _______ _______ _______ _____ _____    ______ ____
ROOT
ATOM      1  C   UNL     1       2.676  -0.121   2.744  0.00  0.00    +0.214 C 
ATOM      2  O   UNL     1       2.169  -0.983   3.430  0.00  0.00    -0.276 OA
ATOM      3  N   UNL     1       3.827   0.461   3.137  0.00  0.00    -0.312 N 
ATOM      4  H   UNL     1       4.233   1.151   2.589  0.00  0.00    +0.149 HD
ENDROOT
BRANCH   3   5
ATOM      5  C   UNL     1       4.464   0.053   4.391  0.00  0.00    +0.074 C 
ATOM      6  C   UNL     1       5.342  -1.175   4.141  0.00  0.00    +0.028 C 
BRANCH   5   7
ATOM      7  C   UNL     1       5.329   1.198   4.921  0.00  0.00    +0.055 C 
BRANCH   7   8
ATOM      8  C   UNL     1       4.448   2.366   5.283  0.00  0.00    -0.040 C 
ATOM      9  C   UNL     1       3.952   2.662   6.506  0.00  0.00    -0.001 A 
ATOM     10  C   UNL     1       4.079   2.010   7.815  0.00  0.00    +0.010 A 
ATOM     11  C   UNL     1       3.451   2.554   8.883  0.00  0.00    +0.001 A 
ATOM     12  C   UNL     1       2.685   3.722   8.771  0.00  0.00    +0.002 A 
ATOM     13  C   UNL     1       2.522   4.378   7.602  0.00  0.00    +0.026 A 
ATOM     14  C   UNL     1       3.138   3.895   6.415  0.00  0.00    +0.043 A 
ATOM     15  N   UNL     1       3.130   4.343   5.183  0.00  0.00    -0.380 N 
ATOM     16  C   UNL     1       3.945   3.448   4.354  0.00  0.00    +0.144 C 
ATOM     17  H   UNL     1       2.666   5.137   4.872  0.00  0.00    +0.160 HD
ENDBRANCH   7   8
ENDBRANCH   5   7
ENDBRANCH   3   5
BRANCH   1  18
ATOM     18  C   UNL     1       2.021   0.300   1.454  0.00  0.00    +0.111 C 
BRANCH  18  30
ATOM     19  C   UNL     1      -0.019   1.526   0.010  0.00  0.00    +0.013 C 
ATOM     20  C   UNL     1       0.002  -0.004   0.002  0.00  0.00    +0.034 C 
ATOM     21  C   UNL     1       0.705  -0.489  -1.241  0.00  0.00    -0.001 A 
ATOM     22  C   UNL     1       0.474   0.181  -2.433  0.00  0.00    +0.011 A 
ATOM     23  C   UNL     1       1.090  -0.230  -3.597  0.00  0.00    +0.046 A 
ATOM     24  C   UNL     1       1.945  -1.323  -3.580  0.00  0.00    +0.120 A 
ATOM     25  C   UNL     1       2.180  -1.994  -2.391  0.00  0.00    +0.092 A 
ATOM     26  C   UNL     1       1.562  -1.575  -1.218  0.00  0.00    +0.139 A 
ATOM     27  O   UNL     1       1.836  -2.249  -0.069  0.00  0.00    -0.425 OA
ATOM     28  C   UNL     1       1.083  -1.967   1.014  0.00  0.00    +0.316 C 
ATOM     29  O   UNL     1       0.701  -2.835   1.762  0.00  0.00    -0.250 OA
ATOM     30  C   UNL     1       0.740  -0.510   1.245  0.00  0.00    +0.114 C 
BRANCH  24  31
ATOM     31  O   UNL     1       2.550  -1.734  -4.725  0.00  0.00    -0.507 OA
ATOM     32  H   UNL     1       3.407  -1.316  -4.889  0.00  0.00    +0.292 HD
ENDBRANCH  24  31
ENDBRANCH  18  30
ENDBRANCH   1  18
TORSDOF 6
