REMARK  Name = ZINC39666640
REMARK  8 active torsions:
REMARK  status: ('A' for Active; 'I' for Inactive)
REMARK    1  A    between atoms: C_1  and  C_2
REMARK    2  A    between atoms: C_6  and  C_7
REMARK    3  A    between atoms: C_11  and  C_20
REMARK    4  A    between atoms: N_22  and  C_23
REMARK    5  A    between atoms: C_23  and  C_24
REMARK    6  A    between atoms: C_24  and  C_26
REMARK    7  A    between atoms: C_24  and  O_27
REMARK    8  A    between atoms: O_27  and  C_28
REMARK                            x       y       z     vdW  Elec       q    Type
REMARK                         _______ _______ _______ _____ _____    ______ ____
ROOT
ATOM      1  C   UNL     1       0.458  -0.860   0.708  0.00  0.00    +0.254 C 
ATOM      2  O   UNL     1       0.295   0.324   0.938  0.00  0.00    -0.269 OA
ATOM      3  N   UNL     1       0.115  -1.780   1.632  0.00  0.00    -0.296 N 
ATOM      4  C   UNL     1       0.338  -3.244   1.583  0.00  0.00    +0.121 C 
ATOM      5  C   UNL     1       0.727  -3.628   3.028  0.00  0.00    +0.100 C 
ATOM      6  C   UNL     1       0.126  -2.517   3.905  0.00  0.00    -0.004 C 
ATOM      7  C   UNL     1      -0.566  -1.554   2.929  0.00  0.00    +0.115 C 
ATOM      8  C   UNL     1      -0.890  -3.104   4.879  0.00  0.00    -0.010 C 
ATOM      9  C   UNL     1      -1.431  -1.990   5.779  0.00  0.00    -0.082 C 
ATOM     10  N   UNL     1      -0.322  -1.369   6.513  0.00  0.00    +0.379 N 
ATOM     11  C   UNL     1       0.603  -0.726   5.572  0.00  0.00    -0.082 C 
ATOM     12  C   UNL     1       1.230  -1.787   4.664  0.00  0.00    -0.010 C 
ATOM     13  H   UNL     1      -0.687  -0.677   7.150  0.00  0.00    -0.086 HD
ATOM     14  H   UNL     1       0.171  -2.077   7.037  0.00  0.00    -0.086 HD
ENDROOT
BRANCH   1  20
ATOM     15  C   UNL     1       1.562   0.994  -1.538  0.00  0.00    +0.045 C 
ATOM     16  C   UNL     1       1.533  -0.511  -1.606  0.00  0.00    -0.031 A 
ATOM     17  C   UNL     1       2.010  -1.203  -2.694  0.00  0.00    +0.011 A 
ATOM     18  C   UNL     1       1.954  -2.558  -2.689  0.00  0.00    +0.046 A 
ATOM     19  S   UNL     1       1.253  -2.936  -1.210  0.00  0.00    -0.092 S 
ATOM     20  C   UNL     1       1.029  -1.286  -0.573  0.00  0.00    +0.077 A 
ENDBRANCH   1  20
BRANCH   5  21
ATOM     21  C   UNL     1       2.227  -3.663   3.175  0.00  0.00    +0.218 C 
ATOM     22  O   UNL     1       2.919  -2.926   2.505  0.00  0.00    -0.275 OA
ATOM     23  N   UNL     1       2.798  -4.512   4.052  0.00  0.00    -0.312 N 
ATOM     24  H   UNL     1       2.243  -5.037   4.650  0.00  0.00    +0.149 HD
BRANCH  23  25
ATOM     25  C   UNL     1       4.256  -4.641   4.103  0.00  0.00    +0.148 C 
BRANCH  25  26
ATOM     26  C   UNL     1       4.636  -5.751   5.085  0.00  0.00    +0.187 C 
ATOM     27  C   UNL     1       6.158  -5.804   5.231  0.00  0.00    +0.053 C 
BRANCH  26  28
ATOM     28  O   UNL     1       4.161  -7.005   4.593  0.00  0.00    -0.486 OA
BRANCH  28  29
ATOM     29  C   UNL     1       3.943  -7.985   5.510  0.00  0.00    +0.139 A 
ATOM     30  C   UNL     1       4.302  -7.789   6.835  0.00  0.00    +0.047 A 
ATOM     31  C   UNL     1       4.079  -8.786   7.765  0.00  0.00    +0.004 A 
ATOM     32  C   UNL     1       3.500  -9.979   7.376  0.00  0.00    +0.002 A 
ATOM     33  C   UNL     1       3.142 -10.179   6.056  0.00  0.00    +0.023 A 
ATOM     34  C   UNL     1       3.357  -9.182   5.122  0.00  0.00    +0.083 A 
ATOM     35 CL   UNL     1       2.900  -9.430   3.466  0.00  0.00    -0.080 Cl
ENDBRANCH  28  29
ENDBRANCH  26  28
ENDBRANCH  25  26
ENDBRANCH  23  25
ENDBRANCH   5  21
TORSDOF 6
