REMARK  Name = ZINC08338713
REMARK  9 active torsions:
REMARK  status: ('A' for Active; 'I' for Inactive)
REMARK    1  A    between atoms: C_1  and  C_2
REMARK    2  A    between atoms: C_3  and  C_27
REMARK    3  A    between atoms: N_4  and  C_20
REMARK    4  A    between atoms: C_5  and  N_9
REMARK    5  A    between atoms: C_6  and  C_7
REMARK    6  A    between atoms: C_10  and  C_12
REMARK    7  A    between atoms: C_12  and  N_56
REMARK    8  A    between atoms: C_17  and  C_19
REMARK    9  A    between atoms: C_20  and  C_21
REMARK                            x       y       z     vdW  Elec       q    Type
REMARK                         _______ _______ _______ _____ _____    ______ ____
ROOT
ATOM      1  C   UNL     1       1.221  -0.540  10.181  0.00  0.00    +0.047 C 
ATOM      2  C   UNL     1       1.379  -0.532   8.682  0.00  0.00    -0.011 A 
ATOM      3  C   UNL     1       2.224  -1.287   7.961  0.00  0.00    +0.022 A 
ATOM      4  N   UNL     1       2.068  -0.996   6.632  0.00  0.00    -0.329 N 
ATOM      5  C   UNL     1       1.122  -0.036   6.471  0.00  0.00    +0.123 A 
ATOM      6  C   UNL     1       0.639   0.302   7.727  0.00  0.00    +0.095 A 
ATOM      7  C   UNL     1       3.187  -2.299   8.525  0.00  0.00    +0.064 C 
ENDROOT
BRANCH   5   8
ATOM      8  N   UNL     1       0.706   0.506   5.264  0.00  0.00    -0.272 N 
ATOM      9  C   UNL     1       0.485   1.831   5.161  0.00  0.00    +0.202 C 
ATOM     10  O   UNL     1       0.680   2.555   6.114  0.00  0.00    -0.278 OA
ATOM     11  H   UNL     1       0.575  -0.069   4.494  0.00  0.00    +0.156 HD
BRANCH   9  12
ATOM     12  C   UNL     1      -0.005   2.415   3.860  0.00  0.00    +0.019 C 
BRANCH  12  19
ATOM     13  C   UNL     1       1.138   4.537   4.088  0.00  0.00    -0.078 C 
ATOM     14  C   UNL     1       0.932   6.024   4.383  0.00  0.00    -0.019 C 
ATOM     15  C   UNL     1       0.087   6.649   3.270  0.00  0.00    -0.003 C 
ATOM     16  C   UNL     1      -1.247   5.903   3.174  0.00  0.00    -0.016 C 
ATOM     17  C   UNL     1      -0.978   4.419   2.913  0.00  0.00    -0.071 C 
ATOM     18  C   UNL     1      -2.308   3.666   2.835  0.00  0.00    -0.013 C 
ATOM     19  N   UNL     1      -0.181   3.872   4.032  0.00  0.00    +0.387 N 
ATOM     20  H   UNL     1      -0.680   4.046   4.912  0.00  0.00    -0.081 HD
ENDBRANCH  12  19
ENDBRANCH   9  12
ENDBRANCH   5   8
BRANCH   6  21
ATOM     21  C   UNL     1      -0.373   1.268   8.030  0.00  0.00    +0.103 C 
ATOM     22  N   UNL     1      -1.177   2.034   8.271  0.00  0.00    -0.191 NA
ENDBRANCH   6  21
BRANCH   4  23
ATOM     23  C   UNL     1       2.817  -1.627   5.542  0.00  0.00    +0.154 C 
BRANCH  23  24
ATOM     24  C   UNL     1       4.024  -0.757   5.183  0.00  0.00    +0.138 C 
ATOM     25  C   UNL     1       4.754  -1.354   3.960  0.00  0.00    +0.035 C 
ATOM     26  C   UNL     1       6.247  -1.129   4.325  0.00  0.00    +0.031 C 
ATOM     27  C   UNL     1       6.204  -1.310   5.864  0.00  0.00    +0.160 C 
ATOM     28  O   UNL     1       4.952  -0.738   6.274  0.00  0.00    -0.375 OA
ENDBRANCH  23  24
ENDBRANCH   4  23
TORSDOF 6
