REMARK  Name = ZINC37194869
REMARK  4 active torsions:
REMARK  status: ('A' for Active; 'I' for Inactive)
REMARK    1  A    between atoms: C_3  and  S_9
REMARK    2  A    between atoms: C_4  and  N_8
REMARK    3  A    between atoms: S_9  and  C_10
REMARK    4  A    between atoms: C_10  and  C_11
REMARK                            x       y       z     vdW  Elec       q    Type
REMARK                         _______ _______ _______ _____ _____    ______ ____
ROOT
ATOM      1  S   UNL     1       3.894   2.323  -0.024  0.00  0.00    -0.117 S 
ENDROOT
BRANCH   1   4
ATOM      2  C   UNL     1      -0.017   1.380   0.010  0.00  0.00    +0.039 A 
ATOM      3  C   UNL     1       1.169   2.091   0.002  0.00  0.00    +0.019 A 
ATOM      4  C   UNL     1       2.382   1.418  -0.013  0.00  0.00    +0.029 A 
ATOM      5  C   UNL     1       2.401   0.023  -0.021  0.00  0.00    +0.041 A 
ATOM      6  C   UNL     1       1.209  -0.683  -0.013  0.00  0.00    +0.062 A 
ATOM      7  C   UNL     1       0.002  -0.004   0.002  0.00  0.00    +0.125 A 
ATOM      8  F   UNL     1      -1.159  -0.694   0.009  0.00  0.00    -0.205 F 
BRANCH   5   9
ATOM      9  N   UNL     1       3.623  -0.661  -0.037  0.00  0.00    -0.357 N 
ATOM     10  H   UNL     1       4.456  -0.166  -0.043  0.00  0.00    +0.142 HD
ATOM     11  H   UNL     1       3.635  -1.631  -0.043  0.00  0.00    +0.142 HD
ENDBRANCH   5   9
ENDBRANCH   1   4
BRANCH   1  12
ATOM     12  C   UNL     1       3.367   4.059  -0.010  0.00  0.00    +0.130 C 
BRANCH  12  13
ATOM     13  C   UNL     1       4.580   4.952  -0.018  0.00  0.00    +0.059 A 
ATOM     14  C   UNL     1       4.948   5.626  -1.163  0.00  0.00    +0.096 A 
ATOM     15  C   UNL     1       6.075   6.448  -1.151  0.00  0.00    +0.275 A 
ATOM     16  O   UNL     1       6.406   7.048  -2.162  0.00  0.00    -0.266 OA
ATOM     17  N   UNL     1       6.807   6.582  -0.006  0.00  0.00    -0.171 N 
ATOM     18  C   UNL     1       6.371   5.879   1.083  0.00  0.00    +0.199 A 
ATOM     19  N   UNL     1       5.312   5.109   1.082  0.00  0.00    -0.225 NA
ATOM     20  S   UNL     1       7.566   6.317   2.327  0.00  0.00    -0.036 S 
ATOM     21  C   UNL     1       8.564   7.404   1.320  0.00  0.00    +0.182 A 
ATOM     22  N   UNL     1       7.949   7.356   0.177  0.00  0.00    -0.163 NA
ENDBRANCH  12  13
ENDBRANCH   1  12
TORSDOF 4
