REMARK  Name = ZINC20533439
REMARK  10 active torsions:
REMARK  status: ('A' for Active; 'I' for Inactive)
REMARK    1  A    between atoms: C_1  and  C_2
REMARK    2  A    between atoms: C_8  and  C_15
REMARK    3  A    between atoms: C_9  and  C_13
REMARK    4  A    between atoms: C_10  and  N_12
REMARK    5  A    between atoms: C_17  and  O_25
REMARK    6  A    between atoms: C_18  and  O_23
REMARK    7  A    between atoms: C_19  and  O_21
REMARK    8  A    between atoms: O_21  and  C_22
REMARK    9  A    between atoms: O_23  and  C_24
REMARK   10  A    between atoms: O_25  and  C_26
REMARK                            x       y       z     vdW  Elec       q    Type
REMARK                         _______ _______ _______ _____ _____    ______ ____
ROOT
ATOM      1  C   UNL     1       0.763  -1.981  -1.334  0.00  0.00    +0.008 C 
ATOM      2  C   UNL     1       0.906  -0.469  -1.146  0.00  0.00    -0.009 C 
ATOM      3  C   UNL     1       0.002  -0.004   0.002  0.00  0.00    +0.010 C 
ATOM      4  C   UNL     1      -0.019   1.523   0.010  0.00  0.00    +0.056 C 
ATOM      5  C   UNL     1       1.386   2.073   0.000  0.00  0.00    +0.047 A 
ATOM      6  C   UNL     1       2.469   1.312  -0.370  0.00  0.00    -0.017 A 
ATOM      7  C   UNL     1       3.748   1.888  -0.366  0.00  0.00    +0.008 A 
ATOM      8  C   UNL     1       3.880   3.235   0.024  0.00  0.00    +0.099 A 
ATOM      9  C   UNL     1       2.721   3.938   0.393  0.00  0.00    +0.135 A 
ATOM     10  N   UNL     1       1.544   3.341   0.366  0.00  0.00    -0.236 NA
ATOM     11  C   UNL     1       2.351  -0.130  -0.786  0.00  0.00    +0.041 C 
ENDROOT
BRANCH   7  12
ATOM     12  C   UNL     1       4.934   1.095  -0.762  0.00  0.00    -0.009 A 
ATOM     13  C   UNL     1       5.336   0.006   0.011  0.00  0.00    +0.058 A 
ATOM     14  C   UNL     1       6.443  -0.736  -0.363  0.00  0.00    +0.166 A 
ATOM     15  C   UNL     1       7.160  -0.389  -1.504  0.00  0.00    +0.204 A 
ATOM     16  C   UNL     1       6.763   0.700  -2.273  0.00  0.00    +0.166 A 
ATOM     17  C   UNL     1       5.655   1.441  -1.905  0.00  0.00    +0.058 A 
BRANCH  16  18
ATOM     18  O   UNL     1       7.466   1.037  -3.388  0.00  0.00    -0.491 OA
ATOM     19  C   UNL     1       7.003   2.166  -4.130  0.00  0.00    +0.277 C 
ENDBRANCH  16  18
BRANCH  15  20
ATOM     20  O   UNL     1       8.250  -1.117  -1.867  0.00  0.00    -0.488 OA
ATOM     21  C   UNL     1       9.512  -0.700  -1.342  0.00  0.00    +0.277 C 
ENDBRANCH  15  20
BRANCH  14  22
ATOM     22  O   UNL     1       6.833  -1.800   0.388  0.00  0.00    -0.491 OA
ATOM     23  C   UNL     1       6.050  -2.099   1.546  0.00  0.00    +0.277 C 
ENDBRANCH  14  22
ENDBRANCH   7  12
BRANCH   9  24
ATOM     24  N   UNL     1       2.814   5.261   0.786  0.00  0.00    -0.342 N 
ATOM     25  H   UNL     1       1.908   5.814   1.075  0.00  0.00    +0.144 HD
ATOM     26  H   UNL     1       3.793   5.761   0.809  0.00  0.00    +0.144 HD
ENDBRANCH   9  24
BRANCH   8  27
ATOM     27  C   UNL     1       5.163   3.871   0.043  0.00  0.00    +0.103 C 
ATOM     28  N   UNL     1       6.180   4.376   0.058  0.00  0.00    -0.191 NA
ENDBRANCH   8  27
TORSDOF 6
