REMARK  Name = ZINC33276703
REMARK  11 active torsions:
REMARK  status: ('A' for Active; 'I' for Inactive)
REMARK    1  A    between atoms: C_1  and  C_2
REMARK    2  A    between atoms: C_2  and  C_3
REMARK    3  A    between atoms: C_4  and  C_15
REMARK    4  A    between atoms: C_18  and  C_35
REMARK    5  A    between atoms: C_19  and  S_21
REMARK    6  A    between atoms: S_21  and  N_24
REMARK    7  A    between atoms: N_24  and  C_25
REMARK    8  A    between atoms: C_25  and  C_26
REMARK    9  A    between atoms: C_31  and  O_32
REMARK   10  A    between atoms: O_32  and  C_33
REMARK   11  A    between atoms: C_33  and  C_34
REMARK                            x       y       z     vdW  Elec       q    Type
REMARK                         _______ _______ _______ _____ _____    ______ ____
ROOT
ATOM      1  C   UNL     1       4.921  -3.389  -0.866  0.00  0.00    -0.011 A 
ATOM      2  C   UNL     1       4.798  -3.356   0.522  0.00  0.00    +0.009 A 
ATOM      3  C   UNL     1       4.515  -2.165   1.159  0.00  0.00    +0.006 A 
ATOM      4  C   UNL     1       4.355  -1.005   0.422  0.00  0.00    -0.024 A 
ATOM      5  C   UNL     1       4.476  -1.032  -0.955  0.00  0.00    +0.109 A 
ATOM      6  C   UNL     1       4.752  -2.219  -1.603  0.00  0.00    +0.037 A 
ATOM      7  C   UNL     1       4.047   0.293   1.124  0.00  0.00    +0.046 C 
ENDROOT
BRANCH   1   9
ATOM      8  C   UNL     1       4.380  -5.350  -2.452  0.00  0.00    +0.073 A 
ATOM      9  C   UNL     1       5.224  -4.666  -1.557  0.00  0.00    +0.045 A 
ATOM     10  C   UNL     1       6.397  -5.405  -1.442  0.00  0.00    +0.139 A 
ATOM     11  N   UNL     1       6.282  -6.461  -2.288  0.00  0.00    -0.185 N 
ATOM     12  N   UNL     1       4.997  -6.418  -2.864  0.00  0.00    -0.167 NA
ATOM     13  C   UNL     1       7.190  -7.404  -2.614  0.00  0.00    +0.250 C 
ATOM     14  O   UNL     1       6.841  -8.316  -3.326  0.00  0.00    -0.271 OA
ATOM     15  C   UNL     1       8.588  -7.378  -2.145  0.00  0.00    +0.110 C 
ATOM     16  C   UNL     1       9.169  -5.998  -1.982  0.00  0.00    +0.105 C 
ATOM     17  C   UNL     1       8.705  -5.347  -0.722  0.00  0.00    +0.219 C 
ATOM     18  O   UNL     1       9.507  -5.048   0.138  0.00  0.00    -0.275 OA
ATOM     19  N   UNL     1       7.393  -5.093  -0.539  0.00  0.00    -0.270 N 
ATOM     20  H   UNL     1       7.139  -4.600   0.411  0.00  0.00    +0.156 HD
BRANCH   8  22
ATOM     21  C   UNL     1       3.087  -4.023  -4.101  0.00  0.00    +0.010 C 
ATOM     22  C   UNL     1       2.996  -4.917  -2.863  0.00  0.00    +0.054 C 
ENDBRANCH   8  22
ENDBRANCH   1   9
BRANCH   5  23
ATOM     23  S   UNL     1       4.271   0.451  -1.885  0.00  0.00    +0.059 S 
ATOM     24  O   UNL     1       3.072   1.057  -1.423  0.00  0.00    -0.153 OA
ATOM     25  O   UNL     1       4.474   0.107  -3.248  0.00  0.00    -0.153 OA
BRANCH  23  26
ATOM     26  N   UNL     1       5.508   1.468  -1.464  0.00  0.00    -0.186 NA
ATOM     27  H   UNL     1       5.297   2.332  -0.817  0.00  0.00    +0.148 HD
BRANCH  26  28
ATOM     28  C   UNL     1       6.894   1.100  -1.766  0.00  0.00    +0.144 C 
BRANCH  28  29
ATOM     29  C   UNL     1       7.774   2.317  -1.646  0.00  0.00    +0.010 A 
ATOM     30  C   UNL     1       8.160   3.006  -2.779  0.00  0.00    +0.008 A 
ATOM     31  C   UNL     1       8.967   4.123  -2.670  0.00  0.00    +0.001 A 
ATOM     32  C   UNL     1       9.391   4.554  -1.425  0.00  0.00    +0.004 A 
ATOM     33  C   UNL     1       9.003   3.871  -0.289  0.00  0.00    +0.046 A 
ATOM     34  C   UNL     1       8.197   2.747  -0.397  0.00  0.00    +0.125 A 
BRANCH  34  35
ATOM     35  O   UNL     1       7.818   2.072   0.720  0.00  0.00    -0.492 OA
BRANCH  35  36
ATOM     36  C   UNL     1       8.291   2.571   1.972  0.00  0.00    +0.225 C 
ATOM     37  C   UNL     1       7.766   1.688   3.106  0.00  0.00    +0.048 C 
ENDBRANCH  35  36
ENDBRANCH  34  35
ENDBRANCH  28  29
ENDBRANCH  26  28
ENDBRANCH  23  26
ENDBRANCH   5  23
TORSDOF 8
