REMARK  Name = ZINC06154006
REMARK  4 active torsions:
REMARK  status: ('A' for Active; 'I' for Inactive)
REMARK    1  A    between atoms: C_1  and  C_2
REMARK    2  A    between atoms: C_9  and  O_12
REMARK    3  A    between atoms: O_12  and  C_13
REMARK    4  A    between atoms: C_13  and  C_15
REMARK                            x       y       z     vdW  Elec       q    Type
REMARK                         _______ _______ _______ _____ _____    ______ ____
ROOT
ATOM      1  O   UNL     1      -2.542   5.384  -0.047  0.00  0.00    -0.419 OA
ENDROOT
BRANCH   1  10
ATOM      2  C   UNL     1      -3.803   5.703   4.773  0.00  0.00    +0.065 C 
ATOM      3  C   UNL     1      -4.408   6.230   3.497  0.00  0.00    +0.039 A 
ATOM      4  C   UNL     1      -5.578   6.984   3.562  0.00  0.00    +0.024 A 
ATOM      5  C   UNL     1      -6.140   7.469   2.415  0.00  0.00    +0.013 A 
ATOM      6  C   UNL     1      -5.506   7.184   1.192  0.00  0.00    +0.022 A 
ATOM      7  C   UNL     1      -6.028   7.650  -0.027  0.00  0.00    +0.052 A 
ATOM      8  C   UNL     1      -5.390   7.355  -1.195  0.00  0.00    +0.044 A 
ATOM      9  C   UNL     1      -4.222   6.596  -1.201  0.00  0.00    +0.087 A 
ATOM     10  C   UNL     1      -3.682   6.123  -0.027  0.00  0.00    +0.176 A 
ATOM     11  C   UNL     1      -4.322   6.406   1.198  0.00  0.00    +0.116 A 
ATOM     12  N   UNL     1      -3.821   5.965   2.355  0.00  0.00    -0.248 NA
ATOM     13 CL   UNL     1      -3.438   6.243  -2.709  0.00  0.00    -0.080 Cl
ATOM     14 CL   UNL     1      -7.482   8.597  -0.045  0.00  0.00    -0.083 Cl
ENDBRANCH   1  10
BRANCH   1  15
ATOM     15  C   UNL     1      -1.377   6.053   0.047  0.00  0.00    +0.345 C 
ATOM     16  O   UNL     1      -1.379   7.263   0.146  0.00  0.00    -0.244 OA
BRANCH  15  17
ATOM     17  C   UNL     1      -0.094   5.313   0.032  0.00  0.00    +0.074 A 
ATOM     18  C   UNL     1       1.097   5.981   0.004  0.00  0.00    +0.085 A 
ATOM     19  C   UNL     1       2.346   5.223  -0.011  0.00  0.00    +0.250 A 
ATOM     20  O   UNL     1       3.409   5.817  -0.035  0.00  0.00    -0.268 OA
ATOM     21  N   UNL     1       2.340   3.878   0.002  0.00  0.00    -0.322 N 
ATOM     22  H   UNL     1       3.184   3.399  -0.009  0.00  0.00    +0.169 HD
ATOM     23  C   UNL     1       1.160   3.167   0.029  0.00  0.00    +0.050 A 
ATOM     24  C   UNL     1      -0.074   3.842   0.044  0.00  0.00    +0.013 A 
ATOM     25  C   UNL     1      -1.266   3.112   0.073  0.00  0.00    +0.011 A 
ATOM     26  C   UNL     1      -1.227   1.747   0.078  0.00  0.00    +0.001 A 
ATOM     27  C   UNL     1      -0.012   1.076   0.068  0.00  0.00    +0.002 A 
ATOM     28  C   UNL     1       1.176   1.774   0.041  0.00  0.00    +0.026 A 
ENDBRANCH  15  17
ENDBRANCH   1  15
TORSDOF 3
