REMARK  Name = ZINC66644263
REMARK  7 active torsions:
REMARK  status: ('A' for Active; 'I' for Inactive)
REMARK    1  A    between atoms: C_1  and  C_2
REMARK    2  A    between atoms: C_2  and  C_4
REMARK    3  A    between atoms: C_2  and  N_21
REMARK    4  A    between atoms: C_4  and  C_5
REMARK    5  A    between atoms: N_7  and  N_8
REMARK    6  A    between atoms: C_9  and  C_11
REMARK    7  A    between atoms: C_22  and  C_24
REMARK                            x       y       z     vdW  Elec       q    Type
REMARK                         _______ _______ _______ _____ _____    ______ ____
ROOT
ATOM      1  C   UNL     1       0.632  -2.000  -1.327  0.00  0.00    +0.231 C 
ATOM      2  O   UNL     1       0.054  -2.616  -0.457  0.00  0.00    -0.274 OA
ATOM      3  N   UNL     1       1.196  -2.660  -2.358  0.00  0.00    -0.234 N 
ATOM      4  H   UNL     1       1.658  -2.168  -3.055  0.00  0.00    +0.173 HD
ENDROOT
BRANCH   3   5
ATOM      5  N   UNL     1       1.116  -4.057  -2.424  0.00  0.00    -0.231 N 
ATOM      6  C   UNL     1       1.680  -4.717  -3.455  0.00  0.00    +0.270 C 
ATOM      7  O   UNL     1       2.258  -4.101  -4.326  0.00  0.00    -0.270 OA
ATOM      8  H   UNL     1       0.654  -4.550  -1.728  0.00  0.00    +0.173 HD
BRANCH   6   9
ATOM      9  C   UNL     1       1.593  -6.220  -3.526  0.00  0.00    +0.264 C 
ATOM     10  C   UNL     1       2.418  -6.870  -2.390  0.00  0.00    +0.093 C 
ATOM     11  C   UNL     1       2.978  -8.102  -3.075  0.00  0.00    -0.002 A 
ATOM     12  C   UNL     1       3.562  -9.248  -2.583  0.00  0.00    +0.007 A 
ATOM     13  C   UNL     1       3.986 -10.236  -3.454  0.00  0.00    +0.000 A 
ATOM     14  C   UNL     1       3.822 -10.067  -4.817  0.00  0.00    +0.004 A 
ATOM     15  C   UNL     1       3.241  -8.918  -5.311  0.00  0.00    +0.046 A 
ATOM     16  C   UNL     1       2.814  -7.917  -4.441  0.00  0.00    +0.125 A 
ATOM     17  O   UNL     1       2.237  -6.712  -4.713  0.00  0.00    -0.479 OA
ENDBRANCH   6   9
ENDBRANCH   3   5
BRANCH   1  18
ATOM     18  C   UNL     1       0.718  -0.497  -1.257  0.00  0.00    +0.119 C 
BRANCH  18  20
ATOM     19  C   UNL     1      -0.019   1.526   0.010  0.00  0.00    +0.028 C 
ATOM     20  C   UNL     1       0.002  -0.004   0.002  0.00  0.00    +0.079 C 
BRANCH  20  21
ATOM     21  N   UNL     1       0.711  -0.489   1.189  0.00  0.00    -0.312 N 
ATOM     22  C   UNL     1       0.051  -0.633   2.355  0.00  0.00    +0.216 C 
ATOM     23  O   UNL     1      -1.129  -0.361   2.423  0.00  0.00    -0.276 OA
ATOM     24  H   UNL     1       1.654  -0.707   1.135  0.00  0.00    +0.149 HD
BRANCH  22  25
ATOM     25  C   UNL     1       0.780  -1.133   3.576  0.00  0.00    +0.075 C 
ATOM     26  C   UNL     1       1.347  -2.526   3.298  0.00  0.00    +0.013 C 
ATOM     27  C   UNL     1       2.087  -3.033   4.537  0.00  0.00    +0.001 C 
ATOM     28  C   UNL     1       1.116  -3.104   5.717  0.00  0.00    +0.000 C 
ATOM     29  C   UNL     1       0.549  -1.711   5.996  0.00  0.00    +0.001 C 
ATOM     30  C   UNL     1      -0.191  -1.204   4.756  0.00  0.00    +0.013 C 
ENDBRANCH  22  25
ENDBRANCH  20  21
ENDBRANCH  18  20
ENDBRANCH   1  18
TORSDOF 6
