REMARK  Name = ZINC32891924
REMARK  8 active torsions:
REMARK  status: ('A' for Active; 'I' for Inactive)
REMARK    1  A    between atoms: C_1  and  C_2
REMARK    2  A    between atoms: C_2  and  C_3
REMARK    3  A    between atoms: C_2  and  C_4
REMARK    4  A    between atoms: C_4  and  C_6
REMARK    5  A    between atoms: C_4  and  N_15
REMARK    6  A    between atoms: C_6  and  N_8
REMARK    7  A    between atoms: N_10  and  C_14
REMARK    8  A    between atoms: C_16  and  C_18
REMARK                            x       y       z     vdW  Elec       q    Type
REMARK                         _______ _______ _______ _____ _____    ______ ____
ROOT
ATOM      1  N   UNL     1      -2.155   0.035   1.154  0.00  0.00    -0.303 N 
ATOM      2  C   UNL     1      -2.067  -0.550   2.366  0.00  0.00    +0.220 C 
ATOM      3  O   UNL     1      -1.391  -1.546   2.511  0.00  0.00    -0.275 OA
ATOM      4  H   UNL     1      -2.696   0.831   1.038  0.00  0.00    +0.149 HD
ENDROOT
BRANCH   2   5
ATOM      5  C   UNL     1      -2.809   0.034   3.540  0.00  0.00    +0.048 C 
ATOM      6  C   UNL     1      -2.330   1.466   3.785  0.00  0.00    +0.019 C 
ATOM      7  C   UNL     1      -3.083   2.060   4.977  0.00  0.00    -0.009 C 
ATOM      8  C   UNL     1      -2.816   1.212   6.222  0.00  0.00    +0.007 C 
ATOM      9  C   UNL     1      -3.296  -0.220   5.977  0.00  0.00    -0.009 C 
ATOM     10  C   UNL     1      -2.542  -0.813   4.785  0.00  0.00    +0.019 C 
ATOM     11  C   UNL     1      -4.796  -0.211   5.679  0.00  0.00    +0.007 C 
ATOM     12  C   UNL     1      -5.064   0.637   4.433  0.00  0.00    -0.009 C 
ATOM     13  C   UNL     1      -4.584   2.069   4.678  0.00  0.00    +0.007 C 
ATOM     14  C   UNL     1      -4.310   0.043   3.241  0.00  0.00    +0.019 C 
ENDBRANCH   2   5
BRANCH   1  15
ATOM     15  C   UNL     1      -1.433  -0.534   0.013  0.00  0.00    +0.164 C 
BRANCH  15  17
ATOM     16  C   UNL     1      -0.019   1.526   0.010  0.00  0.00    +0.009 C 
ATOM     17  C   UNL     1       0.002  -0.004   0.002  0.00  0.00    +0.012 C 
ATOM     18  C   UNL     1       0.742  -0.511   1.242  0.00  0.00    +0.009 C 
ENDBRANCH  15  17
BRANCH  15  19
ATOM     19  C   UNL     1      -2.125  -0.137  -1.266  0.00  0.00    +0.259 C 
ATOM     20  O   UNL     1      -3.125   0.554  -1.228  0.00  0.00    -0.272 OA
BRANCH  19  21
ATOM     21  N   UNL     1      -1.642  -0.542  -2.434  0.00  0.00    -0.155 NA
ATOM     22  C   UNL     1      -2.255  -0.191  -3.567  0.00  0.00    +0.165 A 
ATOM     23  N   UNL     1      -1.916  -0.511  -4.845  0.00  0.00    -0.331 N 
ATOM     24  C   UNL     1      -2.686  -0.044  -5.864  0.00  0.00    +0.094 A 
ATOM     25  C   UNL     1      -3.741   0.711  -5.540  0.00  0.00    +0.066 A 
ATOM     26  S   UNL     1      -3.636   0.748  -3.760  0.00  0.00    -0.061 S 
ATOM     27  C   UNL     1      -0.742  -1.344  -5.118  0.00  0.00    +0.150 C 
ENDBRANCH  19  21
ENDBRANCH  15  19
ENDBRANCH   1  15
TORSDOF 5
