REMARK  Name = ZINC41091553
REMARK  12 active torsions:
REMARK  status: ('A' for Active; 'I' for Inactive)
REMARK    1  A    between atoms: C_1  and  C_2
REMARK    2  A    between atoms: C_2  and  N_3
REMARK    3  A    between atoms: N_3  and  C_4
REMARK    4  A    between atoms: N_3  and  C_6
REMARK    5  A    between atoms: C_4  and  C_5
REMARK    6  A    between atoms: C_6  and  C_7
REMARK    7  A    between atoms: C_7  and  C_8
REMARK    8  A    between atoms: C_8  and  C_9
REMARK    9  A    between atoms: C_9  and  C_11
REMARK   10  A    between atoms: C_9  and  N_12
REMARK   11  A    between atoms: N_12  and  S_13
REMARK   12  A    between atoms: S_13  and  C_16
REMARK                            x       y       z     vdW  Elec       q    Type
REMARK                         _______ _______ _______ _____ _____    ______ ____
ROOT
ATOM      1  S   UNL     1      -0.155  -2.579   5.858  0.00  0.00    +0.059 S 
ATOM      2  O   UNL     1      -1.168  -2.007   6.674  0.00  0.00    -0.153 OA
ATOM      3  O   UNL     1       0.751  -3.560   6.343  0.00  0.00    -0.153 OA
ENDROOT
BRANCH   1   4
ATOM      4  C   UNL     1       0.824  -1.242   5.258  0.00  0.00    +0.106 A 
ATOM      5  C   UNL     1       2.128  -1.471   4.860  0.00  0.00    +0.029 A 
ATOM      6  C   UNL     1       2.909  -0.430   4.387  0.00  0.00    +0.014 A 
ATOM      7  C   UNL     1       2.380   0.855   4.311  0.00  0.00    +0.033 A 
ATOM      8  C   UNL     1       1.053   1.087   4.715  0.00  0.00    +0.035 A 
ATOM      9  C   UNL     1       0.280   0.028   5.184  0.00  0.00    +0.041 A 
ATOM     10  C   UNL     1       0.483   2.449   4.638  0.00  0.00    +0.195 C 
ATOM     11  O   UNL     1      -0.663   2.649   4.988  0.00  0.00    -0.287 OA
ATOM     12  C   UNL     1       1.310   3.566   4.134  0.00  0.00    +0.033 A 
ATOM     13  C   UNL     1       0.781   4.851   4.058  0.00  0.00    +0.012 A 
ATOM     14  C   UNL     1       1.562   5.891   3.586  0.00  0.00    +0.001 A 
ATOM     15  C   UNL     1       2.866   5.663   3.187  0.00  0.00    +0.001 A 
ATOM     16  C   UNL     1       3.408   4.391   3.255  0.00  0.00    +0.012 A 
ATOM     17  C   UNL     1       2.636   3.333   3.729  0.00  0.00    +0.033 A 
ATOM     18  C   UNL     1       3.206   1.972   3.807  0.00  0.00    +0.195 C 
ATOM     19  O   UNL     1       4.352   1.771   3.457  0.00  0.00    -0.287 OA
ENDBRANCH   1   4
BRANCH   1  20
ATOM     20  N   UNL     1      -0.922  -3.249   4.551  0.00  0.00    -0.187 NA
ATOM     21  H   UNL     1      -1.889  -3.207   4.483  0.00  0.00    +0.148 HD
BRANCH  20  22
ATOM     22  C   UNL     1      -0.140  -3.903   3.499  0.00  0.00    +0.073 C 
ATOM     23  C   UNL     1      -0.077  -5.407   3.771  0.00  0.00    +0.025 C 
BRANCH  22  24
ATOM     24  C   UNL     1      -0.805  -3.658   2.143  0.00  0.00    +0.018 C 
BRANCH  24  25
ATOM     25  C   UNL     1      -0.756  -2.164   1.814  0.00  0.00    -0.017 C 
BRANCH  25  26
ATOM     26  C   UNL     1      -1.421  -1.919   0.458  0.00  0.00    -0.079 C 
BRANCH  26  27
ATOM     27  N   UNL     1      -1.374  -0.485   0.142  0.00  0.00    +0.379 N 
ATOM     28  H   UNL     1      -1.792   0.039   0.895  0.00  0.00    -0.082 HD
BRANCH  27  30
ATOM     29  C   UNL     1       0.082   1.451  -0.216  0.00  0.00    -0.017 C 
ATOM     30  C   UNL     1       0.024  -0.066  -0.029  0.00  0.00    -0.082 C 
ENDBRANCH  27  30
BRANCH  27  31
ATOM     31  C   UNL     1      -2.116  -0.233  -1.101  0.00  0.00    -0.082 C 
ATOM     32  C   UNL     1      -3.600  -0.533  -0.879  0.00  0.00    -0.017 C 
ENDBRANCH  27  31
ENDBRANCH  26  27
ENDBRANCH  25  26
ENDBRANCH  24  25
ENDBRANCH  22  24
ENDBRANCH  20  22
ENDBRANCH   1  20
TORSDOF 9
