REMARK  Name = ZINC05582070
REMARK  10 active torsions:
REMARK  status: ('A' for Active; 'I' for Inactive)
REMARK    1  A    between atoms: C_1  and  C_2
REMARK    2  A    between atoms: C_2  and  C_4
REMARK    3  A    between atoms: C_2  and  S_18
REMARK    4  A    between atoms: N_6  and  C_7
REMARK    5  A    between atoms: C_9  and  C_14
REMARK    6  A    between atoms: S_18  and  C_19
REMARK    7  A    between atoms: C_22  and  C_25
REMARK    8  A    between atoms: N_23  and  N_24
REMARK    9  A    between atoms: C_25  and  C_26
REMARK   10  A    between atoms: C_25  and  C_27
REMARK                            x       y       z     vdW  Elec       q    Type
REMARK                         _______ _______ _______ _____ _____    ______ ____
ROOT
ATOM      1  C   UNL     1      -1.410  -0.529   0.012  0.00  0.00    +0.230 C 
ATOM      2  O   UNL     1      -1.939  -0.824   1.063  0.00  0.00    -0.274 OA
ATOM      3  N   UNL     1      -2.090  -0.657  -1.144  0.00  0.00    -0.283 N 
ATOM      4  H   UNL     1      -1.697  -0.347  -1.975  0.00  0.00    +0.155 HD
ENDROOT
BRANCH   3   5
ATOM      5  C   UNL     1      -3.364  -1.239  -1.147  0.00  0.00    +0.052 A 
ATOM      6  C   UNL     1      -3.726  -2.124  -0.140  0.00  0.00    +0.037 A 
ATOM      7  C   UNL     1      -4.983  -2.696  -0.145  0.00  0.00    +0.057 A 
ATOM      8  C   UNL     1      -5.881  -2.389  -1.151  0.00  0.00    +0.014 A 
ATOM      9  C   UNL     1      -5.524  -1.508  -2.155  0.00  0.00    +0.022 A 
ATOM     10  C   UNL     1      -4.269  -0.927  -2.153  0.00  0.00    +0.062 A 
ATOM     11 CL   UNL     1      -3.824   0.184  -3.410  0.00  0.00    -0.082 Cl
BRANCH   7  12
ATOM     12  C   UNL     1      -5.377  -3.656   0.947  0.00  0.00    +0.417 C 
ATOM     13  F   UNL     1      -5.960  -2.948   2.004  0.00  0.00    -0.166 F 
ATOM     14  F   UNL     1      -6.297  -4.583   0.444  0.00  0.00    -0.166 F 
ATOM     15  F   UNL     1      -4.241  -4.330   1.408  0.00  0.00    -0.166 F 
ENDBRANCH   7  12
ENDBRANCH   3   5
BRANCH   1  17
ATOM     16  C   UNL     1      -0.001   1.512   0.006  0.00  0.00    +0.029 C 
ATOM     17  C   UNL     1       0.008  -0.018   0.000  0.00  0.00    +0.137 C 
BRANCH  17  18
ATOM     18  S   UNL     1       0.881  -0.624   1.470  0.00  0.00    -0.072 S 
BRANCH  18  19
ATOM     19  C   UNL     1       2.539  -0.074   1.238  0.00  0.00    +0.209 A 
ATOM     20  N   UNL     1       2.996   0.619   0.221  0.00  0.00    -0.121 NA
ATOM     21  N   UNL     1       4.251   0.846   0.377  0.00  0.00    -0.132 NA
ATOM     22  C   UNL     1       4.667   0.316   1.492  0.00  0.00    +0.154 A 
ATOM     23  N   UNL     1       3.590  -0.284   2.084  0.00  0.00    -0.228 N 
BRANCH  23  24
ATOM     24  N   UNL     1       3.570  -0.957   3.273  0.00  0.00    -0.295 N 
ATOM     25  H   UNL     1       3.768  -1.937   3.137  0.00  0.00    +0.163 HD
ATOM     26  H   UNL     1       4.215  -0.545   3.931  0.00  0.00    +0.163 HD
ENDBRANCH  23  24
BRANCH  22  27
ATOM     27  C   UNL     1       6.072   0.362   2.034  0.00  0.00    +0.052 C 
ATOM     28  C   UNL     1       7.025  -0.302   1.037  0.00  0.00    +0.015 C 
ATOM     29  C   UNL     1       6.490   1.819   2.245  0.00  0.00    +0.015 C 
ENDBRANCH  22  27
ENDBRANCH  18  19
ENDBRANCH  17  18
ENDBRANCH   1  17
TORSDOF 7
