REMARK  Name = ZINC43740370
REMARK  6 active torsions:
REMARK  status: ('A' for Active; 'I' for Inactive)
REMARK    1  A    between atoms: C_1  and  C_2
REMARK    2  A    between atoms: C_19  and  C_21
REMARK    3  A    between atoms: C_21  and  N_22
REMARK    4  A    between atoms: N_22  and  C_23
REMARK    5  A    between atoms: C_29  and  C_31
REMARK    6  A    between atoms: C_31  and  C_32
REMARK                            x       y       z     vdW  Elec       q    Type
REMARK                         _______ _______ _______ _____ _____    ______ ____
ROOT
ATOM      1  C   UNL     1      -0.019   1.526   0.010  0.00  0.00    +0.012 C 
ATOM      2  C   UNL     1       0.002  -0.004   0.002  0.00  0.00    -0.022 C 
ATOM      3  C   UNL     1       0.719  -0.500  -1.252  0.00  0.00    +0.007 C 
ATOM      4  C   UNL     1       2.124   0.103  -1.315  0.00  0.00    +0.005 C 
ATOM      5  C   UNL     1       2.947  -0.385  -0.119  0.00  0.00    +0.030 C 
ATOM      6  C   UNL     1       2.187  -0.074   1.153  0.00  0.00    -0.073 C 
ATOM      7  C   UNL     1       2.762   0.560   2.144  0.00  0.00    +0.008 C 
ATOM      8  C   UNL     1       0.744  -0.516   1.245  0.00  0.00    +0.021 C 
ATOM      9  C   UNL     1       0.093   0.123   2.471  0.00  0.00    +0.016 C 
ATOM     10  C   UNL     1      -1.368  -0.240   2.570  0.00  0.00    +0.042 C 
ATOM     11  C   UNL     1      -2.163   0.002   1.272  0.00  0.00    +0.181 C 
ATOM     12  C   UNL     1      -1.427  -0.535   0.053  0.00  0.00    +0.052 C 
ATOM     13  O   UNL     1      -3.312  -0.866   1.477  0.00  0.00    -0.461 OA
ATOM     14  C   UNL     1      -2.858  -2.029   1.992  0.00  0.00    +0.309 C 
ATOM     15  O   UNL     1      -3.372  -3.112   1.845  0.00  0.00    -0.251 OA
ATOM     16  C   UNL     1      -1.595  -1.750   2.775  0.00  0.00    +0.087 C 
ENDROOT
BRANCH  16  17
ATOM     17  C   UNL     1      -1.810  -2.068   4.257  0.00  0.00    -0.067 C 
BRANCH  17  18
ATOM     18  N   UNL     1      -1.903  -3.523   4.437  0.00  0.00    +0.382 N 
ATOM     19  H   UNL     1      -2.680  -3.879   3.900  0.00  0.00    -0.085 HD
ATOM     20  H   UNL     1      -1.049  -3.956   4.120  0.00  0.00    -0.085 HD
BRANCH  18  21
ATOM     21  C   UNL     1      -2.110  -3.828   5.859  0.00  0.00    -0.068 C 
ATOM     22  C   UNL     1      -0.876  -3.399   6.657  0.00  0.00    -0.015 C 
ATOM     23  C   UNL     1       0.350  -4.157   6.145  0.00  0.00    -0.002 C 
ATOM     24  C   UNL     1       0.129  -5.661   6.317  0.00  0.00    +0.000 C 
ATOM     25  C   UNL     1      -1.105  -6.090   5.520  0.00  0.00    +0.002 C 
ATOM     26  C   UNL     1      -2.331  -5.332   6.031  0.00  0.00    -0.018 C 
BRANCH  26  27
ATOM     27  C   UNL     1      -3.565  -5.760   5.233  0.00  0.00    +0.076 C 
BRANCH  27  28
ATOM     28  C   UNL     1      -3.855  -7.214   5.500  0.00  0.00    +0.105 A 
ATOM     29  C   UNL     1      -4.651  -7.692   6.474  0.00  0.00    +0.044 A 
ATOM     30  C   UNL     1      -4.638  -9.101   6.359  0.00  0.00    +0.041 A 
ATOM     31  C   UNL     1      -3.835  -9.400   5.322  0.00  0.00    +0.195 A 
ATOM     32  O   UNL     1      -3.368  -8.253   4.802  0.00  0.00    -0.468 OA
ENDBRANCH  27  28
ENDBRANCH  26  27
ENDBRANCH  18  21
ENDBRANCH  17  18
ENDBRANCH  16  17
TORSDOF 5
