REMARK  Name = ZINC20638662
REMARK  4 active torsions:
REMARK  status: ('A' for Active; 'I' for Inactive)
REMARK    1  A    between atoms: C_10  and  C_27
REMARK    2  A    between atoms: N_16  and  C_19
REMARK    3  A    between atoms: C_19  and  C_20
REMARK    4  A    between atoms: C_20  and  C_21
REMARK                            x       y       z     vdW  Elec       q    Type
REMARK                         _______ _______ _______ _____ _____    ______ ____
ROOT
ATOM      1  C   UNL     1      -2.191  -3.249   1.163  0.00  0.00    +0.002 A 
ATOM      2  C   UNL     1      -2.720  -2.013   1.490  0.00  0.00    +0.002 A 
ATOM      3  C   UNL     1      -2.082  -0.829   1.159  0.00  0.00    +0.028 A 
ATOM      4  C   UNL     1      -0.874  -0.928   0.477  0.00  0.00    +0.072 A 
ATOM      5  C   UNL     1      -0.327  -2.194   0.143  0.00  0.00    +0.091 A 
ATOM      6  C   UNL     1      -0.991  -3.376   0.487  0.00  0.00    +0.030 A 
ATOM      7  N   UNL     1       0.838  -1.974  -0.503  0.00  0.00    -0.214 NA
ATOM      8  C   UNL     1       1.053  -0.695  -0.582  0.00  0.00    +0.209 A 
ATOM      9  N   UNL     1       0.002  -0.004   0.002  0.00  0.00    -0.284 N 
ATOM     10  C   UNL     1      -0.018   1.462   0.010  0.00  0.00    +0.243 C 
ATOM     11  N   UNL     1       1.369   1.950  -0.001  0.00  0.00    -0.225 NA
ATOM     12  C   UNL     1       2.327   1.289  -0.576  0.00  0.00    +0.189 C 
ATOM     13  N   UNL     1       2.112   0.025  -1.102  0.00  0.00    -0.230 N 
ATOM     14  C   UNL     1       2.954  -0.485  -2.178  0.00  0.00    +0.204 C 
ATOM     15  N   UNL     1       4.340  -0.031  -1.976  0.00  0.00    -0.270 NA
ATOM     16  C   UNL     1       4.389   1.438  -1.873  0.00  0.00    +0.193 C 
ATOM     17  N   UNL     1       3.585   1.843  -0.706  0.00  0.00    -0.304 N 
ATOM     18  H   UNL     1       3.992   2.560   0.021  0.00  0.00    +0.150 HD
ENDROOT
BRANCH  10  19
ATOM     19  C   UNL     1      -0.741   1.964  -1.213  0.00  0.00    +0.015 A 
ATOM     20  C   UNL     1      -2.063   2.372  -1.129  0.00  0.00    +0.010 A 
ATOM     21  C   UNL     1      -2.687   2.831  -2.279  0.00  0.00    +0.020 A 
ATOM     22  C   UNL     1      -1.977   2.858  -3.464  0.00  0.00    +0.111 A 
ATOM     23  N   UNL     1      -0.722   2.458  -3.508  0.00  0.00    -0.263 NA
ATOM     24  C   UNL     1      -0.096   2.020  -2.434  0.00  0.00    +0.118 A 
ENDBRANCH  10  19
BRANCH  15  25
ATOM     25  C   UNL     1       5.214  -0.512  -3.054  0.00  0.00    +0.092 C 
BRANCH  25  26
ATOM     26  C   UNL     1       6.674  -0.239  -2.687  0.00  0.00    +0.046 C 
BRANCH  26  27
ATOM     27  C   UNL     1       7.571  -0.733  -3.792  0.00  0.00    -0.072 C 
ATOM     28  C   UNL     1       7.949   0.117  -4.692  0.00  0.00    -0.028 C 
ATOM     29  C   UNL     1       8.832  -0.228  -5.856  0.00  0.00    +0.027 C 
ATOM     30  C   UNL     1       9.546  -1.557  -5.601  0.00  0.00    +0.004 C 
ATOM     31  C   UNL     1       8.503  -2.590  -5.155  0.00  0.00    +0.005 C 
ATOM     32  C   UNL     1       7.976  -2.178  -3.777  0.00  0.00    +0.030 C 
ENDBRANCH  26  27
ENDBRANCH  25  26
ENDBRANCH  15  25
TORSDOF 4
