REMARK  Name = ZINC30590107
REMARK  5 active torsions:
REMARK  status: ('A' for Active; 'I' for Inactive)
REMARK    1  A    between atoms: C_4  and  N_7
REMARK    2  A    between atoms: N_10  and  C_11
REMARK    3  A    between atoms: C_11  and  C_12
REMARK    4  A    between atoms: N_18  and  C_19
REMARK    5  A    between atoms: C_19  and  C_20
REMARK                            x       y       z     vdW  Elec       q    Type
REMARK                         _______ _______ _______ _____ _____    ______ ____
ROOT
ATOM      1  C   UNL     1      -2.247   0.987  -1.155  0.00  0.00    -0.051 C 
ATOM      2  C   UNL     1      -0.855   1.617  -1.235  0.00  0.00    -0.014 C 
ATOM      3  C   UNL     1      -0.002   1.108  -0.069  0.00  0.00    -0.003 C 
ATOM      4  C   UNL     1      -0.700   1.447   1.251  0.00  0.00    -0.019 C 
ATOM      5  C   UNL     1      -2.098   0.821   1.258  0.00  0.00    -0.078 C 
ATOM      6  N   UNL     1      -2.874   1.341   0.124  0.00  0.00    +0.387 N 
ATOM      7  H   UNL     1      -2.885   2.438   0.200  0.00  0.00    -0.081 HD
ENDROOT
BRANCH   1   8
ATOM      8  C   UNL     1      -3.109   1.508  -2.307  0.00  0.00    +0.090 C 
BRANCH   8  12
ATOM      9  N   UNL     1      -4.368   4.924  -2.819  0.00  0.00    -0.269 N 
ATOM     10  C   UNL     1      -4.158   3.603  -2.978  0.00  0.00    +0.304 C 
ATOM     11  O   UNL     1      -4.707   3.004  -3.882  0.00  0.00    -0.253 OA
ATOM     12  N   UNL     1      -3.338   2.945  -2.134  0.00  0.00    -0.301 N 
ATOM     13  H   UNL     1      -3.806   5.483  -2.055  0.00  0.00    +0.156 HD
ATOM     14  H   UNL     1      -2.840   3.486  -1.316  0.00  0.00    +0.150 HD
BRANCH   9  18
ATOM     15  C   UNL     1      -7.144   6.896  -5.219  0.00  0.00    +0.000 A 
ATOM     16  C   UNL     1      -7.296   5.547  -4.954  0.00  0.00    +0.002 A 
ATOM     17  C   UNL     1      -6.378   4.891  -4.158  0.00  0.00    +0.023 A 
ATOM     18  C   UNL     1      -5.300   5.587  -3.625  0.00  0.00    +0.035 A 
ATOM     19  C   UNL     1      -5.153   6.942  -3.890  0.00  0.00    +0.023 A 
ATOM     20  C   UNL     1      -6.073   7.591  -4.690  0.00  0.00    +0.002 A 
ENDBRANCH   9  18
ENDBRANCH   8  12
ENDBRANCH   1   8
BRANCH   6  21
ATOM     21  C   UNL     1      -4.264   0.868   0.178  0.00  0.00    -0.003 C 
BRANCH  21  22
ATOM     22  C   UNL     1      -4.988   1.565   1.302  0.00  0.00    +0.094 A 
ATOM     23  N   UNL     1      -6.296   1.280   1.529  0.00  0.00    -0.312 N 
ATOM     24  H   UNL     1      -6.818   0.549   0.893  0.00  0.00    +0.170 HD
ATOM     25  C   UNL     1      -6.980   1.876   2.524  0.00  0.00    +0.260 A 
ATOM     26  O   UNL     1      -8.152   1.607   2.720  0.00  0.00    -0.267 OA
ATOM     27  C   UNL     1      -6.304   2.835   3.346  0.00  0.00    +0.075 A 
ATOM     28  C   UNL     1      -6.848   3.605   4.475  0.00  0.00    -0.023 A 
ATOM     29  C   UNL     1      -6.007   4.450   5.095  0.00  0.00    -0.004 A 
ATOM     30  S   UNL     1      -4.463   4.279   4.230  0.00  0.00    -0.073 S 
ATOM     31  C   UNL     1      -4.958   3.067   3.034  0.00  0.00    +0.116 A 
ATOM     32  N   UNL     1      -4.347   2.435   2.035  0.00  0.00    -0.229 NA
ATOM     33  C   UNL     1      -6.670   5.178   6.233  0.00  0.00    +0.043 C 
ATOM     34  C   UNL     1      -7.945   4.357   6.528  0.00  0.00    +0.010 C 
ATOM     35  C   UNL     1      -8.213   3.694   5.163  0.00  0.00    +0.037 C 
ENDBRANCH  21  22
ENDBRANCH   6  21
TORSDOF 5
