REMARK  Name = ZINC20764325
REMARK  10 active torsions:
REMARK  status: ('A' for Active; 'I' for Inactive)
REMARK    1  A    between atoms: C_1  and  C_2
REMARK    2  A    between atoms: C_2  and  O_3
REMARK    3  A    between atoms: O_3  and  C_4
REMARK    4  A    between atoms: C_7  and  C_10
REMARK    5  A    between atoms: C_12  and  C_28
REMARK    6  A    between atoms: C_15  and  C_18
REMARK    7  A    between atoms: C_22  and  O_25
REMARK    8  A    between atoms: C_23  and  O_24
REMARK    9  A    between atoms: O_25  and  C_26
REMARK   10  A    between atoms: C_26  and  C_27
REMARK                            x       y       z     vdW  Elec       q    Type
REMARK                         _______ _______ _______ _____ _____    ______ ____
ROOT
ATOM      1  C   UNL     1       2.030   1.401  -1.360  0.00  0.00    +0.040 C 
ATOM      2  N   UNL     1       1.336   1.121  -2.399  0.00  0.00    -0.299 NA
ATOM      3  C   UNL     1      -0.114   0.970  -2.399  0.00  0.00    +0.081 C 
ATOM      4  N   UNL     1      -0.698   1.580  -1.199  0.00  0.00    +0.401 N 
ATOM      5  C   UNL     1      -0.013   1.086   0.008  0.00  0.00    -0.028 C 
ATOM      6  C   UNL     1       1.422   1.622  -0.003  0.00  0.00    +0.044 C 
ATOM      7  H   UNL     1      -0.588   2.673  -1.252  0.00  0.00    -0.081 HD
ATOM      8  H   UNL     1      -1.765   1.321  -1.138  0.00  0.00    -0.081 HD
ENDROOT
BRANCH   3   9
ATOM      9  C   UNL     1      -0.682   1.641  -3.623  0.00  0.00    -0.039 A 
ATOM     10  C   UNL     1      -1.954   2.182  -3.586  0.00  0.00    +0.006 A 
ATOM     11  C   UNL     1      -2.475   2.803  -4.705  0.00  0.00    +0.040 A 
ATOM     12  C   UNL     1      -1.727   2.873  -5.868  0.00  0.00    +0.137 A 
ATOM     13  C   UNL     1      -0.455   2.327  -5.906  0.00  0.00    +0.053 A 
ATOM     14  C   UNL     1       0.066   1.711  -4.783  0.00  0.00    +0.022 A 
ATOM     15 BR   UNL     1       0.568   2.422  -7.493  0.00  0.00    -0.047 Br
ATOM     16  F   UNL     1      -2.238   3.475  -6.965  0.00  0.00    -0.204 F 
ENDBRANCH   3   9
BRANCH   1  20
ATOM     17  C   UNL     1       6.243   1.725  -1.767  0.00  0.00    +0.121 A 
ATOM     18  C   UNL     1       5.462   1.420  -2.874  0.00  0.00    +0.046 A 
ATOM     19  C   UNL     1       4.094   1.314  -2.747  0.00  0.00    +0.013 A 
ATOM     20  C   UNL     1       3.493   1.513  -1.501  0.00  0.00    -0.004 A 
ATOM     21  C   UNL     1       4.282   1.824  -0.391  0.00  0.00    +0.013 A 
ATOM     22  C   UNL     1       5.650   1.924  -0.526  0.00  0.00    +0.046 A 
BRANCH  17  23
ATOM     23  O   UNL     1       7.590   1.829  -1.897  0.00  0.00    -0.492 OA
BRANCH  23  25
ATOM     24  C   UNL     1       9.823   2.219  -1.058  0.00  0.00    +0.048 C 
ATOM     25  C   UNL     1       8.334   2.144  -0.718  0.00  0.00    +0.225 C 
ENDBRANCH  23  25
ENDBRANCH  17  23
ENDBRANCH   1  20
BRANCH   5  26
ATOM     26  C   UNL     1      -0.730   1.578   1.239  0.00  0.00    -0.016 A 
ATOM     27  C   UNL     1      -1.578   2.667   1.156  0.00  0.00    +0.006 A 
ATOM     28  C   UNL     1      -2.241   3.118   2.281  0.00  0.00    +0.004 A 
ATOM     29  C   UNL     1      -2.052   2.488   3.498  0.00  0.00    +0.049 A 
ATOM     30  C   UNL     1      -1.200   1.399   3.589  0.00  0.00    +0.162 A 
ATOM     31  C   UNL     1      -0.536   0.942   2.454  0.00  0.00    +0.160 A 
BRANCH  31  32
ATOM     32  O   UNL     1       0.301  -0.126   2.538  0.00  0.00    -0.503 OA
ATOM     33  H   UNL     1       0.455  -0.630   3.504  0.00  0.00    +0.292 HD
ENDBRANCH  31  32
BRANCH  30  34
ATOM     34  O   UNL     1      -1.013   0.778   4.784  0.00  0.00    -0.489 OA
BRANCH  34  35
ATOM     35  C   UNL     1      -1.727   1.302   5.906  0.00  0.00    +0.226 C 
ATOM     36  C   UNL     1      -1.392   0.481   7.152  0.00  0.00    +0.048 C 
ENDBRANCH  34  35
ENDBRANCH  30  34
ENDBRANCH   5  26
TORSDOF 8
