REMARK  Name = ZINC38729204
REMARK  8 active torsions:
REMARK  status: ('A' for Active; 'I' for Inactive)
REMARK    1  A    between atoms: C_1  and  O_2
REMARK    2  A    between atoms: O_2  and  C_3
REMARK    3  A    between atoms: C_3  and  C_5
REMARK    4  A    between atoms: C_5  and  C_7
REMARK    5  A    between atoms: C_5  and  N_17
REMARK    6  A    between atoms: C_7  and  C_8
REMARK    7  A    between atoms: C_18  and  C_20
REMARK    8  A    between atoms: C_26  and  C_28
REMARK                            x       y       z     vdW  Elec       q    Type
REMARK                         _______ _______ _______ _____ _____    ______ ____
ROOT
ATOM      1  N   UNL     1       0.684  -1.336   3.163  0.00  0.00    -0.302 N 
ATOM      2  C   UNL     1       0.773  -2.644   3.477  0.00  0.00    +0.218 C 
ATOM      3  O   UNL     1       0.273  -3.477   2.752  0.00  0.00    -0.275 OA
ATOM      4  H   UNL     1       1.084  -0.669   3.743  0.00  0.00    +0.150 HD
ENDROOT
BRANCH   2   5
ATOM      5  C   UNL     1       1.494  -3.070   4.730  0.00  0.00    +0.091 C 
ATOM      6  C   UNL     1       1.978  -4.514   4.579  0.00  0.00    +0.040 C 
ATOM      7  C   UNL     1       0.810  -5.456   4.599  0.00  0.00    -0.030 C 
ATOM      8  C   UNL     1      -0.367  -5.142   5.037  0.00  0.00    -0.030 C 
ATOM      9  C   UNL     1      -0.731  -3.789   5.575  0.00  0.00    +0.040 C 
ATOM     10  C   UNL     1       0.535  -2.998   5.926  0.00  0.00    +0.091 C 
BRANCH  10  11
ATOM     11  C   UNL     1       0.182  -1.560   6.206  0.00  0.00    +0.220 C 
ATOM     12  O   UNL     1      -0.835  -1.085   5.748  0.00  0.00    -0.275 OA
ATOM     13  N   UNL     1       0.997  -0.802   6.966  0.00  0.00    -0.297 N 
ATOM     14  C   UNL     1       0.623   0.566   7.361  0.00  0.00    +0.113 C 
ATOM     15  C   UNL     1       0.477   0.593   8.882  0.00  0.00    +0.054 C 
ATOM     16  C   UNL     1       1.653  -0.072   9.545  0.00  0.00    -0.041 A 
ATOM     17  C   UNL     1       1.897   0.230  10.879  0.00  0.00    +0.004 A 
ATOM     18  C   UNL     1       2.952  -0.351  11.550  0.00  0.00    +0.000 A 
ATOM     19  C   UNL     1       3.776  -1.246  10.891  0.00  0.00    +0.000 A 
ATOM     20  C   UNL     1       3.539  -1.546   9.566  0.00  0.00    +0.005 A 
ATOM     21  C   UNL     1       2.480  -0.956   8.888  0.00  0.00    -0.027 A 
ATOM     22  C   UNL     1       2.290  -1.309   7.439  0.00  0.00    +0.143 C 
ENDBRANCH  10  11
ENDBRANCH   2   5
BRANCH   1  23
ATOM     23  C   UNL     1      -0.016  -0.921   1.945  0.00  0.00    +0.186 C 
BRANCH  23  24
ATOM     24  C   UNL     1      -1.492  -0.805   2.229  0.00  0.00    +0.328 C 
ATOM     25  O   UNL     1      -1.915  -1.044   3.335  0.00  0.00    -0.249 OA
BRANCH  24  27
ATOM     26  C   UNL     1      -3.721  -0.347   1.592  0.00  0.00    +0.280 C 
ATOM     27  O   UNL     1      -2.336  -0.436   1.252  0.00  0.00    -0.467 OA
ENDBRANCH  24  27
ENDBRANCH  23  24
BRANCH  23  28
ATOM     28  C   UNL     1       0.523   0.434   1.483  0.00  0.00    +0.071 C 
BRANCH  28  29
ATOM     29  C   UNL     1       1.968   0.290   1.083  0.00  0.00    -0.020 A 
ATOM     30  C   UNL     1       2.471  -0.137  -0.225  0.00  0.00    +0.003 A 
ATOM     31  C   UNL     1       1.863  -0.516  -1.423  0.00  0.00    +0.010 A 
ATOM     32  C   UNL     1       2.634  -0.869  -2.494  0.00  0.00    +0.001 A 
ATOM     33  C   UNL     1       4.019  -0.854  -2.401  0.00  0.00    +0.002 A 
ATOM     34  C   UNL     1       4.640  -0.483  -1.229  0.00  0.00    +0.026 A 
ATOM     35  C   UNL     1       3.875  -0.119  -0.126  0.00  0.00    +0.047 A 
ATOM     36  N   UNL     1       4.187   0.289   1.151  0.00  0.00    -0.360 N 
ATOM     37  C   UNL     1       3.039   0.534   1.854  0.00  0.00    +0.087 A 
ATOM     38  H   UNL     1       5.086   0.392   1.499  0.00  0.00    +0.165 HD
ENDBRANCH  28  29
ENDBRANCH  23  28
ENDBRANCH   1  23
TORSDOF 7
