REMARK  Name = ZINC10247628
REMARK  8 active torsions:
REMARK  status: ('A' for Active; 'I' for Inactive)
REMARK    1  A    between atoms: C_1  and  N_2
REMARK    2  A    between atoms: N_2  and  C_3
REMARK    3  A    between atoms: C_6  and  N_25
REMARK    4  A    between atoms: C_8  and  C_9
REMARK    5  A    between atoms: C_9  and  O_11
REMARK    6  A    between atoms: O_11  and  C_12
REMARK    7  A    between atoms: C_12  and  C_13
REMARK    8  A    between atoms: C_13  and  C_15
REMARK                            x       y       z     vdW  Elec       q    Type
REMARK                         _______ _______ _______ _____ _____    ______ ____
ROOT
ATOM      1  C   UNL     1      -2.207  -4.373  -0.022  0.00  0.00    +0.341 C 
ATOM      2  O   UNL     1      -1.153  -4.977  -0.025  0.00  0.00    -0.245 OA
ENDROOT
BRANCH   1   8
ATOM      3  C   UNL     1      -3.484  -6.514  -0.105  0.00  0.00    +0.041 A 
ATOM      4  C   UNL     1      -4.692  -7.201  -0.086  0.00  0.00    +0.026 A 
ATOM      5  C   UNL     1      -5.879  -6.509   0.034  0.00  0.00    +0.034 A 
ATOM      6  C   UNL     1      -5.878  -5.126   0.136  0.00  0.00    +0.127 A 
ATOM      7  C   UNL     1      -4.691  -4.428   0.123  0.00  0.00    +0.049 A 
ATOM      8  C   UNL     1      -3.480  -5.114  -0.003  0.00  0.00    +0.082 A 
BRANCH   3  10
ATOM      9  C   UNL     1      -2.301  -8.655  -0.454  0.00  0.00    +0.125 C 
ATOM     10  N   UNL     1      -2.288  -7.208  -0.226  0.00  0.00    -0.346 N 
ATOM     11  H   UNL     1      -1.444  -6.736  -0.159  0.00  0.00    +0.146 HD
ENDBRANCH   3  10
BRANCH   6  12
ATOM     12  N   UNL     1      -7.160  -4.397   0.265  0.00  0.00    +0.056 N 
ATOM     13  O   UNL     1      -8.211  -5.012   0.281  0.00  0.00    -0.126 OA
ATOM     14  O   UNL     1      -7.164  -3.182   0.354  0.00  0.00    -0.126 OA
ENDBRANCH   6  12
ENDBRANCH   1   8
BRANCH   1  15
ATOM     15  O   UNL     1      -2.212  -3.025  -0.038  0.00  0.00    -0.453 OA
BRANCH  15  16
ATOM     16  C   UNL     1      -0.921  -2.361  -0.056  0.00  0.00    +0.312 C 
BRANCH  16  17
ATOM     17  C   UNL     1      -1.124  -0.868  -0.072  0.00  0.00    +0.202 C 
ATOM     18  O   UNL     1      -2.247  -0.408  -0.067  0.00  0.00    -0.288 OA
BRANCH  17  19
ATOM     19  C   UNL     1      -0.003  -0.001  -0.091  0.00  0.00    +0.046 A 
ATOM     20  C   UNL     1       1.326  -0.366  -0.099  0.00  0.00    +0.095 A 
ATOM     21  N   UNL     1       2.098   0.737  -0.118  0.00  0.00    -0.360 N 
ATOM     22  H   UNL     1       3.068   0.731  -0.126  0.00  0.00    +0.165 HD
ATOM     23  C   UNL     1       1.321   1.877  -0.124  0.00  0.00    +0.047 A 
ATOM     24  C   UNL     1      -0.024   1.475  -0.108  0.00  0.00    +0.010 A 
ATOM     25  C   UNL     1      -1.039   2.427  -0.105  0.00  0.00    +0.011 A 
ATOM     26  C   UNL     1      -0.717   3.767  -0.129  0.00  0.00    +0.001 A 
ATOM     27  C   UNL     1       0.611   4.167  -0.145  0.00  0.00    +0.002 A 
ATOM     28  C   UNL     1       1.625   3.234  -0.142  0.00  0.00    +0.026 A 
ENDBRANCH  17  19
ENDBRANCH  16  17
ENDBRANCH  15  16
ENDBRANCH   1  15
TORSDOF 7
