REMARK  Name = ZINC16615039
REMARK  8 active torsions:
REMARK  status: ('A' for Active; 'I' for Inactive)
REMARK    1  A    between atoms: C_1  and  C_2
REMARK    2  A    between atoms: C_6  and  N_9
REMARK    3  A    between atoms: C_7  and  C_8
REMARK    4  A    between atoms: C_13  and  S_15
REMARK    5  A    between atoms: S_15  and  C_16
REMARK    6  A    between atoms: C_16  and  C_17
REMARK    7  A    between atoms: N_22  and  C_23
REMARK    8  A    between atoms: C_23  and  C_24
REMARK                            x       y       z     vdW  Elec       q    Type
REMARK                         _______ _______ _______ _____ _____    ______ ____
ROOT
ATOM      1  S   UNL     1      -0.353  -8.497   3.374  0.00  0.00    -0.088 S 
ENDROOT
BRANCH   1   6
ATOM      2  N   UNL     1       0.050  -2.797   2.390  0.00  0.00    -0.292 N 
ATOM      3  C   UNL     1      -0.037  -4.185   2.383  0.00  0.00    +0.187 A 
ATOM      4  N   UNL     1      -0.044  -5.016   1.359  0.00  0.00    -0.125 NA
ATOM      5  N   UNL     1      -0.139  -6.371   1.578  0.00  0.00    -0.133 NA
ATOM      6  C   UNL     1      -0.222  -6.832   2.811  0.00  0.00    +0.160 A 
ATOM      7  S   UNL     1      -0.161  -5.319   3.757  0.00  0.00    -0.024 S 
ATOM      8  H   UNL     1       0.114  -2.320   3.232  0.00  0.00    +0.154 HD
BRANCH   2  14
ATOM      9  C   UNL     1       0.501   1.465  -0.015  0.00  0.00    +0.044 C 
ATOM     10  C   UNL     1       0.262  -0.023  -0.011  0.00  0.00    -0.046 A 
ATOM     11  C   UNL     1       0.039  -0.690  -1.202  0.00  0.00    +0.004 A 
ATOM     12  C   UNL     1      -0.180  -2.055  -1.202  0.00  0.00    +0.002 A 
ATOM     13  C   UNL     1      -0.177  -2.757  -0.012  0.00  0.00    +0.023 A 
ATOM     14  C   UNL     1       0.047  -2.090   1.185  0.00  0.00    +0.036 A 
ATOM     15  C   UNL     1       0.273  -0.719   1.181  0.00  0.00    -0.026 A 
ATOM     16  C   UNL     1       0.522   0.008   2.478  0.00  0.00    +0.046 C 
ENDBRANCH   2  14
ENDBRANCH   1   6
BRANCH   1  17
ATOM     17  C   UNL     1      -0.347  -9.478   1.848  0.00  0.00    +0.172 C 
BRANCH  17  18
ATOM     18  C   UNL     1      -0.456 -10.941   2.192  0.00  0.00    +0.231 C 
ATOM     19  O   UNL     1      -0.529 -11.288   3.351  0.00  0.00    -0.274 OA
ATOM     20  N   UNL     1      -0.471 -11.864   1.210  0.00  0.00    -0.239 N 
ATOM     21  C   UNL     1      -0.567 -13.173   1.517  0.00  0.00    +0.306 C 
ATOM     22  O   UNL     1      -0.641 -13.521   2.679  0.00  0.00    -0.252 OA
ATOM     23  N   UNL     1      -0.582 -14.096   0.535  0.00  0.00    -0.294 N 
ATOM     24  H   UNL     1      -0.412 -11.587   0.282  0.00  0.00    +0.159 HD
ATOM     25  H   UNL     1      -0.523 -13.819  -0.393  0.00  0.00    +0.151 HD
BRANCH  23  26
ATOM     26  C   UNL     1      -0.687 -15.519   0.869  0.00  0.00    +0.148 C 
BRANCH  26  27
ATOM     27  C   UNL     1      -0.683 -16.334  -0.399  0.00  0.00    +0.007 A 
ATOM     28  C   UNL     1       0.369 -16.867  -1.067  0.00  0.00    +0.013 A 
ATOM     29  C   UNL     1       0.134 -17.587  -2.223  0.00  0.00    +0.008 A 
ATOM     30  C   UNL     1      -1.143 -17.740  -2.654  0.00  0.00    +0.045 A 
ATOM     31  S   UNL     1      -2.062 -16.855  -1.405  0.00  0.00    -0.100 S 
ENDBRANCH  26  27
ENDBRANCH  23  26
ENDBRANCH  17  18
ENDBRANCH   1  17
TORSDOF 6
