REMARK  Name = ZINC12246729
REMARK  13 active torsions:
REMARK  status: ('A' for Active; 'I' for Inactive)
REMARK    1  A    between atoms: C_1  and  C_2
REMARK    2  A    between atoms: C_5  and  C_9
REMARK    3  A    between atoms: C_6  and  C_8
REMARK    4  A    between atoms: N_11  and  C_12
REMARK    5  A    between atoms: C_16  and  C_25
REMARK    6  A    between atoms: C_20  and  C_21
REMARK    7  A    between atoms: C_21  and  O_23
REMARK    8  A    between atoms: O_23  and  C_24
REMARK    9  A    between atoms: C_25  and  N_60
REMARK   10  A    between atoms: C_26  and  N_60
REMARK   11  A    between atoms: C_27  and  C_29
REMARK   12  A    between atoms: C_27  and  C_30
REMARK   13  A    between atoms: C_27  and  N_60
REMARK                            x       y       z     vdW  Elec       q    Type
REMARK                         _______ _______ _______ _____ _____    ______ ____
ROOT
ATOM      1  C   UNL     1       3.388  -1.225   0.804  0.00  0.00    +0.064 A 
ATOM      2  C   UNL     1       3.322  -2.661   1.024  0.00  0.00    +0.030 A 
ATOM      3  C   UNL     1       2.176  -3.486   1.143  0.00  0.00    +0.014 A 
ATOM      4  C   UNL     1       2.345  -4.835   1.351  0.00  0.00    +0.022 A 
ATOM      5  C   UNL     1       3.619  -5.377   1.443  0.00  0.00    +0.026 A 
ATOM      6  N   UNL     1       4.683  -4.606   1.332  0.00  0.00    -0.246 NA
ATOM      7  C   UNL     1       4.573  -3.310   1.132  0.00  0.00    +0.111 A 
ATOM      8  S   UNL     1       5.754  -1.997   0.939  0.00  0.00    -0.060 S 
ATOM      9  C   UNL     1       4.629  -0.633   0.716  0.00  0.00    +0.120 A 
ENDROOT
BRANCH   1  12
ATOM     10  C   UNL     1       1.201  -0.928  -0.062  0.00  0.00    +0.249 C 
ATOM     11  O   UNL     1       1.251  -2.042  -0.546  0.00  0.00    -0.270 OA
ATOM     12  N   UNL     1       2.228  -0.469   0.680  0.00  0.00    -0.280 N 
ATOM     13  H   UNL     1       2.158   0.389   1.127  0.00  0.00    +0.155 HD
BRANCH  10  18
ATOM     14  C   UNL     1      -3.422   2.384  -0.939  0.00  0.00    +0.044 C 
ATOM     15  C   UNL     1      -2.211   1.516  -0.710  0.00  0.00    -0.050 A 
ATOM     16  C   UNL     1      -1.228   1.926   0.173  0.00  0.00    +0.004 A 
ATOM     17  C   UNL     1      -0.115   1.140   0.384  0.00  0.00    +0.013 A 
ATOM     18  C   UNL     1       0.014  -0.077  -0.288  0.00  0.00    +0.040 A 
ATOM     19  C   UNL     1      -0.984  -0.487  -1.174  0.00  0.00    -0.038 A 
ATOM     20  C   UNL     1      -2.090   0.312  -1.380  0.00  0.00    +0.007 A 
ATOM     21  C   UNL     1      -0.854  -1.799  -1.904  0.00  0.00    +0.044 C 
ENDBRANCH  10  18
ENDBRANCH   1  12
BRANCH   9  22
ATOM     22  C   UNL     1       4.938   0.734   0.502  0.00  0.00    +0.348 C 
ATOM     23  O   UNL     1       4.048   1.528   0.260  0.00  0.00    -0.244 OA
BRANCH  22  24
ATOM     24  O   UNL     1       6.218   1.155   0.568  0.00  0.00    -0.464 OA
ATOM     25  C   UNL     1       6.456   2.546   0.341  0.00  0.00    +0.280 C 
ENDBRANCH  22  24
ENDBRANCH   9  22
BRANCH   5  26
ATOM     26  C   UNL     1       3.787  -6.857   1.671  0.00  0.00    -0.022 C 
BRANCH  26  28
ATOM     27  C   UNL     1       2.756  -7.442  -0.440  0.00  0.00    -0.095 C 
ATOM     28  N   UNL     1       3.993  -7.520   0.366  0.00  0.00    +0.387 N 
ATOM     29  H   UNL     1       4.749  -7.040  -0.136  0.00  0.00    -0.081 HD
BRANCH  28  30
ATOM     30  C   UNL     1       4.374  -8.933   0.572  0.00  0.00    -0.018 C 
ATOM     31  C   UNL     1       3.196  -9.729   1.138  0.00  0.00    -0.007 C 
BRANCH  30  32
ATOM     32  C   UNL     1       4.789  -9.522  -0.751  0.00  0.00    +0.070 A 
ATOM     33  C   UNL     1       5.671 -10.608  -0.955  0.00  0.00    +0.065 A 
ATOM     34  C   UNL     1       5.714 -10.746  -2.302  0.00  0.00    +0.230 A 
ATOM     35  O   UNL     1       4.910  -9.800  -2.806  0.00  0.00    -0.363 OA
ATOM     36  N   UNL     1       4.403  -9.136  -1.932  0.00  0.00    -0.085 NA
ENDBRANCH  30  32
ENDBRANCH  28  30
ENDBRANCH  26  28
ENDBRANCH   5  26
TORSDOF 8
