REMARK  Name = ZINC37506165
REMARK  12 active torsions:
REMARK  status: ('A' for Active; 'I' for Inactive)
REMARK    1  A    between atoms: C_1  and  C_2
REMARK    2  A    between atoms: C_2  and  C_3
REMARK    3  A    between atoms: C_3  and  C_4
REMARK    4  A    between atoms: C_4  and  C_5
REMARK    5  A    between atoms: C_5  and  N_6
REMARK    6  A    between atoms: N_6  and  C_7
REMARK    7  A    between atoms: C_7  and  C_8
REMARK    8  A    between atoms: C_8  and  C_9
REMARK    9  A    between atoms: C_9  and  C_10
REMARK   10  A    between atoms: C_10  and  C_11
REMARK   11  A    between atoms: C_12  and  C_14
REMARK   12  A    between atoms: N_18  and  C_19
REMARK                            x       y       z     vdW  Elec       q    Type
REMARK                         _______ _______ _______ _____ _____    ______ ____
ROOT
ATOM      1  N   UNL     1       1.479  -4.045  -2.996  0.00  0.00    -0.296 N 
ATOM      2  C   UNL     1       2.242  -4.740  -2.130  0.00  0.00    +0.263 C 
ATOM      3  O   UNL     1       1.963  -5.894  -1.864  0.00  0.00    -0.268 OA
ENDROOT
BRANCH   2   4
ATOM      4  C   UNL     1       3.408  -4.105  -1.507  0.00  0.00    +0.105 A 
ATOM      5  C   UNL     1       3.624  -2.750  -1.373  0.00  0.00    +0.047 A 
ATOM      6  C   UNL     1       4.853  -2.591  -0.724  0.00  0.00    +0.036 A 
ATOM      7  C   UNL     1       5.355  -3.825  -0.479  0.00  0.00    +0.101 A 
ATOM      8  N   UNL     1       4.484  -4.754  -0.945  0.00  0.00    -0.345 N 
ATOM      9  C   UNL     1       4.660  -6.206  -0.866  0.00  0.00    +0.149 C 
ATOM     10 BR   UNL     1       5.668  -0.946  -0.270  0.00  0.00    -0.049 Br
ENDBRANCH   2   4
BRANCH   1  11
ATOM     11  C   UNL     1       1.785  -2.640  -3.278  0.00  0.00    +0.108 C 
BRANCH  11  12
ATOM     12  C   UNL     1       0.939  -1.742  -2.373  0.00  0.00    +0.019 C 
BRANCH  12  13
ATOM     13  C   UNL     1       1.232  -0.275  -2.691  0.00  0.00    +0.001 C 
BRANCH  13  15
ATOM     14  C   UNL     1       0.592   2.088  -2.192  0.00  0.00    +0.004 C 
ATOM     15  C   UNL     1       0.299   0.621  -1.874  0.00  0.00    -0.003 C 
ENDBRANCH  13  15
ENDBRANCH  12  13
ENDBRANCH  11  12
ENDBRANCH   1  11
BRANCH   1  16
ATOM     16  C   UNL     1       0.343  -4.694  -3.656  0.00  0.00    +0.108 C 
BRANCH  16  17
ATOM     17  C   UNL     1       0.810  -5.324  -4.970  0.00  0.00    +0.019 C 
BRANCH  17  18
ATOM     18  C   UNL     1      -0.376  -6.002  -5.660  0.00  0.00    +0.001 C 
BRANCH  18  19
ATOM     19  C   UNL     1       0.090  -6.633  -6.973  0.00  0.00    -0.003 C 
ATOM     20  C   UNL     1      -1.095  -7.311  -7.663  0.00  0.00    +0.004 C 
ENDBRANCH  18  19
ENDBRANCH  17  18
ENDBRANCH  16  17
ENDBRANCH   1  16
TORSDOF 9
