REMARK  Name = ZINC08918784
REMARK  6 active torsions:
REMARK  status: ('A' for Active; 'I' for Inactive)
REMARK    1  A    between atoms: C_1  and  C_2
REMARK    2  A    between atoms: C_2  and  C_4
REMARK    3  A    between atoms: C_2  and  N_13
REMARK    4  A    between atoms: C_14  and  C_16
REMARK    5  A    between atoms: C_16  and  N_57
REMARK    6  A    between atoms: C_19  and  N_22
REMARK                            x       y       z     vdW  Elec       q    Type
REMARK                         _______ _______ _______ _____ _____    ______ ____
ROOT
ATOM      1  C   UNL     1      -3.288   4.819  -1.139  0.00  0.00    -0.076 C 
ATOM      2  C   UNL     1      -2.723   3.398  -1.190  0.00  0.00    +0.006 C 
ATOM      3  C   UNL     1      -1.852   3.155   0.045  0.00  0.00    +0.089 C 
ATOM      4  C   UNL     1      -2.689   3.384   1.306  0.00  0.00    +0.006 C 
ATOM      5  C   UNL     1      -3.256   4.805   1.284  0.00  0.00    -0.076 C 
ATOM      6  N   UNL     1      -4.105   4.967   0.085  0.00  0.00    +0.386 N 
ATOM      7  H   UNL     1      -4.831   4.241   0.090  0.00  0.00    -0.081 HD
ENDROOT
BRANCH   3   8
ATOM      8  N   UNL     1      -1.355   1.776   0.030  0.00  0.00    -0.289 N 
ATOM      9  C   UNL     1      -0.017   1.392   0.010  0.00  0.00    +0.070 A 
ATOM     10  C   UNL     1       1.176   2.099   0.002  0.00  0.00    +0.028 A 
ATOM     11  C   UNL     1       2.378   1.419  -0.012  0.00  0.00    +0.002 A 
ATOM     12  C   UNL     1       2.397   0.035  -0.020  0.00  0.00    +0.002 A 
ATOM     13  C   UNL     1       1.214  -0.678  -0.013  0.00  0.00    +0.028 A 
ATOM     14  C   UNL     1       0.002  -0.004   0.002  0.00  0.00    +0.067 A 
ATOM     15  N   UNL     1      -1.326  -0.425   0.012  0.00  0.00    -0.306 N 
ATOM     16  H   UNL     1      -1.629  -1.346   0.011  0.00  0.00    +0.170 HD
ATOM     17  C   UNL     1      -2.116   0.665   0.026  0.00  0.00    +0.328 A 
ATOM     18  O   UNL     1      -3.333   0.649   0.037  0.00  0.00    -0.247 OA
ENDBRANCH   3   8
BRANCH   6  19
ATOM     19  C   UNL     1      -4.754   6.294   0.101  0.00  0.00    +0.019 C 
BRANCH  19  21
ATOM     20  N   UNL     1      -6.482   7.444   1.446  0.00  0.00    -0.307 N 
ATOM     21  C   UNL     1      -5.745   6.336   1.236  0.00  0.00    +0.197 C 
ATOM     22  O   UNL     1      -5.879   5.372   1.959  0.00  0.00    -0.278 OA
ATOM     23  H   UNL     1      -6.375   8.215   0.867  0.00  0.00    +0.149 HD
BRANCH  20  25
ATOM     24  C   UNL     1      -8.770   6.868   2.093  0.00  0.00    +0.036 C 
ATOM     25  C   UNL     1      -7.446   7.484   2.549  0.00  0.00    +0.136 C 
BRANCH  25  26
ATOM     26  C   UNL     1      -7.674   8.915   2.964  0.00  0.00    +0.126 A 
ATOM     27  C   UNL     1      -7.808   9.334   4.230  0.00  0.00    +0.055 A 
ATOM     28  C   UNL     1      -8.009  10.787   4.161  0.00  0.00    +0.020 A 
ATOM     29  C   UNL     1      -8.204  11.790   5.109  0.00  0.00    +0.011 A 
ATOM     30  C   UNL     1      -8.369  13.085   4.701  0.00  0.00    +0.001 A 
ATOM     31  C   UNL     1      -8.343  13.405   3.351  0.00  0.00    +0.004 A 
ATOM     32  C   UNL     1      -8.151  12.426   2.400  0.00  0.00    +0.047 A 
ATOM     33  C   UNL     1      -7.981  11.104   2.792  0.00  0.00    +0.135 A 
ATOM     34  O   UNL     1      -7.779   9.955   2.118  0.00  0.00    -0.458 OA
ENDBRANCH  25  26
ENDBRANCH  20  25
ENDBRANCH  19  21
ENDBRANCH   6  19
TORSDOF 5
