REMARK  Name = ZINC10069844
REMARK  7 active torsions:
REMARK  status: ('A' for Active; 'I' for Inactive)
REMARK    1  A    between atoms: C_6  and  N_7
REMARK    2  A    between atoms: N_10  and  S_13
REMARK    3  A    between atoms: S_13  and  C_16
REMARK    4  A    between atoms: C_16  and  C_17
REMARK    5  A    between atoms: C_17  and  N_18
REMARK    6  A    between atoms: C_19  and  C_21
REMARK    7  A    between atoms: C_23  and  N_28
REMARK                            x       y       z     vdW  Elec       q    Type
REMARK                         _______ _______ _______ _____ _____    ______ ____
ROOT
ATOM      1  S   UNL     1      -1.132   0.515   2.422  0.00  0.00    +0.033 S 
ATOM      2  O   UNL     1      -2.248   1.125   3.056  0.00  0.00    -0.158 OA
ATOM      3  O   UNL     1      -1.264  -0.745   1.779  0.00  0.00    -0.158 OA
ENDROOT
BRANCH   1   7
ATOM      4  N   UNL     1      -0.913   3.056  -1.135  0.00  0.00    -0.327 N 
ATOM      5  C   UNL     1      -0.762   1.597  -1.227  0.00  0.00    +0.122 C 
ATOM      6  C   UNL     1      -0.013   1.086   0.008  0.00  0.00    +0.128 C 
ATOM      7  N   UNL     1      -0.709   1.564   1.212  0.00  0.00    -0.178 NA
ATOM      8  C   UNL     1      -1.023   2.998   1.310  0.00  0.00    +0.128 C 
ATOM      9  C   UNL     1      -1.732   3.434   0.024  0.00  0.00    +0.122 C 
BRANCH   4  15
ATOM     10  C   UNL     1      -1.747   2.736  -3.378  0.00  0.00    +0.026 A 
ATOM     11  C   UNL     1      -2.277   3.255  -4.543  0.00  0.00    +0.040 A 
ATOM     12  C   UNL     1      -2.497   4.617  -4.658  0.00  0.00    +0.124 A 
ATOM     13  C   UNL     1      -2.192   5.461  -3.603  0.00  0.00    +0.040 A 
ATOM     14  C   UNL     1      -1.667   4.946  -2.434  0.00  0.00    +0.026 A 
ATOM     15  C   UNL     1      -1.445   3.580  -2.317  0.00  0.00    +0.030 A 
ATOM     16  F   UNL     1      -3.011   5.124  -5.800  0.00  0.00    -0.205 F 
ENDBRANCH   4  15
ENDBRANCH   1   7
BRANCH   1  17
ATOM     17  C   UNL     1       0.293   0.498   3.544  0.00  0.00    +0.204 C 
BRANCH  17  18
ATOM     18  C   UNL     1       0.010  -0.449   4.713  0.00  0.00    +0.128 C 
BRANCH  18  19
ATOM     19  N   UNL     1       1.161  -0.463   5.619  0.00  0.00    -0.310 N 
ATOM     20  C   UNL     1       1.137  -1.231   6.726  0.00  0.00    +0.246 C 
ATOM     21  O   UNL     1       0.161  -1.912   6.973  0.00  0.00    -0.270 OA
ATOM     22  H   UNL     1       1.940   0.081   5.423  0.00  0.00    +0.149 HD
BRANCH  20  23
ATOM     23  C   UNL     1       2.298  -1.245   7.641  0.00  0.00    +0.057 A 
ATOM     24  C   UNL     1       3.423  -0.468   7.358  0.00  0.00    +0.047 A 
ATOM     25  C   UNL     1       4.501  -0.482   8.217  0.00  0.00    +0.127 A 
ATOM     26  C   UNL     1       4.475  -1.272   9.354  0.00  0.00    +0.034 A 
ATOM     27  C   UNL     1       3.366  -2.048   9.639  0.00  0.00    +0.023 A 
ATOM     28  C   UNL     1       2.277  -2.040   8.789  0.00  0.00    +0.053 A 
ATOM     29 CL   UNL     1       0.886  -3.015   9.148  0.00  0.00    -0.083 Cl
BRANCH  25  30
ATOM     30  N   UNL     1       5.693   0.345   7.921  0.00  0.00    +0.056 N 
ATOM     31  O   UNL     1       6.648   0.330   8.677  0.00  0.00    -0.126 OA
ATOM     32  O   UNL     1       5.718   1.040   6.922  0.00  0.00    -0.126 OA
ENDBRANCH  25  30
ENDBRANCH  20  23
ENDBRANCH  18  19
ENDBRANCH  17  18
ENDBRANCH   1  17
TORSDOF 7
