REMARK  Name = ZINC58296614
REMARK  9 active torsions:
REMARK  status: ('A' for Active; 'I' for Inactive)
REMARK    1  A    between atoms: C_1  and  C_2
REMARK    2  A    between atoms: C_2  and  C_4
REMARK    3  A    between atoms: C_2  and  N_7
REMARK    4  A    between atoms: C_4  and  C_5
REMARK    5  A    between atoms: C_4  and  C_6
REMARK    6  A    between atoms: C_8  and  C_10
REMARK    7  A    between atoms: N_13  and  C_16
REMARK    8  A    between atoms: C_16  and  C_18
REMARK    9  A    between atoms: C_16  and  C_19
REMARK                            x       y       z     vdW  Elec       q    Type
REMARK                         _______ _______ _______ _____ _____    ______ ____
ROOT
ATOM      1  C   UNL     1       1.197  -2.536  -3.764  0.00  0.00    +0.071 C 
ATOM      2  C   UNL     1       1.880  -1.169  -3.866  0.00  0.00    -0.006 C 
ATOM      3  C   UNL     1       2.547  -1.038  -5.237  0.00  0.00    -0.077 C 
ATOM      4  N   UNL     1       1.533  -1.159  -6.291  0.00  0.00    +0.387 N 
ATOM      5  C   UNL     1       0.924  -2.494  -6.245  0.00  0.00    -0.077 C 
ATOM      6  C   UNL     1       0.195  -2.681  -4.913  0.00  0.00    -0.006 C 
ATOM      7  H   UNL     1       0.819  -0.460  -6.152  0.00  0.00    -0.081 HD
ENDROOT
BRANCH   1   9
ATOM      8  N   UNL     1       1.158  -2.541  -1.291  0.00  0.00    -0.312 N 
ATOM      9  C   UNL     1       0.472  -2.641  -2.447  0.00  0.00    +0.216 C 
ATOM     10  O   UNL     1      -0.728  -2.814  -2.428  0.00  0.00    -0.276 OA
ATOM     11  H   UNL     1       2.118  -2.402  -1.307  0.00  0.00    +0.149 HD
BRANCH   8  13
ATOM     12  C   UNL     1      -0.107  -1.272   0.374  0.00  0.00    +0.028 C 
ATOM     13  C   UNL     1       0.454  -2.643  -0.011  0.00  0.00    +0.072 C 
BRANCH  13  14
ATOM     14  C   UNL     1       1.427  -3.118   1.070  0.00  0.00    +0.003 C 
ATOM     15  C   UNL     1       2.507  -2.057   1.286  0.00  0.00    +0.009 C 
ATOM     16  C   UNL     1       0.665  -3.344   2.378  0.00  0.00    +0.009 C 
ENDBRANCH  13  14
ENDBRANCH   8  13
ENDBRANCH   1   9
BRANCH   4  17
ATOM     17  C   UNL     1       2.165  -0.956  -7.602  0.00  0.00    +0.017 C 
ATOM     18  C   UNL     1       2.786   0.441  -7.657  0.00  0.00    -0.004 C 
BRANCH  17  19
ATOM     19  C   UNL     1       1.127  -1.087  -8.686  0.00  0.00    +0.207 C 
ATOM     20  O   UNL     1      -0.030  -0.809  -8.454  0.00  0.00    -0.277 OA
ATOM     21  N   UNL     1       1.484  -1.513  -9.914  0.00  0.00    -0.242 N 
ATOM     22  C   UNL     1       0.556  -1.630 -10.883  0.00  0.00    +0.303 C 
ATOM     23  O   UNL     1      -0.604  -1.352 -10.651  0.00  0.00    -0.253 OA
ATOM     24  N   UNL     1       0.913  -2.056 -12.111  0.00  0.00    -0.313 N 
ATOM     25  H   UNL     1       2.410  -1.735 -10.099  0.00  0.00    +0.159 HD
ATOM     26  H   UNL     1       1.839  -2.278 -12.297  0.00  0.00    +0.146 HD
ATOM     27  H   UNL     1       0.245  -2.140 -12.809  0.00  0.00    +0.146 HD
ENDBRANCH  17  19
ENDBRANCH   4  17
TORSDOF 5
