REMARK  Name = ZINC33761341
REMARK  17 active torsions:
REMARK  status: ('A' for Active; 'I' for Inactive)
REMARK    1  A    between atoms: C_1  and  C_2
REMARK    2  A    between atoms: C_2  and  C_3
REMARK    3  A    between atoms: C_3  and  N_4
REMARK    4  A    between atoms: C_5  and  C_39
REMARK    5  A    between atoms: C_6  and  C_32
REMARK    6  A    between atoms: C_7  and  C_12
REMARK    7  A    between atoms: C_16  and  N_18
REMARK    8  A    between atoms: N_21  and  C_22
REMARK    9  A    between atoms: C_24  and  O_30
REMARK   10  A    between atoms: C_26  and  O_28
REMARK   11  A    between atoms: O_28  and  C_29
REMARK   12  A    between atoms: O_30  and  C_31
REMARK   13  A    between atoms: C_32  and  O_34
REMARK   14  A    between atoms: O_34  and  C_35
REMARK   15  A    between atoms: C_35  and  C_36
REMARK   16  A    between atoms: C_36  and  O_37
REMARK   17  A    between atoms: O_37  and  C_38
REMARK                            x       y       z     vdW  Elec       q    Type
REMARK                         _______ _______ _______ _____ _____    ______ ____
ROOT
ATOM      1  C   UNL     1       2.434   3.915   0.818  0.00  0.00    -0.021 A 
ATOM      2  C   UNL     1       2.465   3.421   2.109  0.00  0.00    +0.006 A 
ATOM      3  C   UNL     1       3.386   3.909   3.017  0.00  0.00    +0.002 A 
ATOM      4  C   UNL     1       4.280   4.892   2.636  0.00  0.00    +0.023 A 
ATOM      5  C   UNL     1       4.251   5.389   1.341  0.00  0.00    +0.035 A 
ATOM      6  C   UNL     1       3.328   4.894   0.429  0.00  0.00    +0.029 A 
ENDROOT
BRANCH   1  10
ATOM      7  N   UNL     1      -0.976   2.158   0.448  0.00  0.00    -0.259 N 
ATOM      8  C   UNL     1      -0.980   3.514   0.287  0.00  0.00    +0.024 C 
ATOM      9  C   UNL     1       0.152   4.184  -0.017  0.00  0.00    +0.078 C 
ATOM     10  C   UNL     1       1.428   3.380  -0.169  0.00  0.00    +0.144 C 
ATOM     11  N   UNL     1       1.327   1.925   0.030  0.00  0.00    -0.288 N 
ATOM     12  C   UNL     1       0.122   1.400   0.331  0.00  0.00    +0.307 C 
ATOM     13  O   UNL     1       0.028   0.200   0.496  0.00  0.00    -0.252 OA
ATOM     14  C   UNL     1      -2.271   4.275   0.448  0.00  0.00    +0.061 C 
ATOM     15  H   UNL     1       2.222   1.293  -0.068  0.00  0.00    +0.151 HD
BRANCH   9  16
ATOM     16  C   UNL     1       0.148   5.588  -0.189  0.00  0.00    +0.339 C 
ATOM     17  O   UNL     1      -0.875   6.221  -0.003  0.00  0.00    -0.245 OA
BRANCH  16  18
ATOM     18  O   UNL     1       1.277   6.226  -0.560  0.00  0.00    -0.459 OA
BRANCH  18  19
ATOM     19  C   UNL     1       1.200   7.644  -0.715  0.00  0.00    +0.260 C 
BRANCH  19  20
ATOM     20  C   UNL     1       2.568   8.187  -1.136  0.00  0.00    +0.200 C 
BRANCH  20  21
ATOM     21  O   UNL     1       2.902   7.682  -2.431  0.00  0.00    -0.380 OA
ATOM     22  C   UNL     1       4.168   8.131  -2.920  0.00  0.00    +0.194 C 
ENDBRANCH  20  21
ENDBRANCH  19  20
ENDBRANCH  18  19
ENDBRANCH  16  18
ENDBRANCH   9  16
BRANCH   7  23
ATOM     23  C   UNL     1      -2.241   1.496   0.772  0.00  0.00    +0.114 C 
BRANCH  23  25
ATOM     24  C   UNL     1      -3.735   0.746   2.629  0.00  0.00    +0.005 C 
ATOM     25  C   UNL     1      -2.413   1.438   2.291  0.00  0.00    +0.016 C 
ENDBRANCH  23  25
ENDBRANCH   7  23
ENDBRANCH   1  10
BRANCH   5  26
ATOM     26  N   UNL     1       5.155   6.385   0.952  0.00  0.00    -0.269 N 
ATOM     27  C   UNL     1       5.530   7.335   1.831  0.00  0.00    +0.308 C 
ATOM     28  O   UNL     1       5.148   7.281   2.984  0.00  0.00    -0.252 OA
ATOM     29  N   UNL     1       6.327   8.345   1.431  0.00  0.00    -0.269 N 
ATOM     30  H   UNL     1       5.559   6.391  -0.071  0.00  0.00    +0.156 HD
ATOM     31  H   UNL     1       6.612   8.436   0.373  0.00  0.00    +0.156 HD
BRANCH  29  32
ATOM     32  C   UNL     1       6.794   9.279   2.364  0.00  0.00    +0.042 A 
ATOM     33  C   UNL     1       5.983   9.669   3.420  0.00  0.00    +0.069 A 
ATOM     34  C   UNL     1       6.448  10.591   4.347  0.00  0.00    +0.125 A 
ATOM     35  C   UNL     1       7.718  11.130   4.211  0.00  0.00    +0.091 A 
ATOM     36  C   UNL     1       8.527  10.744   3.153  0.00  0.00    +0.125 A 
ATOM     37  C   UNL     1       8.065   9.819   2.229  0.00  0.00    +0.069 A 
BRANCH  36  38
ATOM     38  O   UNL     1       9.772  11.273   3.021  0.00  0.00    -0.495 OA
ATOM     39  C   UNL     1      10.182  12.220   4.009  0.00  0.00    +0.277 C 
ENDBRANCH  36  38
BRANCH  34  40
ATOM     40  O   UNL     1       5.656  10.969   5.384  0.00  0.00    -0.495 OA
ATOM     41  C   UNL     1       6.197  11.926   6.297  0.00  0.00    +0.277 C 
ENDBRANCH  34  40
ENDBRANCH  29  32
ENDBRANCH   5  26
TORSDOF 12
