REMARK  Name = ZINC16020697
REMARK  9 active torsions:
REMARK  status: ('A' for Active; 'I' for Inactive)
REMARK    1  A    between atoms: C_1  and  C_2
REMARK    2  A    between atoms: C_2  and  C_3
REMARK    3  A    between atoms: C_2  and  O_4
REMARK    4  A    between atoms: O_4  and  C_5
REMARK    5  A    between atoms: C_5  and  C_6
REMARK    6  A    between atoms: C_6  and  C_7
REMARK    7  A    between atoms: C_7  and  N_8
REMARK    8  A    between atoms: C_9  and  C_11
REMARK    9  A    between atoms: C_14  and  N_17
REMARK                            x       y       z     vdW  Elec       q    Type
REMARK                         _______ _______ _______ _____ _____    ______ ____
ROOT
ATOM      1  C   UNL     1       0.147   0.970  -4.869  0.00  0.00    +0.037 A 
ATOM      2  C   UNL     1       1.286   0.167  -4.758  0.00  0.00    +0.015 A 
ATOM      3  C   UNL     1       1.925  -0.279  -5.894  0.00  0.00    +0.025 A 
ATOM      4  C   UNL     1       1.445   0.077  -7.149  0.00  0.00    +0.045 A 
ATOM      5  C   UNL     1       0.316   0.880  -7.263  0.00  0.00    +0.025 A 
ATOM      6  C   UNL     1      -0.332   1.326  -6.133  0.00  0.00    +0.015 A 
ENDROOT
BRANCH   4   7
ATOM      7  N   UNL     1       2.099  -0.374  -8.299  0.00  0.00    -0.193 N 
ATOM      8  C   UNL     1       1.644  -0.181  -9.554  0.00  0.00    +0.248 C 
ATOM      9  O   UNL     1       0.637   0.408  -9.884  0.00  0.00    -0.273 OA
ATOM     10  C   UNL     1       2.650  -0.852 -10.467  0.00  0.00    +0.169 C 
ATOM     11  C   UNL     1       3.312   0.189 -11.368  0.00  0.00    +0.067 C 
ATOM     12  C   UNL     1       4.654  -0.291 -11.857  0.00  0.00    -0.040 A 
ATOM     13  C   UNL     1       5.145   0.290 -13.023  0.00  0.00    +0.004 A 
ATOM     14  C   UNL     1       6.371  -0.081 -13.533  0.00  0.00    +0.000 A 
ATOM     15  C   UNL     1       7.125  -1.040 -12.882  0.00  0.00    +0.000 A 
ATOM     16  C   UNL     1       6.640  -1.622 -11.730  0.00  0.00    +0.005 A 
ATOM     17  C   UNL     1       5.402  -1.254 -11.220  0.00  0.00    -0.027 A 
ATOM     18  C   UNL     1       4.923  -1.963  -9.974  0.00  0.00    +0.145 C 
ATOM     19  N   UNL     1       3.681  -1.338  -9.522  0.00  0.00    -0.269 N 
ATOM     20  C   UNL     1       3.259  -1.046  -8.291  0.00  0.00    +0.317 C 
ATOM     21  O   UNL     1       3.856  -1.357  -7.279  0.00  0.00    -0.252 OA
ENDBRANCH   4   7
BRANCH   1  23
ATOM     22  N   UNL     1      -0.080   1.102  -2.437  0.00  0.00    -0.311 N 
ATOM     23  C   UNL     1      -0.543   1.446  -3.655  0.00  0.00    +0.244 C 
ATOM     24  O   UNL     1      -1.531   2.149  -3.753  0.00  0.00    -0.270 OA
ATOM     25  H   UNL     1       0.708   0.541  -2.359  0.00  0.00    +0.149 HD
BRANCH  22  26
ATOM     26  C   UNL     1      -0.765   1.574  -1.232  0.00  0.00    +0.107 C 
BRANCH  26  27
ATOM     27  C   UNL     1      -0.041   1.045   0.008  0.00  0.00    +0.047 C 
BRANCH  27  28
ATOM     28  C   UNL     1      -0.757   1.538   1.267  0.00  0.00    +0.161 C 
BRANCH  28  29
ATOM     29  O   UNL     1      -0.081   1.044   2.424  0.00  0.00    -0.377 OA
BRANCH  29  31
ATOM     30  C   UNL     1      -0.424   0.375   4.721  0.00  0.00    +0.037 C 
ATOM     31  C   UNL     1      -0.672   1.449   3.660  0.00  0.00    +0.112 C 
ATOM     32  C   UNL     1      -0.048   2.769   4.116  0.00  0.00    +0.037 C 
ENDBRANCH  29  31
ENDBRANCH  28  29
ENDBRANCH  27  28
ENDBRANCH  26  27
ENDBRANCH  22  26
ENDBRANCH   1  23
TORSDOF 7
