REMARK  Name = ZINC36205601
REMARK  17 active torsions:
REMARK  status: ('A' for Active; 'I' for Inactive)
REMARK    1  A    between atoms: C_1  and  C_2
REMARK    2  A    between atoms: C_2  and  C_3
REMARK    3  A    between atoms: C_3  and  C_4
REMARK    4  A    between atoms: C_4  and  O_6
REMARK    5  A    between atoms: O_6  and  C_7
REMARK    6  A    between atoms: C_7  and  C_8
REMARK    7  A    between atoms: C_8  and  C_10
REMARK    8  A    between atoms: C_8  and  O_35
REMARK    9  A    between atoms: C_10  and  N_11
REMARK   10  A    between atoms: N_11  and  C_12
REMARK   11  A    between atoms: N_11  and  C_16
REMARK   12  A    between atoms: C_12  and  C_13
REMARK   13  A    between atoms: C_13  and  O_14
REMARK   14  A    between atoms: O_14  and  C_15
REMARK   15  A    between atoms: C_16  and  C_17
REMARK   16  A    between atoms: C_23  and  C_28
REMARK   17  A    between atoms: C_31  and  C_34
REMARK                            x       y       z     vdW  Elec       q    Type
REMARK                         _______ _______ _______ _____ _____    ______ ____
ROOT
ATOM      1  C   UNL     1       2.582  -8.232  -4.565  0.00  0.00    -0.003 C 
ENDROOT
BRANCH   1   2
ATOM      2  C   UNL     1       1.194  -8.538  -5.065  0.00  0.00    +0.094 A 
ATOM      3  N   UNL     1       0.713  -9.804  -4.966  0.00  0.00    -0.312 N 
ATOM      4  H   UNL     1       1.270 -10.495  -4.574  0.00  0.00    +0.170 HD
ATOM      5  C   UNL     1      -0.521 -10.119  -5.401  0.00  0.00    +0.260 A 
ATOM      6  O   UNL     1      -0.938 -11.260  -5.304  0.00  0.00    -0.267 OA
ATOM      7  C   UNL     1      -1.336  -9.093  -5.978  0.00  0.00    +0.080 A 
ATOM      8  C   UNL     1      -2.689  -9.183  -6.514  0.00  0.00    +0.004 A 
ATOM      9  C   UNL     1      -3.267  -8.064  -7.015  0.00  0.00    +0.056 A 
ATOM     10  S   UNL     1      -2.013  -6.817  -6.792  0.00  0.00    -0.076 S 
ATOM     11  C   UNL     1      -0.755  -7.816  -6.039  0.00  0.00    +0.116 A 
ATOM     12  N   UNL     1       0.472  -7.580  -5.582  0.00  0.00    -0.229 NA
BRANCH   8  13
ATOM     13  C   UNL     1      -3.419 -10.473  -6.511  0.00  0.00    -0.017 A 
ATOM     14  C   UNL     1      -2.807 -11.623  -7.008  0.00  0.00    +0.009 A 
ATOM     15  C   UNL     1      -3.491 -12.822  -7.003  0.00  0.00    +0.004 A 
ATOM     16  C   UNL     1      -4.781 -12.883  -6.506  0.00  0.00    -0.050 A 
ATOM     17  C   UNL     1      -5.393 -11.745  -6.012  0.00  0.00    +0.004 A 
ATOM     18  C   UNL     1      -4.717 -10.542  -6.008  0.00  0.00    +0.009 A 
ATOM     19  C   UNL     1      -5.523 -14.195  -6.504  0.00  0.00    +0.044 C 
ENDBRANCH   8  13
ENDBRANCH   1   2
BRANCH   1  20
ATOM     20  N   UNL     1       2.821  -6.784  -4.639  0.00  0.00    +0.388 N 
ATOM     21  H   UNL     1       2.623  -6.458  -5.573  0.00  0.00    -0.081 HD
BRANCH  20  22
ATOM     22  C   UNL     1       1.945  -6.094  -3.683  0.00  0.00    -0.043 C 
BRANCH  22  23
ATOM     23  C   UNL     1       2.103  -4.581  -3.847  0.00  0.00    +0.136 C 
BRANCH  23  24
ATOM     24  O   UNL     1       1.634  -4.190  -5.139  0.00  0.00    -0.390 OA
ATOM     25  H   UNL     1       0.704  -4.399  -5.300  0.00  0.00    +0.210 HD
ENDBRANCH  23  24
BRANCH  23  26
ATOM     26  C   UNL     1       1.287  -3.863  -2.770  0.00  0.00    +0.261 C 
BRANCH  26  27
ATOM     27  O   UNL     1       1.526  -2.456  -2.849  0.00  0.00    -0.462 OA
BRANCH  27  28
ATOM     28  C   UNL     1       0.881  -1.678  -1.967  0.00  0.00    +0.307 C 
ATOM     29  O   UNL     1       0.137  -2.174  -1.154  0.00  0.00    -0.251 OA
BRANCH  28  30
ATOM     30  C   UNL     1       1.083  -0.184  -1.990  0.00  0.00    +0.120 C 
BRANCH  30  32
ATOM     31  C   UNL     1       0.444   1.978  -0.914  0.00  0.00    +0.004 C 
ATOM     32  C   UNL     1       0.239   0.462  -0.890  0.00  0.00    +0.008 C 
ENDBRANCH  30  32
ENDBRANCH  28  30
ENDBRANCH  27  28
ENDBRANCH  26  27
ENDBRANCH  23  26
ENDBRANCH  22  23
ENDBRANCH  20  22
BRANCH  20  33
ATOM     33  C   UNL     1       4.224  -6.502  -4.309  0.00  0.00    -0.050 C 
BRANCH  33  34
ATOM     34  C   UNL     1       5.132  -7.101  -5.386  0.00  0.00    +0.141 C 
BRANCH  34  35
ATOM     35  O   UNL     1       4.893  -6.441  -6.631  0.00  0.00    -0.385 OA
ATOM     36  C   UNL     1       5.771  -6.849  -7.682  0.00  0.00    +0.193 C 
ENDBRANCH  34  35
ENDBRANCH  33  34
ENDBRANCH  20  33
ENDBRANCH   1  20
TORSDOF 14
