REMARK  Name = ZINC11592038
REMARK  10 active torsions:
REMARK  status: ('A' for Active; 'I' for Inactive)
REMARK    1  A    between atoms: C_1  and  C_2
REMARK    2  A    between atoms: C_2  and  C_4
REMARK    3  A    between atoms: C_2  and  S_16
REMARK    4  A    between atoms: N_6  and  C_7
REMARK    5  A    between atoms: C_10  and  N_13
REMARK    6  A    between atoms: N_13  and  C_14
REMARK    7  A    between atoms: N_13  and  C_15
REMARK    8  A    between atoms: S_16  and  C_17
REMARK    9  A    between atoms: C_20  and  C_23
REMARK   10  A    between atoms: N_21  and  N_22
REMARK                            x       y       z     vdW  Elec       q    Type
REMARK                         _______ _______ _______ _____ _____    ______ ____
ROOT
ATOM      1  C   UNL     1       1.486  10.015  -1.067  0.00  0.00    +0.029 C 
ATOM      2  C   UNL     1       2.671   9.651  -0.171  0.00  0.00    +0.137 C 
ENDROOT
BRANCH   2   3
ATOM      3  C   UNL     1       3.686  10.764  -0.203  0.00  0.00    +0.230 C 
ATOM      4  O   UNL     1       4.622  10.710  -0.972  0.00  0.00    -0.274 OA
ATOM      5  N   UNL     1       3.552  11.821   0.623  0.00  0.00    -0.285 N 
ATOM      6  H   UNL     1       2.764  11.903   1.183  0.00  0.00    +0.155 HD
BRANCH   5   7
ATOM      7  C   UNL     1       4.552  12.802   0.673  0.00  0.00    +0.034 A 
ATOM      8  C   UNL     1       5.882  12.447   0.490  0.00  0.00    +0.025 A 
ATOM      9  C   UNL     1       6.867  13.415   0.533  0.00  0.00    +0.025 A 
ATOM     10  C   UNL     1       6.528  14.740   0.771  0.00  0.00    +0.029 A 
ATOM     11  C   UNL     1       5.198  15.094   0.960  0.00  0.00    +0.025 A 
ATOM     12  C   UNL     1       4.213  14.127   0.911  0.00  0.00    +0.025 A 
BRANCH  10  13
ATOM     13  N   UNL     1       7.526  15.719   0.820  0.00  0.00    -0.336 N 
ATOM     14  C   UNL     1       7.168  17.118   1.071  0.00  0.00    +0.129 C 
ATOM     15  C   UNL     1       8.928  15.346   0.621  0.00  0.00    +0.129 C 
ENDBRANCH  10  13
ENDBRANCH   5   7
ENDBRANCH   2   3
BRANCH   2  16
ATOM     16  S   UNL     1       3.433   8.123  -0.771  0.00  0.00    -0.072 S 
BRANCH  16  17
ATOM     17  C   UNL     1       2.112   6.991  -0.490  0.00  0.00    +0.209 A 
ATOM     18  N   UNL     1       0.936   7.278   0.019  0.00  0.00    -0.121 NA
ATOM     19  N   UNL     1       0.212   6.218   0.084  0.00  0.00    -0.126 NA
ATOM     20  C   UNL     1       0.882   5.187  -0.380  0.00  0.00    +0.188 A 
ATOM     21  N   UNL     1       2.123   5.650  -0.758  0.00  0.00    -0.223 N 
BRANCH  20  22
ATOM     22  C   UNL     1       0.400   3.799  -0.473  0.00  0.00    +0.058 A 
ATOM     23  C   UNL     1      -0.882   3.321  -0.377  0.00  0.00    +0.019 A 
ATOM     24  C   UNL     1      -1.094   1.967  -0.504  0.00  0.00    +0.008 A 
ATOM     25  C   UNL     1      -0.030   1.147  -0.708  0.00  0.00    +0.046 A 
ATOM     26  S   UNL     1       1.332   2.300  -0.741  0.00  0.00    -0.093 S 
ENDBRANCH  20  22
BRANCH  21  27
ATOM     27  N   UNL     1       3.149   4.922  -1.290  0.00  0.00    -0.295 N 
ATOM     28  H   UNL     1       3.093   4.902  -2.298  0.00  0.00    +0.163 HD
ATOM     29  H   UNL     1       4.042   5.279  -0.985  0.00  0.00    +0.163 HD
ENDBRANCH  21  27
ENDBRANCH  16  17
ENDBRANCH   2  16
TORSDOF 7
