REMARK  Name = ZINC09317495
REMARK  3 active torsions:
REMARK  status: ('A' for Active; 'I' for Inactive)
REMARK    1  A    between atoms: C_1  and  C_2
REMARK    2  A    between atoms: C_7  and  C_25
REMARK    3  A    between atoms: C_17  and  C_19
REMARK                            x       y       z     vdW  Elec       q    Type
REMARK                         _______ _______ _______ _____ _____    ______ ____
ROOT
ATOM      1  C   UNL     1       5.835   1.620   3.718  0.00  0.00    +0.008 C 
ATOM      2  C   UNL     1       4.730   2.349   2.950  0.00  0.00    -0.001 C 
ATOM      3  C   UNL     1       3.628   1.363   2.568  0.00  0.00    +0.055 C 
ATOM      4  C   UNL     1       2.519   2.087   1.822  0.00  0.00    +0.017 C 
ATOM      5  C   UNL     1       2.227   3.366   2.110  0.00  0.00    +0.040 C 
ATOM      6  C   UNL     1       1.143   4.195   1.463  0.00  0.00    +0.182 C 
ATOM      7  N   UNL     1       0.560   3.602   0.278  0.00  0.00    -0.251 N 
ATOM      8  C   UNL     1      -0.164   2.411   0.347  0.00  0.00    +0.059 A 
ATOM      9  C   UNL     1      -1.523   2.371   0.084  0.00  0.00    +0.025 A 
ATOM     10  C   UNL     1      -2.212   1.182   0.249  0.00  0.00    +0.002 A 
ATOM     11  C   UNL     1      -1.551   0.043   0.672  0.00  0.00    +0.002 A 
ATOM     12  C   UNL     1      -0.190   0.076   0.919  0.00  0.00    +0.025 A 
ATOM     13  C   UNL     1       0.504   1.261   0.739  0.00  0.00    +0.053 A 
ATOM     14  N   UNL     1       1.883   1.341   0.885  0.00  0.00    -0.316 N 
ATOM     15  C   UNL     1       0.719   4.212  -0.914  0.00  0.00    +0.252 C 
ATOM     16  O   UNL     1       1.257   5.301  -0.973  0.00  0.00    -0.270 OA
ATOM     17  C   UNL     1       2.966   4.061   3.096  0.00  0.00    +0.163 C 
ATOM     18  O   UNL     1       2.670   5.213   3.348  0.00  0.00    -0.292 OA
ATOM     19  C   UNL     1       4.102   3.427   3.842  0.00  0.00    +0.083 C 
ATOM     20  H   UNL     1       2.465   0.741   0.171  0.00  0.00    +0.152 HD
ENDROOT
BRANCH  15  21
ATOM     21  C   UNL     1       0.241   3.557  -2.149  0.00  0.00    +0.037 A 
ATOM     22  C   UNL     1       0.212   2.164  -2.238  0.00  0.00    +0.013 A 
ATOM     23  C   UNL     1      -0.240   1.558  -3.392  0.00  0.00    +0.001 A 
ATOM     24  C   UNL     1      -0.655   2.329  -4.464  0.00  0.00    +0.000 A 
ATOM     25  C   UNL     1      -0.624   3.710  -4.385  0.00  0.00    +0.001 A 
ATOM     26  C   UNL     1      -0.179   4.328  -3.235  0.00  0.00    +0.013 A 
ENDBRANCH  15  21
BRANCH   6  27
ATOM     27  C   UNL     1       0.047   4.419   2.473  0.00  0.00    +0.130 A 
ATOM     28  C   UNL     1      -0.077   5.492   3.274  0.00  0.00    +0.047 A 
ATOM     29  C   UNL     1      -1.240   5.289   4.053  0.00  0.00    +0.041 A 
ATOM     30  C   UNL     1      -1.752   4.101   3.687  0.00  0.00    +0.195 A 
ATOM     31  O   UNL     1      -0.969   3.578   2.730  0.00  0.00    -0.466 OA
ENDBRANCH   6  27
TORSDOF 2
