REMARK  Name = ZINC05710460
REMARK  9 active torsions:
REMARK  status: ('A' for Active; 'I' for Inactive)
REMARK    1  A    between atoms: C_1  and  C_2
REMARK    2  A    between atoms: C_2  and  C_3
REMARK    3  A    between atoms: C_6  and  N_9
REMARK    4  A    between atoms: C_10  and  C_12
REMARK    5  A    between atoms: C_12  and  S_13
REMARK    6  A    between atoms: S_13  and  C_14
REMARK    7  A    between atoms: C_15  and  C_32
REMARK    8  A    between atoms: C_16  and  C_26
REMARK    9  A    between atoms: C_29  and  C_31
REMARK                            x       y       z     vdW  Elec       q    Type
REMARK                         _______ _______ _______ _____ _____    ______ ____
ROOT
ATOM      1  C   UNL     1       7.185  -2.847  -7.200  0.00  0.00    +0.080 C 
ATOM      2  C   UNL     1       8.530  -2.999  -7.333  0.00  0.00    +0.072 C 
ATOM      3  C   UNL     1       9.138  -3.388  -8.649  0.00  0.00    +0.132 C 
ATOM      4  C   UNL     1       8.177  -3.147  -9.785  0.00  0.00    +0.027 C 
ATOM      5  C   UNL     1       6.855  -2.994  -9.556  0.00  0.00    +0.016 C 
ATOM      6  N   UNL     1       6.357  -3.047  -8.280  0.00  0.00    -0.311 N 
ATOM      7  C   UNL     1       5.890  -2.772 -10.694  0.00  0.00    +0.051 C 
ATOM      8  C   UNL     1       6.593  -2.017 -11.824  0.00  0.00    +0.014 C 
ATOM      9  C   UNL     1       7.807  -2.836 -12.275  0.00  0.00    +0.080 C 
ATOM     10  C   UNL     1       8.698  -3.084 -11.089  0.00  0.00    +0.162 C 
ATOM     11  O   UNL     1       9.892  -3.232 -11.262  0.00  0.00    -0.292 OA
ATOM     12  H   UNL     1       5.414  -3.224  -8.138  0.00  0.00    +0.152 HD
ENDROOT
BRANCH   3  13
ATOM     13  C   UNL     1       9.501  -4.850  -8.612  0.00  0.00    +0.118 A 
ATOM     14  C   UNL     1      10.737  -5.358  -8.768  0.00  0.00    +0.046 A 
ATOM     15  C   UNL     1      10.619  -6.763  -8.662  0.00  0.00    +0.044 A 
ATOM     16  C   UNL     1       9.318  -7.029  -8.448  0.00  0.00    +0.102 A 
ATOM     17  O   UNL     1       8.647  -5.867  -8.413  0.00  0.00    -0.464 OA
ATOM     18  C   UNL     1       8.717  -8.400  -8.272  0.00  0.00    +0.086 C 
ENDBRANCH   3  13
BRANCH   2  19
ATOM     19  C   UNL     1       9.379  -2.785  -6.200  0.00  0.00    +0.098 C 
ATOM     20  N   UNL     1      10.052  -2.615  -5.301  0.00  0.00    -0.191 NA
ENDBRANCH   2  19
BRANCH   1  21
ATOM     21  S   UNL     1       6.501  -2.400  -5.639  0.00  0.00    -0.100 S 
BRANCH  21  22
ATOM     22  C   UNL     1       4.715  -2.327  -5.947  0.00  0.00    +0.171 C 
BRANCH  22  24
ATOM     23  N   UNL     1       2.657  -1.834  -4.665  0.00  0.00    -0.285 N 
ATOM     24  C   UNL     1       4.000  -1.949  -4.676  0.00  0.00    +0.227 C 
ATOM     25  O   UNL     1       4.634  -1.749  -3.661  0.00  0.00    -0.275 OA
ATOM     26  H   UNL     1       2.145  -2.067  -5.455  0.00  0.00    +0.155 HD
BRANCH  23  30
ATOM     27  C   UNL     1       0.708  -0.471  -1.245  0.00  0.00    -0.048 A 
ATOM     28  C   UNL     1       1.965   0.011  -1.561  0.00  0.00    +0.005 A 
ATOM     29  C   UNL     1       2.614  -0.438  -2.695  0.00  0.00    +0.023 A 
ATOM     30  C   UNL     1       2.003  -1.377  -3.516  0.00  0.00    +0.033 A 
ATOM     31  C   UNL     1       0.741  -1.860  -3.195  0.00  0.00    +0.023 A 
ATOM     32  C   UNL     1       0.100  -1.410  -2.058  0.00  0.00    +0.005 A 
BRANCH  27  34
ATOM     33  C   UNL     1       0.372  -0.872   1.179  0.00  0.00    +0.009 C 
ATOM     34  C   UNL     1       0.003   0.021  -0.007  0.00  0.00    +0.032 C 
ENDBRANCH  27  34
ENDBRANCH  23  30
ENDBRANCH  22  24
ENDBRANCH  21  22
ENDBRANCH   1  21
TORSDOF 7
