REMARK  Name = ZINC66814369
REMARK  4 active torsions:
REMARK  status: ('A' for Active; 'I' for Inactive)
REMARK    1  A    between atoms: C_3  and  N_16
REMARK    2  A    between atoms: C_6  and  C_7
REMARK    3  A    between atoms: N_16  and  S_17
REMARK    4  A    between atoms: S_17  and  C_20
REMARK                            x       y       z     vdW  Elec       q    Type
REMARK                         _______ _______ _______ _____ _____    ______ ____
ROOT
ATOM      1  C   UNL     1      -0.011   1.383   0.160  0.00  0.00    +0.013 A 
ATOM      2  C   UNL     1       1.174   2.087   0.152  0.00  0.00    +0.027 A 
ATOM      3  C   UNL     1       2.381   1.417  -0.013  0.00  0.00    +0.074 A 
ATOM      4  C   UNL     1       2.397   0.035  -0.171  0.00  0.00    +0.027 A 
ATOM      5  C   UNL     1       1.216  -0.674  -0.164  0.00  0.00    +0.013 A 
ATOM      6  C   UNL     1       0.002  -0.004   0.002  0.00  0.00    +0.019 A 
ENDROOT
BRANCH   6   7
ATOM      7  C   UNL     1      -1.267  -0.762   0.011  0.00  0.00    +0.164 A 
ATOM      8  N   UNL     1      -1.407  -2.060   0.194  0.00  0.00    -0.129 NA
ATOM      9  N   UNL     1      -2.655  -2.376   0.140  0.00  0.00    -0.134 NA
ATOM     10  C   UNL     1      -3.372  -1.315  -0.078  0.00  0.00    +0.134 A 
ATOM     11  N   UNL     1      -2.517  -0.255  -0.164  0.00  0.00    -0.311 N 
ATOM     12  C   UNL     1      -2.924   1.129  -0.402  0.00  0.00    +0.125 C 
ATOM     13  C   UNL     1      -4.357   1.133  -0.948  0.00  0.00    +0.022 C 
ATOM     14  C   UNL     1      -5.252   0.277  -0.048  0.00  0.00    +0.009 C 
ATOM     15  C   UNL     1      -4.869  -1.202  -0.215  0.00  0.00    +0.076 C 
ENDBRANCH   6   7
BRANCH   3  16
ATOM     16  N   UNL     1       3.579   2.132  -0.022  0.00  0.00    -0.102 NA
BRANCH  16  17
ATOM     17  S   UNL     1       5.017   1.336  -0.219  0.00  0.00    +0.065 S 
ATOM     18  O   UNL     1       5.128   0.499   0.924  0.00  0.00    -0.153 OA
ATOM     19  O   UNL     1       4.946   0.775  -1.523  0.00  0.00    -0.153 OA
BRANCH  17  20
ATOM     20  C   UNL     1       6.281   2.636  -0.167  0.00  0.00    +0.153 C 
ATOM     21  C   UNL     1       5.958   3.703  -1.214  0.00  0.00    +0.028 C 
ATOM     22  C   UNL     1       7.024   4.800  -1.170  0.00  0.00    +0.002 C 
ATOM     23  C   UNL     1       8.396   4.191  -1.468  0.00  0.00    +0.000 C 
ATOM     24  C   UNL     1       8.718   3.124  -0.420  0.00  0.00    +0.002 C 
ATOM     25  C   UNL     1       7.652   2.027  -0.464  0.00  0.00    +0.028 C 
ENDBRANCH  17  20
ENDBRANCH  16  17
ENDBRANCH   3  16
TORSDOF 4
