REMARK  Name = ZINC43525566
REMARK  11 active torsions:
REMARK  status: ('A' for Active; 'I' for Inactive)
REMARK    1  A    between atoms: C_1  and  C_2
REMARK    2  A    between atoms: C_2  and  C_3
REMARK    3  A    between atoms: C_3  and  S_4
REMARK    4  A    between atoms: S_4  and  N_7
REMARK    5  A    between atoms: N_7  and  C_8
REMARK    6  A    between atoms: C_8  and  C_9
REMARK    7  A    between atoms: C_18  and  C_20
REMARK    8  A    between atoms: C_22  and  C_26
REMARK    9  A    between atoms: N_24  and  C_25
REMARK   10  A    between atoms: C_29  and  O_32
REMARK   11  A    between atoms: O_32  and  C_33
REMARK                            x       y       z     vdW  Elec       q    Type
REMARK                         _______ _______ _______ _____ _____    ______ ____
ROOT
ATOM      1  C   UNL     1       1.654  -3.175   5.065  0.00  0.00    -0.053 C 
ATOM      2  C   UNL     1       1.107  -2.956   6.477  0.00  0.00    -0.010 C 
ATOM      3  C   UNL     1       0.613  -4.299   7.030  0.00  0.00    -0.007 C 
ATOM      4  C   UNL     1      -0.488  -4.829   6.102  0.00  0.00    -0.015 C 
ATOM      5  C   UNL     1       0.087  -4.982   4.692  0.00  0.00    -0.078 C 
ATOM      6  N   UNL     1       1.530  -4.586   4.694  0.00  0.00    +0.383 N 
ATOM      7  C   UNL     1       2.312  -5.428   5.602  0.00  0.00    -0.068 C 
ATOM      8  C   UNL     1       1.789  -5.285   7.031  0.00  0.00    +0.024 C 
ATOM      9  H   UNL     1       1.899  -4.705   3.763  0.00  0.00    -0.081 HD
ENDROOT
BRANCH   8  10
ATOM     10  C   UNL     1       1.324  -6.626   7.535  0.00  0.00    +0.041 A 
ATOM     11  C   UNL     1       0.748  -7.598   6.793  0.00  0.00    +0.053 A 
ATOM     12  C   UNL     1       0.468  -8.683   7.646  0.00  0.00    +0.093 A 
ATOM     13  N   UNL     1       0.868  -8.361   8.857  0.00  0.00    -0.171 NA
ATOM     14  N   UNL     1       1.414  -7.072   8.807  0.00  0.00    -0.271 N 
ATOM     15  C   UNL     1       1.981  -6.333   9.938  0.00  0.00    +0.172 C 
BRANCH  12  16
ATOM     16  C   UNL     1      -0.166  -9.965   7.248  0.00  0.00    +0.002 A 
ATOM     17  C   UNL     1      -0.537 -10.178   5.922  0.00  0.00    +0.013 A 
ATOM     18  C   UNL     1      -1.127 -11.370   5.555  0.00  0.00    +0.046 A 
ATOM     19  C   UNL     1      -1.349 -12.357   6.505  0.00  0.00    +0.120 A 
ATOM     20  C   UNL     1      -0.981 -12.147   7.827  0.00  0.00    +0.046 A 
ATOM     21  C   UNL     1      -0.386 -10.960   8.198  0.00  0.00    +0.013 A 
BRANCH  19  22
ATOM     22  O   UNL     1      -1.930 -13.530   6.141  0.00  0.00    -0.495 OA
ATOM     23  C   UNL     1      -2.130 -14.502   7.169  0.00  0.00    +0.277 C 
ENDBRANCH  19  22
ENDBRANCH  12  16
ENDBRANCH   8  10
BRANCH   1  24
ATOM     24  C   UNL     1       0.861  -2.318   4.076  0.00  0.00    +0.090 C 
BRANCH  24  25
ATOM     25  N   UNL     1       1.305  -2.611   2.711  0.00  0.00    -0.196 NA
ATOM     26  H   UNL     1       2.136  -3.090   2.563  0.00  0.00    +0.148 HD
BRANCH  25  27
ATOM     27  S   UNL     1       0.390  -2.123   1.419  0.00  0.00    +0.029 S 
ATOM     28  O   UNL     1      -0.919  -2.598   1.703  0.00  0.00    -0.158 OA
ATOM     29  O   UNL     1       1.097  -2.588   0.278  0.00  0.00    -0.158 OA
BRANCH  27  30
ATOM     30  C   UNL     1       0.425  -0.311   1.481  0.00  0.00    +0.185 C 
BRANCH  30  32
ATOM     31  C   UNL     1      -0.368   1.784   0.373  0.00  0.00    +0.005 C 
ATOM     32  C   UNL     1      -0.398   0.255   0.321  0.00  0.00    +0.021 C 
ENDBRANCH  30  32
ENDBRANCH  27  30
ENDBRANCH  25  27
ENDBRANCH  24  25
ENDBRANCH   1  24
TORSDOF 8
