REMARK  Name = ZINC00873118
REMARK  8 active torsions:
REMARK  status: ('A' for Active; 'I' for Inactive)
REMARK    1  A    between atoms: C_3  and  C_6
REMARK    2  A    between atoms: C_6  and  N_7
REMARK    3  A    between atoms: C_8  and  C_28
REMARK    4  A    between atoms: C_11  and  S_12
REMARK    5  A    between atoms: S_12  and  C_13
REMARK    6  A    between atoms: C_13  and  C_14
REMARK    7  A    between atoms: N_16  and  C_17
REMARK    8  A    between atoms: C_19  and  C_24
REMARK                            x       y       z     vdW  Elec       q    Type
REMARK                         _______ _______ _______ _____ _____    ______ ____
ROOT
ATOM      1  N   UNL     1       4.585   8.841   0.499  0.00  0.00    -0.295 N 
ATOM      2  C   UNL     1       4.079  10.075   0.839  0.00  0.00    +0.165 A 
ATOM      3  N   UNL     1       2.770   9.979   0.801  0.00  0.00    -0.128 NA
ATOM      4  N   UNL     1       2.428   8.789   0.458  0.00  0.00    -0.122 NA
ATOM      5  C   UNL     1       3.498   8.048   0.267  0.00  0.00    +0.193 A 
ENDROOT
BRANCH   2   6
ATOM      6  C   UNL     1       4.862  11.280   1.184  0.00  0.00    +0.022 A 
ATOM      7  C   UNL     1       4.261  12.369   1.827  0.00  0.00    +0.031 A 
ATOM      8  C   UNL     1       5.030  13.471   2.133  0.00  0.00    +0.111 A 
ATOM      9  N   UNL     1       6.312  13.512   1.821  0.00  0.00    -0.263 NA
ATOM     10  C   UNL     1       6.916  12.510   1.211  0.00  0.00    +0.111 A 
ATOM     11  C   UNL     1       6.224  11.367   0.871  0.00  0.00    +0.031 A 
ENDBRANCH   2   6
BRANCH   1  12
ATOM     12  C   UNL     1       5.995   8.457   0.404  0.00  0.00    +0.200 C 
BRANCH  12  15
ATOM     13  C   UNL     1       7.196   9.295  -2.978  0.00  0.00    +0.041 A 
ATOM     14  C   UNL     1       6.876   9.663  -1.651  0.00  0.00    +0.046 A 
ATOM     15  C   UNL     1       6.446   8.549  -1.031  0.00  0.00    +0.125 A 
ATOM     16  O   UNL     1       6.480   7.534  -1.910  0.00  0.00    -0.466 OA
ATOM     17  C   UNL     1       6.934   7.981  -3.093  0.00  0.00    +0.195 A 
ENDBRANCH  12  15
ENDBRANCH   1  12
BRANCH   5  18
ATOM     18  S   UNL     1       3.524   6.352  -0.208  0.00  0.00    -0.077 S 
BRANCH  18  19
ATOM     19  C   UNL     1       1.746   6.028  -0.315  0.00  0.00    +0.173 C 
BRANCH  19  20
ATOM     20  C   UNL     1       1.520   4.594  -0.718  0.00  0.00    +0.228 C 
ATOM     21  O   UNL     1       2.468   3.862  -0.914  0.00  0.00    -0.275 OA
ATOM     22  N   UNL     1       0.265   4.124  -0.861  0.00  0.00    -0.284 N 
ATOM     23  H   UNL     1      -0.490   4.727  -0.783  0.00  0.00    +0.155 HD
BRANCH  22  24
ATOM     24  C   UNL     1       0.052   2.765  -1.123  0.00  0.00    +0.052 A 
ATOM     25  C   UNL     1       1.005   1.827  -0.749  0.00  0.00    +0.037 A 
ATOM     26  C   UNL     1       0.792   0.487  -1.010  0.00  0.00    +0.057 A 
ATOM     27  C   UNL     1      -0.368   0.079  -1.642  0.00  0.00    +0.014 A 
ATOM     28  C   UNL     1      -1.319   1.011  -2.017  0.00  0.00    +0.022 A 
ATOM     29  C   UNL     1      -1.113   2.353  -1.759  0.00  0.00    +0.062 A 
ATOM     30 CL   UNL     1      -2.303   3.523  -2.236  0.00  0.00    -0.082 Cl
BRANCH  26  31
ATOM     31  C   UNL     1       1.826  -0.532  -0.604  0.00  0.00    +0.417 C 
ATOM     32  F   UNL     1       1.390  -1.810  -0.970  0.00  0.00    -0.166 F 
ATOM     33  F   UNL     1       3.036  -0.249  -1.247  0.00  0.00    -0.166 F 
ATOM     34  F   UNL     1       2.011  -0.482   0.782  0.00  0.00    -0.166 F 
ENDBRANCH  26  31
ENDBRANCH  22  24
ENDBRANCH  19  20
ENDBRANCH  18  19
ENDBRANCH   5  18
TORSDOF 8
