REMARK  Name = ZINC13858083
REMARK  11 active torsions:
REMARK  status: ('A' for Active; 'I' for Inactive)
REMARK    1  A    between atoms: C_1  and  C_2
REMARK    2  A    between atoms: C_5  and  C_8
REMARK    3  A    between atoms: C_9  and  C_18
REMARK    4  A    between atoms: N_28  and  C_29
REMARK    5  A    between atoms: C_29  and  C_30
REMARK    6  A    between atoms: C_30  and  C_31
REMARK    7  A    between atoms: N_33  and  C_34
REMARK    8  A    between atoms: C_34  and  C_35
REMARK    9  A    between atoms: C_35  and  N_68
REMARK   10  A    between atoms: C_36  and  N_68
REMARK   11  A    between atoms: C_37  and  N_68
REMARK                            x       y       z     vdW  Elec       q    Type
REMARK                         _______ _______ _______ _____ _____    ______ ____
ROOT
ATOM      1  C   UNL     1       2.956   3.900  -1.792  0.00  0.00    +0.140 C 
ATOM      2  C   UNL     1       4.354   4.128  -1.274  0.00  0.00    -0.010 A 
ATOM      3  C   UNL     1       5.042   3.657  -0.179  0.00  0.00    +0.006 A 
ATOM      4  C   UNL     1       6.350   4.055   0.039  0.00  0.00    +0.000 A 
ATOM      5  C   UNL     1       6.968   4.926  -0.841  0.00  0.00    +0.001 A 
ATOM      6  C   UNL     1       6.287   5.404  -1.941  0.00  0.00    +0.013 A 
ATOM      7  C   UNL     1       4.968   5.008  -2.168  0.00  0.00    +0.042 A 
ATOM      8  C   UNL     1       4.000   5.338  -3.231  0.00  0.00    +0.248 C 
ATOM      9  O   UNL     1       4.222   6.082  -4.166  0.00  0.00    -0.270 OA
ATOM     10  N   UNL     1       2.837   4.700  -3.016  0.00  0.00    -0.286 N 
ENDROOT
BRANCH   1  12
ATOM     11  C   UNL     1       1.171   3.565   0.009  0.00  0.00    +0.053 A 
ATOM     12  C   UNL     1       1.944   4.358  -0.773  0.00  0.00    +0.010 A 
ATOM     13  C   UNL     1       1.607   5.742  -0.443  0.00  0.00    +0.006 A 
ATOM     14  C   UNL     1       2.055   6.984  -0.904  0.00  0.00    +0.010 A 
ATOM     15  C   UNL     1       1.534   8.131  -0.376  0.00  0.00    +0.001 A 
ATOM     16  C   UNL     1       0.562   8.073   0.614  0.00  0.00    +0.002 A 
ATOM     17  C   UNL     1       0.106   6.861   1.083  0.00  0.00    +0.026 A 
ATOM     18  C   UNL     1       0.623   5.679   0.561  0.00  0.00    +0.047 A 
ATOM     19  N   UNL     1       0.378   4.348   0.816  0.00  0.00    -0.354 N 
ATOM     20  H   UNL     1      -0.259   4.013   1.466  0.00  0.00    +0.166 HD
BRANCH  11  25
ATOM     21  C   UNL     1       1.221  -2.189  -0.021  0.00  0.00    +0.044 C 
ATOM     22  C   UNL     1       1.208  -0.682  -0.013  0.00  0.00    -0.050 A 
ATOM     23  C   UNL     1       0.002  -0.004   0.002  0.00  0.00    +0.004 A 
ATOM     24  C   UNL     1      -0.017   1.375   0.010  0.00  0.00    +0.010 A 
ATOM     25  C   UNL     1       1.184   2.087   0.002  0.00  0.00    -0.001 A 
ATOM     26  C   UNL     1       2.397   1.396  -0.012  0.00  0.00    +0.010 A 
ATOM     27  C   UNL     1       2.402   0.017  -0.020  0.00  0.00    +0.004 A 
ENDBRANCH  11  25
ENDBRANCH   1  12
BRANCH  10  28
ATOM     28  C   UNL     1       1.646   4.788  -3.865  0.00  0.00    +0.118 C 
BRANCH  28  29
ATOM     29  C   UNL     1       0.760   5.939  -3.383  0.00  0.00    +0.115 C 
BRANCH  29  30
ATOM     30  C   UNL     1      -0.465   6.030  -4.256  0.00  0.00    +0.214 C 
ATOM     31  O   UNL     1      -0.615   5.251  -5.173  0.00  0.00    -0.276 OA
ATOM     32  N   UNL     1      -1.394   6.977  -4.017  0.00  0.00    -0.317 N 
ATOM     33  H   UNL     1      -1.274   7.600  -3.283  0.00  0.00    +0.149 HD
BRANCH  32  34
ATOM     34  C   UNL     1      -2.585   7.065  -4.866  0.00  0.00    +0.085 C 
BRANCH  34  35
ATOM     35  C   UNL     1      -3.471   8.216  -4.383  0.00  0.00    -0.061 C 
BRANCH  35  38
ATOM     36  C   UNL     1      -5.515   7.118  -5.074  0.00  0.00    -0.097 C 
ATOM     37  C   UNL     1      -5.419   9.534  -4.957  0.00  0.00    -0.097 C 
ATOM     38  N   UNL     1      -4.656   8.306  -5.262  0.00  0.00    +0.377 N 
ATOM     39  H   UNL     1      -4.345   8.340  -6.239  0.00  0.00    -0.083 HD
ENDBRANCH  35  38
ENDBRANCH  34  35
ENDBRANCH  32  34
ENDBRANCH  29  30
ENDBRANCH  28  29
ENDBRANCH  10  28
TORSDOF 8
