REMARK  Name = ZINC37037409
REMARK  5 active torsions:
REMARK  status: ('A' for Active; 'I' for Inactive)
REMARK    1  A    between atoms: C_4  and  C_7
REMARK    2  A    between atoms: C_9  and  C_12
REMARK    3  A    between atoms: C_12  and  S_13
REMARK    4  A    between atoms: S_13  and  C_14
REMARK    5  A    between atoms: C_19  and  N_20
REMARK                            x       y       z     vdW  Elec       q    Type
REMARK                         _______ _______ _______ _____ _____    ______ ____
ROOT
ATOM      1  C   UNL     1       5.692  -3.722  -0.082  0.00  0.00    +0.173 C 
ENDROOT
BRANCH   1   4
ATOM      2  C   UNL     1       3.699  -0.689  -0.037  0.00  0.00    +0.202 A 
ATOM      3  N   UNL     1       3.853  -2.025  -0.051  0.00  0.00    -0.191 NA
ATOM      4  C   UNL     1       5.120  -2.328  -0.065  0.00  0.00    +0.238 A 
ATOM      5  O   UNL     1       5.828  -1.191  -0.059  0.00  0.00    -0.337 OA
ATOM      6  N   UNL     1       4.884  -0.131  -0.046  0.00  0.00    -0.056 NA
BRANCH   2  10
ATOM      7  C   UNL     1      -0.017   1.379   0.010  0.00  0.00    +0.000 A 
ATOM      8  C   UNL     1       1.169   2.092   0.002  0.00  0.00    +0.001 A 
ATOM      9  C   UNL     1       2.377   1.426  -0.013  0.00  0.00    +0.012 A 
ATOM     10  C   UNL     1       2.402   0.033  -0.021  0.00  0.00    +0.022 A 
ATOM     11  C   UNL     1       1.205  -0.680  -0.013  0.00  0.00    +0.012 A 
ATOM     12  C   UNL     1       0.002  -0.004   0.002  0.00  0.00    +0.001 A 
ENDBRANCH   2  10
ENDBRANCH   1   4
BRANCH   1  13
ATOM     13  S   UNL     1       5.907  -4.266  -1.799  0.00  0.00    -0.114 S 
BRANCH  13  14
ATOM     14  C   UNL     1       6.574  -5.890  -1.651  0.00  0.00    +0.029 A 
ATOM     15  C   UNL     1       6.799  -6.438  -0.397  0.00  0.00    +0.018 A 
ATOM     16  C   UNL     1       7.322  -7.713  -0.283  0.00  0.00    +0.021 A 
ATOM     17  C   UNL     1       7.624  -8.445  -1.417  0.00  0.00    +0.043 A 
ATOM     18  C   UNL     1       7.403  -7.906  -2.672  0.00  0.00    +0.043 A 
ATOM     19  C   UNL     1       6.873  -6.630  -2.795  0.00  0.00    +0.040 A 
ATOM     20 CL   UNL     1       8.282 -10.044  -1.266  0.00  0.00    -0.083 Cl
BRANCH  19  21
ATOM     21  N   UNL     1       6.643  -6.085  -4.064  0.00  0.00    -0.357 N 
ATOM     22  H   UNL     1       6.276  -5.191  -4.148  0.00  0.00    +0.142 HD
ATOM     23  H   UNL     1       6.851  -6.601  -4.859  0.00  0.00    +0.142 HD
ENDBRANCH  19  21
ENDBRANCH  13  14
ENDBRANCH   1  13
TORSDOF 5
