REMARK  Name = ZINC38547394
REMARK  5 active torsions:
REMARK  status: ('A' for Active; 'I' for Inactive)
REMARK    1  A    between atoms: C_5  and  C_7
REMARK    2  A    between atoms: C_7  and  C_9
REMARK    3  A    between atoms: C_7  and  N_26
REMARK    4  A    between atoms: C_13  and  N_14
REMARK    5  A    between atoms: C_15  and  C_17
REMARK                            x       y       z     vdW  Elec       q    Type
REMARK                         _______ _______ _______ _____ _____    ______ ____
ROOT
ATOM      1  C   UNL     1       2.196  -2.621  -1.176  0.00  0.00    +0.011 A 
ATOM      2  C   UNL     1       1.634  -3.198  -2.315  0.00  0.00    -0.030 A 
ATOM      3  C   UNL     1       2.407  -3.212  -3.435  0.00  0.00    -0.005 A 
ATOM      4  S   UNL     1       3.913  -2.430  -2.923  0.00  0.00    -0.078 S 
ATOM      5  C   UNL     1       3.454  -2.107  -1.227  0.00  0.00    +0.078 A 
ATOM      6  C   UNL     1       2.054  -3.765  -4.778  0.00  0.00    +0.043 C 
ATOM      7  C   UNL     1       0.811  -4.654  -4.623  0.00  0.00    +0.005 C 
ATOM      8  C   UNL     1      -0.234  -3.898  -3.796  0.00  0.00    +0.005 C 
ATOM      9  C   UNL     1       0.228  -3.790  -2.343  0.00  0.00    +0.036 C 
ENDROOT
BRANCH   5  10
ATOM     10  N   UNL     1       4.194  -1.489  -0.217  0.00  0.00    -0.273 N 
ATOM     11  C   UNL     1       5.478  -1.143  -0.438  0.00  0.00    +0.284 C 
ATOM     12  O   UNL     1       5.992  -1.370  -1.518  0.00  0.00    -0.266 OA
ATOM     13  H   UNL     1       3.784  -1.308   0.643  0.00  0.00    +0.156 HD
BRANCH  11  14
ATOM     14  C   UNL     1       6.255  -0.494   0.622  0.00  0.00    +0.189 A 
ATOM     15  C   UNL     1       7.556  -0.090   0.530  0.00  0.00    +0.054 A 
ATOM     16  C   UNL     1       7.891   0.477   1.770  0.00  0.00    +0.042 A 
ATOM     17  C   UNL     1       6.794   0.394   2.555  0.00  0.00    +0.196 A 
ATOM     18  O   UNL     1       5.809  -0.187   1.858  0.00  0.00    -0.458 OA
ENDBRANCH  11  14
ENDBRANCH   5  10
BRANCH   1  19
ATOM     19  C   UNL     1       1.409  -2.564   0.108  0.00  0.00    +0.153 C 
BRANCH  19  20
ATOM     20  N   UNL     1       2.259  -2.991   1.222  0.00  0.00    -0.318 N 
ATOM     21  C   UNL     1       1.682  -3.473   2.391  0.00  0.00    +0.097 A 
ATOM     22  C   UNL     1       0.297  -3.553   2.495  0.00  0.00    +0.041 A 
ATOM     23  C   UNL     1      -0.263  -4.035   3.664  0.00  0.00    +0.005 A 
ATOM     24  C   UNL     1       0.584  -4.422   4.694  0.00  0.00    +0.018 A 
ATOM     25  C   UNL     1       1.949  -4.316   4.523  0.00  0.00    +0.084 A 
ATOM     26  N   UNL     1       2.456  -3.857   3.394  0.00  0.00    -0.350 N 
ATOM     27  H   UNL     1       3.224  -2.937   1.144  0.00  0.00    +0.148 HD
ATOM     28  H   UNL     1       3.420  -3.796   3.299  0.00  0.00    +0.166 HD
ENDBRANCH  19  20
BRANCH  19  33
ATOM     29  C   UNL     1      -0.827   0.401   0.757  0.00  0.00    +0.003 A 
ATOM     30  C   UNL     1       0.126   1.408   0.773  0.00  0.00    +0.020 A 
ATOM     31  C   UNL     1       1.454   1.083   0.573  0.00  0.00    +0.111 A 
ATOM     32  N   UNL     1       1.818  -0.168   0.368  0.00  0.00    -0.258 NA
ATOM     33  C   UNL     1       0.940  -1.151   0.346  0.00  0.00    +0.066 A 
ATOM     34  C   UNL     1      -0.406  -0.902   0.539  0.00  0.00    +0.025 A 
ENDBRANCH  19  33
ENDBRANCH   1  19
TORSDOF 5
