REMARK  Name = ZINC39686717
REMARK  9 active torsions:
REMARK  status: ('A' for Active; 'I' for Inactive)
REMARK    1  A    between atoms: C_1  and  C_2
REMARK    2  A    between atoms: C_2  and  C_4
REMARK    3  A    between atoms: C_2  and  N_13
REMARK    4  A    between atoms: C_4  and  C_5
REMARK    5  A    between atoms: C_10  and  O_11
REMARK    6  A    between atoms: O_11  and  C_12
REMARK    7  A    between atoms: C_14  and  C_16
REMARK    8  A    between atoms: C_27  and  C_29
REMARK    9  A    between atoms: C_32  and  C_34
REMARK                            x       y       z     vdW  Elec       q    Type
REMARK                         _______ _______ _______ _____ _____    ______ ____
ROOT
ATOM      1  C   UNL     1       1.185  -0.904  -3.349  0.00  0.00    +0.100 C 
ATOM      2  C   UNL     1       1.491  -2.415  -3.246  0.00  0.00    +0.121 C 
ATOM      3  N   UNL     1       0.440  -3.065  -4.063  0.00  0.00    -0.294 N 
ATOM      4  C   UNL     1       0.279  -2.173  -5.236  0.00  0.00    +0.115 C 
ATOM      5  C   UNL     1       0.394  -0.749  -4.658  0.00  0.00    -0.004 C 
ATOM      6  C   UNL     1       1.147   0.156  -5.628  0.00  0.00    -0.010 C 
ATOM      7  C   UNL     1       0.313   0.342  -6.899  0.00  0.00    -0.082 C 
ATOM      8  N   UNL     1      -0.984   0.935  -6.552  0.00  0.00    +0.379 N 
ATOM      9  C   UNL     1      -1.741   0.017  -5.694  0.00  0.00    -0.082 C 
ATOM     10  C   UNL     1      -0.994  -0.183  -4.372  0.00  0.00    -0.010 C 
ATOM     11  C   UNL     1      -0.221  -4.210  -3.800  0.00  0.00    +0.282 C 
ATOM     12  O   UNL     1      -0.999  -4.666  -4.618  0.00  0.00    -0.267 OA
ATOM     13  H   UNL     1      -0.835   1.805  -6.063  0.00  0.00    -0.086 HD
ATOM     14  H   UNL     1      -1.507   1.113  -7.397  0.00  0.00    -0.086 HD
ENDROOT
BRANCH  11  15
ATOM     15  C   UNL     1      -0.004  -4.905  -2.528  0.00  0.00    +0.190 A 
ATOM     16  C   UNL     1      -0.532  -6.128  -2.174  0.00  0.00    +0.055 A 
ATOM     17  C   UNL     1      -0.069  -6.409  -0.885  0.00  0.00    +0.050 A 
ATOM     18  C   UNL     1       0.717  -5.360  -0.503  0.00  0.00    +0.136 A 
ATOM     19  O   UNL     1       0.754  -4.463  -1.502  0.00  0.00    -0.450 OA
BRANCH  18  20
ATOM     20  C   UNL     1       1.416  -5.234   0.793  0.00  0.00    +0.017 A 
ATOM     21  C   UNL     1       1.396  -6.291   1.705  0.00  0.00    +0.011 A 
ATOM     22  C   UNL     1       2.051  -6.167   2.913  0.00  0.00    +0.001 A 
ATOM     23  C   UNL     1       2.726  -4.999   3.221  0.00  0.00    +0.000 A 
ATOM     24  C   UNL     1       2.749  -3.948   2.321  0.00  0.00    +0.001 A 
ATOM     25  C   UNL     1       2.104  -4.060   1.107  0.00  0.00    +0.011 A 
ENDBRANCH  18  20
ENDBRANCH  11  15
BRANCH   1  27
ATOM     26  N   UNL     1       0.397   0.828  -1.769  0.00  0.00    -0.312 N 
ATOM     27  C   UNL     1       0.352  -0.456  -2.176  0.00  0.00    +0.218 C 
ATOM     28  O   UNL     1      -0.358  -1.251  -1.597  0.00  0.00    -0.275 OA
ATOM     29  H   UNL     1       0.907   1.480  -2.274  0.00  0.00    +0.149 HD
BRANCH  26  31
ATOM     30  C   UNL     1      -1.743   1.677  -0.943  0.00  0.00    +0.028 C 
ATOM     31  C   UNL     1      -0.327   1.240  -0.564  0.00  0.00    +0.074 C 
BRANCH  31  32
ATOM     32  C   UNL     1       0.407   2.409   0.097  0.00  0.00    +0.060 C 
BRANCH  32  33
ATOM     33  C   UNL     1       1.748   1.940   0.599  0.00  0.00    -0.004 A 
ATOM     34  C   UNL     1       1.881   1.484   1.897  0.00  0.00    +0.007 A 
ATOM     35  C   UNL     1       3.111   1.055   2.358  0.00  0.00    +0.000 A 
ATOM     36  C   UNL     1       4.213   1.081   1.522  0.00  0.00    +0.004 A 
ATOM     37  C   UNL     1       4.086   1.535   0.224  0.00  0.00    +0.046 A 
ATOM     38  C   UNL     1       2.850   1.962  -0.243  0.00  0.00    +0.123 A 
BRANCH  38  39
ATOM     39  O   UNL     1       2.722   2.405  -1.521  0.00  0.00    -0.495 OA
ATOM     40  C   UNL     1       3.919   2.514  -2.293  0.00  0.00    +0.277 C 
ENDBRANCH  38  39
ENDBRANCH  32  33
ENDBRANCH  31  32
ENDBRANCH  26  31
ENDBRANCH   1  27
TORSDOF 7
