REMARK  Name = ZINC00410134
REMARK  3 active torsions:
REMARK  status: ('A' for Active; 'I' for Inactive)
REMARK    1  A    between atoms: C_2  and  C_3
REMARK    2  A    between atoms: C_7  and  O_13
REMARK    3  A    between atoms: C_9  and  O_12
REMARK                            x       y       z     vdW  Elec       q    Type
REMARK                         _______ _______ _______ _____ _____    ______ ____
ROOT
ATOM      1  C   UNL     1       1.417   2.055  -0.000  0.00  0.00    +0.014 C 
ATOM      2  C   UNL     1      -0.019   1.526   0.010  0.00  0.00    +0.010 C 
ATOM      3  C   UNL     1       0.002  -0.004   0.002  0.00  0.00    +0.034 C 
ATOM      4  C   UNL     1       0.742  -0.511   1.242  0.00  0.00    +0.143 C 
ATOM      5  C   UNL     1       2.178   0.019   1.231  0.00  0.00    +0.143 C 
ATOM      6  C   UNL     1       2.157   1.548   1.239  0.00  0.00    +0.041 C 
ENDROOT
BRANCH   1   8
ATOM      7  C   UNL     1       1.945   4.230  -0.976  0.00  0.00    +0.004 C 
ATOM      8  C   UNL     1       1.396   3.562   0.008  0.00  0.00    -0.031 C 
ENDBRANCH   1   8
BRANCH   5   9
ATOM      9  O   UNL     1       2.846  -0.442   0.055  0.00  0.00    -0.389 OA
ATOM     10  H   UNL     1       2.897  -1.405  -0.017  0.00  0.00    +0.210 HD
ENDBRANCH   5   9
BRANCH   4  11
ATOM     11  O   UNL     1       0.761  -1.940   1.234  0.00  0.00    -0.389 OA
ATOM     12  H   UNL     1      -0.117  -2.345   1.240  0.00  0.00    +0.210 HD
ENDBRANCH   4  11
TORSDOF 3
