REMARK  Name = ZINC63383504
REMARK  8 active torsions:
REMARK  status: ('A' for Active; 'I' for Inactive)
REMARK    1  A    between atoms: C_1  and  C_2
REMARK    2  A    between atoms: C_2  and  C_3
REMARK    3  A    between atoms: C_2  and  C_4
REMARK    4  A    between atoms: C_4  and  C_5
REMARK    5  A    between atoms: C_5  and  C_7
REMARK    6  A    between atoms: C_5  and  N_16
REMARK    7  A    between atoms: N_9  and  C_10
REMARK    8  A    between atoms: C_17  and  C_19
REMARK                            x       y       z     vdW  Elec       q    Type
REMARK                         _______ _______ _______ _____ _____    ______ ____
ROOT
ATOM      1  C   UNL     1       2.372   3.220   0.842  0.00  0.00    +0.167 C 
ATOM      2  C   UNL     1       3.672   3.834   0.290  0.00  0.00    +0.065 C 
ATOM      3  C   UNL     1       4.507   4.242   1.478  0.00  0.00    -0.034 C 
ATOM      4  C   UNL     1       5.096   5.400   1.762  0.00  0.00    -0.001 A 
ATOM      5  C   UNL     1       5.224   6.646   0.989  0.00  0.00    +0.010 A 
ATOM      6  C   UNL     1       5.891   7.663   1.598  0.00  0.00    +0.001 A 
ATOM      7  C   UNL     1       6.436   7.565   2.882  0.00  0.00    +0.002 A 
ATOM      8  C   UNL     1       6.372   6.455   3.660  0.00  0.00    +0.026 A 
ATOM      9  C   UNL     1       5.700   5.317   3.126  0.00  0.00    +0.043 A 
ATOM     10  N   UNL     1       5.508   4.137   3.636  0.00  0.00    -0.375 N 
ATOM     11  C   UNL     1       4.813   3.314   2.645  0.00  0.00    +0.131 C 
ATOM     12  C   UNL     1       3.478   2.788   3.170  0.00  0.00    +0.134 C 
ATOM     13  N   UNL     1       2.404   3.321   2.307  0.00  0.00    -0.276 N 
ATOM     14  C   UNL     1       1.484   3.920   3.087  0.00  0.00    +0.248 C 
ATOM     15  O   UNL     1       0.416   4.351   2.699  0.00  0.00    -0.270 OA
ATOM     16  C   UNL     1       1.959   3.975   4.471  0.00  0.00    +0.042 A 
ATOM     17  C   UNL     1       3.203   3.271   4.555  0.00  0.00    -0.013 A 
ATOM     18  C   UNL     1       3.906   3.142   5.732  0.00  0.00    +0.006 A 
ATOM     19  C   UNL     1       3.348   3.719   6.869  0.00  0.00    +0.000 A 
ATOM     20  C   UNL     1       2.143   4.390   6.827  0.00  0.00    +0.001 A 
ATOM     21  C   UNL     1       1.394   4.559   5.607  0.00  0.00    +0.013 A 
ATOM     22  H   UNL     1       5.779   3.851   4.522  0.00  0.00    +0.160 HD
ENDROOT
BRANCH   1  24
ATOM     23  N   UNL     1       2.249   1.441  -0.872  0.00  0.00    -0.302 N 
ATOM     24  C   UNL     1       2.279   1.772   0.434  0.00  0.00    +0.235 C 
ATOM     25  O   UNL     1       2.231   0.905   1.280  0.00  0.00    -0.274 OA
ATOM     26  H   UNL     1       2.360   2.127  -1.549  0.00  0.00    +0.150 HD
BRANCH  23  27
ATOM     27  C   UNL     1       2.048   0.045  -1.270  0.00  0.00    +0.159 C 
BRANCH  27  28
ATOM     28  C   UNL     1       2.718  -0.200  -2.597  0.00  0.00    +0.234 C 
ATOM     29  O   UNL     1       2.996   0.735  -3.318  0.00  0.00    -0.274 OA
ATOM     30  N   UNL     1       3.009  -1.458  -2.983  0.00  0.00    -0.311 N 
ATOM     31  H   UNL     1       2.724  -2.210  -2.440  0.00  0.00    +0.149 HD
BRANCH  30  32
ATOM     32  C   UNL     1       3.754  -1.691  -4.223  0.00  0.00    +0.073 C 
ATOM     33  C   UNL     1       2.784  -1.708  -5.406  0.00  0.00    +0.022 C 
ATOM     34  C   UNL     1       3.563  -1.951  -6.700  0.00  0.00    +0.002 C 
ATOM     35  C   UNL     1       4.288  -3.296  -6.615  0.00  0.00    +0.000 C 
ATOM     36  C   UNL     1       5.258  -3.278  -5.432  0.00  0.00    +0.002 C 
ATOM     37  C   UNL     1       4.479  -3.036  -4.137  0.00  0.00    +0.022 C 
ENDBRANCH  30  32
ENDBRANCH  27  28
BRANCH  27  38
ATOM     38  C   UNL     1       0.550  -0.239  -1.394  0.00  0.00    +0.034 C 
BRANCH  38  40
ATOM     39  C   UNL     1       0.768  -2.547  -0.462  0.00  0.00    +0.007 C 
ATOM     40  C   UNL     1       0.336  -1.727  -1.679  0.00  0.00    -0.015 C 
ATOM     41  C   UNL     1      -1.145  -1.983  -1.967  0.00  0.00    +0.007 C 
ENDBRANCH  38  40
ENDBRANCH  27  38
ENDBRANCH  23  27
ENDBRANCH   1  24
TORSDOF 6
