REMARK  Name = ZINC39487599
REMARK  12 active torsions:
REMARK  status: ('A' for Active; 'I' for Inactive)
REMARK    1  A    between atoms: C_1  and  C_2
REMARK    2  A    between atoms: C_2  and  C_3
REMARK    3  A    between atoms: C_2  and  C_4
REMARK    4  A    between atoms: C_4  and  C_5
REMARK    5  A    between atoms: C_5  and  C_38
REMARK    6  A    between atoms: N_7  and  C_31
REMARK    7  A    between atoms: N_10  and  C_11
REMARK    8  A    between atoms: C_11  and  C_12
REMARK    9  A    between atoms: C_12  and  C_25
REMARK   10  A    between atoms: N_15  and  C_18
REMARK   11  A    between atoms: C_18  and  C_19
REMARK   12  A    between atoms: C_31  and  C_32
REMARK                            x       y       z     vdW  Elec       q    Type
REMARK                         _______ _______ _______ _____ _____    ______ ____
ROOT
ATOM      1  C   UNL     1      -6.240  -1.558   0.168  0.00  0.00    -0.014 C 
ATOM      2  C   UNL     1      -7.281  -2.068  -0.834  0.00  0.00    -0.010 C 
ATOM      3  C   UNL     1      -6.569  -2.554  -2.098  0.00  0.00    -0.078 C 
ATOM      4  N   UNL     1      -5.814  -1.447  -2.696  0.00  0.00    +0.382 N 
ATOM      5  C   UNL     1      -4.767  -1.000  -1.769  0.00  0.00    -0.078 C 
ATOM      6  C   UNL     1      -5.409  -0.454  -0.492  0.00  0.00    -0.010 C 
ATOM      7  H   UNL     1      -6.440  -0.679  -2.889  0.00  0.00    -0.081 HD
ENDROOT
BRANCH   1   8
ATOM      8  C   UNL     1      -6.948  -0.998   1.403  0.00  0.00    -0.003 C 
ATOM      9  C   UNL     1      -7.968  -2.018   1.913  0.00  0.00    +0.004 C 
ATOM     10  C   UNL     1      -8.675  -1.457   3.148  0.00  0.00    +0.000 C 
ATOM     11  C   UNL     1      -9.395  -0.159   2.778  0.00  0.00    +0.000 C 
ATOM     12  C   UNL     1      -8.376   0.862   2.268  0.00  0.00    +0.000 C 
ATOM     13  C   UNL     1      -7.668   0.301   1.033  0.00  0.00    +0.004 C 
ENDBRANCH   1   8
BRANCH   1  14
ATOM     14  C   UNL     1      -5.323  -2.710   0.583  0.00  0.00    +0.117 C 
BRANCH  14  20
ATOM     15  C   UNL     1      -4.072  -2.414   2.853  0.00  0.00    +0.052 C 
ATOM     16  C   UNL     1      -2.776  -1.657   3.204  0.00  0.00    +0.135 C 
ATOM     17  N   UNL     1      -2.341  -1.087   1.920  0.00  0.00    -0.279 N 
ATOM     18  C   UNL     1      -3.215  -1.436   0.966  0.00  0.00    +0.306 C 
ATOM     19  O   UNL     1      -3.097  -1.097  -0.196  0.00  0.00    -0.252 OA
ATOM     20  N   UNL     1      -4.229  -2.191   1.408  0.00  0.00    -0.278 N 
ATOM     21  C   UNL     1      -3.923  -3.908   3.151  0.00  0.00    +0.033 C 
BRANCH  15  22
ATOM     22  C   UNL     1      -5.260  -1.830   3.619  0.00  0.00    +0.030 C 
BRANCH  22  24
ATOM     23  C   UNL     1      -4.979  -0.782   5.870  0.00  0.00    +0.007 C 
ATOM     24  C   UNL     1      -5.088  -2.108   5.114  0.00  0.00    -0.015 C 
ATOM     25  C   UNL     1      -6.297  -2.890   5.630  0.00  0.00    +0.007 C 
ENDBRANCH  22  24
ENDBRANCH  15  22
BRANCH  17  26
ATOM     26  C   UNL     1      -1.144  -0.269   1.717  0.00  0.00    +0.144 C 
BRANCH  26  27
ATOM     27  C   UNL     1       0.024  -1.161   1.383  0.00  0.00    -0.030 A 
ATOM     28  C   UNL     1       0.818  -1.668   2.394  0.00  0.00    +0.005 A 
ATOM     29  C   UNL     1       1.889  -2.486   2.088  0.00  0.00    +0.000 A 
ATOM     30  C   UNL     1       2.166  -2.798   0.769  0.00  0.00    +0.000 A 
ATOM     31  C   UNL     1       1.371  -2.291  -0.242  0.00  0.00    +0.000 A 
ATOM     32  C   UNL     1       0.298  -1.476   0.065  0.00  0.00    +0.005 A 
ENDBRANCH  26  27
ENDBRANCH  17  26
ENDBRANCH  14  20
ENDBRANCH   1  14
BRANCH   4  33
ATOM     33  C   UNL     1      -5.196  -1.897  -3.950  0.00  0.00    -0.043 C 
BRANCH  33  34
ATOM     34  C   UNL     1      -4.559  -0.723  -4.647  0.00  0.00    -0.064 A 
ATOM     35  C   UNL     1      -5.326   0.104  -5.447  0.00  0.00    +0.002 A 
ATOM     36  C   UNL     1      -4.742   1.181  -6.087  0.00  0.00    +0.000 A 
ATOM     37  C   UNL     1      -3.393   1.433  -5.926  0.00  0.00    +0.000 A 
ATOM     38  C   UNL     1      -2.627   0.607  -5.125  0.00  0.00    +0.000 A 
ATOM     39  C   UNL     1      -3.211  -0.468  -4.482  0.00  0.00    +0.002 A 
ENDBRANCH  33  34
ENDBRANCH   4  33
TORSDOF 9
