REMARK  Name = ZINC12975796
REMARK  9 active torsions:
REMARK  status: ('A' for Active; 'I' for Inactive)
REMARK    1  A    between atoms: C_1  and  C_2
REMARK    2  A    between atoms: C_3  and  C_28
REMARK    3  A    between atoms: C_7  and  N_18
REMARK    4  A    between atoms: C_9  and  C_11
REMARK    5  A    between atoms: C_11  and  N_59
REMARK    6  A    between atoms: C_14  and  C_17
REMARK    7  A    between atoms: N_18  and  C_19
REMARK    8  A    between atoms: C_19  and  C_21
REMARK    9  A    between atoms: C_19  and  C_22
REMARK                            x       y       z     vdW  Elec       q    Type
REMARK                         _______ _______ _______ _____ _____    ______ ____
ROOT
ATOM      1  C   UNL     1       0.070  -0.247   2.437  0.00  0.00    +0.045 C 
ATOM      2  C   UNL     1       0.059  -0.793   1.032  0.00  0.00    -0.028 A 
ATOM      3  C   UNL     1       0.318   0.010  -0.010  0.00  0.00    -0.008 A 
ATOM      4  S   UNL     1       0.181  -1.077  -1.417  0.00  0.00    -0.074 S 
ATOM      5  C   UNL     1      -0.209  -2.583  -0.566  0.00  0.00    +0.114 A 
ATOM      6  C   UNL     1      -0.231  -2.196   0.792  0.00  0.00    +0.051 A 
ATOM      7  C   UNL     1      -0.532  -3.234   1.716  0.00  0.00    +0.131 A 
ATOM      8  N   UNL     1      -0.765  -4.455   1.262  0.00  0.00    -0.219 NA
ATOM      9  C   UNL     1      -0.728  -4.745  -0.026  0.00  0.00    +0.116 A 
ATOM     10  N   UNL     1      -0.454  -3.825  -0.931  0.00  0.00    -0.227 NA
ATOM     11  C   UNL     1       0.640   1.482   0.004  0.00  0.00    +0.052 C 
ENDROOT
BRANCH   7  12
ATOM     12  N   UNL     1      -0.581  -2.970   3.074  0.00  0.00    -0.323 N 
ATOM     13  H   UNL     1      -0.493  -2.059   3.394  0.00  0.00    +0.148 HD
BRANCH  12  14
ATOM     14  C   UNL     1      -0.765  -4.068   4.027  0.00  0.00    +0.097 C 
ATOM     15  C   UNL     1      -2.257  -4.366   4.180  0.00  0.00    +0.030 C 
BRANCH  14  16
ATOM     16  C   UNL     1      -0.183  -3.667   5.384  0.00  0.00    +0.138 C 
ATOM     17  C   UNL     1      -0.268  -4.859   6.362  0.00  0.00    +0.035 C 
ATOM     18  C   UNL     1      -0.652  -4.163   7.696  0.00  0.00    +0.031 C 
ATOM     19  C   UNL     1      -1.549  -3.010   7.179  0.00  0.00    +0.160 C 
ATOM     20  O   UNL     1      -0.947  -2.593   5.942  0.00  0.00    -0.375 OA
ENDBRANCH  14  16
ENDBRANCH  12  14
ENDBRANCH   7  12
BRANCH   9  21
ATOM     21  C   UNL     1      -1.003  -6.158  -0.471  0.00  0.00    -0.001 C 
BRANCH  21  28
ATOM     22  C   UNL     1       1.049  -6.676   0.703  0.00  0.00    -0.078 C 
ATOM     23  C   UNL     1       2.412  -7.360   0.565  0.00  0.00    -0.016 C 
ATOM     24  C   UNL     1       2.204  -8.862   0.354  0.00  0.00    -0.018 C 
ATOM     25  C   UNL     1       1.335  -9.080  -0.887  0.00  0.00    -0.016 C 
ATOM     26  C   UNL     1       0.004  -8.347  -0.707  0.00  0.00    -0.078 C 
ATOM     27  C   UNL     1       3.560  -9.543   0.154  0.00  0.00    +0.007 C 
ATOM     28  N   UNL     1       0.271  -6.903  -0.533  0.00  0.00    +0.384 N 
ATOM     29  H   UNL     1       0.815  -6.566  -1.336  0.00  0.00    -0.081 HD
ENDBRANCH  21  28
ENDBRANCH   9  21
TORSDOF 5
