REMARK  Name = ZINC29595067
REMARK  14 active torsions:
REMARK  status: ('A' for Active; 'I' for Inactive)
REMARK    1  A    between atoms: C_1  and  C_2
REMARK    2  A    between atoms: C_2  and  C_3
REMARK    3  A    between atoms: C_3  and  C_4
REMARK    4  A    between atoms: C_4  and  N_5
REMARK    5  A    between atoms: C_6  and  C_25
REMARK    6  A    between atoms: C_9  and  S_10
REMARK    7  A    between atoms: S_10  and  C_11
REMARK    8  A    between atoms: C_11  and  C_12
REMARK    9  A    between atoms: C_22  and  C_24
REMARK   10  A    between atoms: C_25  and  C_27
REMARK   11  A    between atoms: C_25  and  N_29
REMARK   12  A    between atoms: C_27  and  C_28
REMARK   13  A    between atoms: N_29  and  C_30
REMARK   14  A    between atoms: N_29  and  C_31
REMARK                            x       y       z     vdW  Elec       q    Type
REMARK                         _______ _______ _______ _____ _____    ______ ____
ROOT
ATOM      1  N   UNL     1       1.576  -0.654  -7.746  0.00  0.00    -0.307 N 
ATOM      2  C   UNL     1       2.580  -1.526  -8.067  0.00  0.00    +0.120 A 
ATOM      3  N   UNL     1       3.230  -1.789  -6.969  0.00  0.00    -0.135 NA
ATOM      4  N   UNL     1       2.713  -1.145  -5.984  0.00  0.00    -0.123 NA
ATOM      5  C   UNL     1       1.691  -0.435  -6.403  0.00  0.00    +0.192 A 
ENDROOT
BRANCH   1   6
ATOM      6  C   UNL     1       0.584  -0.075  -8.655  0.00  0.00    +0.125 C 
BRANCH   6   7
ATOM      7  C   UNL     1       1.121   1.238  -9.227  0.00  0.00    +0.021 C 
BRANCH   7   9
ATOM      8  C   UNL     1       0.622   3.156 -10.748  0.00  0.00    +0.004 C 
ATOM      9  C   UNL     1       0.084   1.843 -10.176  0.00  0.00    -0.002 C 
ENDBRANCH   7   9
ENDBRANCH   6   7
ENDBRANCH   1   6
BRANCH   5  10
ATOM     10  S   UNL     1       0.666   0.607  -5.420  0.00  0.00    -0.077 S 
BRANCH  10  11
ATOM     11  C   UNL     1       1.437   0.368  -3.800  0.00  0.00    +0.173 C 
BRANCH  11  12
ATOM     12  C   UNL     1       0.705   1.189  -2.769  0.00  0.00    +0.230 C 
ATOM     13  O   UNL     1      -0.244   1.868  -3.098  0.00  0.00    -0.274 OA
ATOM     14  N   UNL     1       1.105   1.167  -1.482  0.00  0.00    -0.267 N 
ATOM     15  C   UNL     1       2.184   0.424  -0.987  0.00  0.00    +0.040 A 
ATOM     16  C   UNL     1       3.057  -0.428  -1.666  0.00  0.00    +0.024 A 
ATOM     17  C   UNL     1       4.066  -1.076  -0.986  0.00  0.00    +0.002 A 
ATOM     18  C   UNL     1       4.220  -0.887   0.376  0.00  0.00    +0.000 A 
ATOM     19  C   UNL     1       3.359  -0.045   1.055  0.00  0.00    +0.005 A 
ATOM     20  C   UNL     1       2.347   0.606   0.377  0.00  0.00    -0.024 A 
ATOM     21  C   UNL     1       1.284   1.565   0.865  0.00  0.00    +0.059 C 
ATOM     22  C   UNL     1       0.476   1.920  -0.394  0.00  0.00    +0.083 C 
ATOM     23  C   UNL     1       0.558   3.422  -0.671  0.00  0.00    +0.029 C 
ENDBRANCH  11  12
ENDBRANCH  10  11
ENDBRANCH   5  10
BRANCH   2  24
ATOM     24  C   UNL     1       2.878  -2.079  -9.436  0.00  0.00    +0.000 C 
BRANCH  24  25
ATOM     25  N   UNL     1       4.325  -2.015  -9.686  0.00  0.00    +0.383 N 
ATOM     26  C   UNL     1       4.809  -0.630  -9.622  0.00  0.00    -0.096 C 
ATOM     27  C   UNL     1       5.059  -2.873  -8.747  0.00  0.00    -0.096 C 
ATOM     28  H   UNL     1       4.509  -2.391 -10.703  0.00  0.00    -0.082 HD
ENDBRANCH  24  25
BRANCH  24  29
ATOM     29  C   UNL     1       2.412  -3.535  -9.511  0.00  0.00    -0.011 C 
ATOM     30  C   UNL     1       2.633  -4.069 -10.927  0.00  0.00    +0.002 C 
ENDBRANCH  24  29
ENDBRANCH   2  24
TORSDOF 9
