REMARK  Name = ZINC39741517
REMARK  13 active torsions:
REMARK  status: ('A' for Active; 'I' for Inactive)
REMARK    1  A    between atoms: C_1  and  C_2
REMARK    2  A    between atoms: C_4  and  C_12
REMARK    3  A    between atoms: C_12  and  C_14
REMARK    4  A    between atoms: C_14  and  O_15
REMARK    5  A    between atoms: O_15  and  C_16
REMARK    6  A    between atoms: C_16  and  C_18
REMARK    7  A    between atoms: C_18  and  C_20
REMARK    8  A    between atoms: C_18  and  N_24
REMARK    9  A    between atoms: C_20  and  C_21
REMARK   10  A    between atoms: C_21  and  S_22
REMARK   11  A    between atoms: S_22  and  C_23
REMARK   12  A    between atoms: N_24  and  S_25
REMARK   13  A    between atoms: S_25  and  C_28
REMARK                            x       y       z     vdW  Elec       q    Type
REMARK                         _______ _______ _______ _____ _____    ______ ____
ROOT
ATOM      1  C   UNL     1       1.217  -0.970  -6.114  0.00  0.00    +0.326 C 
ATOM      2  O   UNL     1       2.255  -1.579  -6.007  0.00  0.00    -0.249 OA
ENDROOT
BRANCH   1   3
ATOM      3  O   UNL     1       0.532  -0.615  -5.016  0.00  0.00    -0.455 OA
BRANCH   3   4
ATOM      4  C   UNL     1       1.089  -0.990  -3.754  0.00  0.00    +0.311 C 
BRANCH   4   5
ATOM      5  C   UNL     1       0.188  -0.510  -2.645  0.00  0.00    +0.199 C 
ATOM      6  O   UNL     1      -0.831   0.095  -2.909  0.00  0.00    -0.289 OA
BRANCH   5   9
ATOM      7  C   UNL     1      -0.373   1.165   0.002  0.00  0.00    +0.035 C 
ATOM      8  C   UNL     1      -0.248  -0.359  -0.066  0.00  0.00    +0.111 C 
ATOM      9  C   UNL     1       0.530  -0.763  -1.299  0.00  0.00    +0.029 C 
ATOM     10  C   UNL     1       1.646  -1.433  -0.831  0.00  0.00    +0.007 A 
ATOM     11  C   UNL     1       2.742  -2.047  -1.481  0.00  0.00    +0.010 A 
ATOM     12  C   UNL     1       3.715  -2.645  -0.757  0.00  0.00    +0.001 A 
ATOM     13  C   UNL     1       3.692  -2.688   0.646  0.00  0.00    +0.002 A 
ATOM     14  C   UNL     1       2.691  -2.132   1.362  0.00  0.00    +0.026 A 
ATOM     15  C   UNL     1       1.591  -1.461   0.651  0.00  0.00    +0.043 A 
ATOM     16  N   UNL     1       0.519  -0.854   1.081  0.00  0.00    -0.377 N 
ATOM     17  H   UNL     1       0.269  -0.747   2.012  0.00  0.00    +0.160 HD
ENDBRANCH   5   9
ENDBRANCH   4   5
ENDBRANCH   3   4
ENDBRANCH   1   3
BRANCH   1  18
ATOM     18  C   UNL     1       0.692  -0.609  -7.479  0.00  0.00    +0.186 C 
BRANCH  18  19
ATOM     19  N   UNL     1       1.614  -1.105  -8.504  0.00  0.00    -0.176 NA
ATOM     20  H   UNL     1       1.741  -2.060  -8.621  0.00  0.00    +0.149 HD
BRANCH  19  21
ATOM     21  S   UNL     1       2.439  -0.036  -9.463  0.00  0.00    +0.059 S 
ATOM     22  O   UNL     1       3.255  -0.814 -10.329  0.00  0.00    -0.153 OA
ATOM     23  O   UNL     1       1.483   0.895  -9.949  0.00  0.00    -0.153 OA
BRANCH  21  24
ATOM     24  C   UNL     1       3.533   0.865  -8.416  0.00  0.00    +0.105 A 
ATOM     25  C   UNL     1       3.109   2.037  -7.819  0.00  0.00    +0.030 A 
ATOM     26  C   UNL     1       3.966   2.745  -6.997  0.00  0.00    +0.022 A 
ATOM     27  C   UNL     1       5.250   2.280  -6.774  0.00  0.00    +0.041 A 
ATOM     28  C   UNL     1       5.674   1.107  -7.372  0.00  0.00    +0.022 A 
ATOM     29  C   UNL     1       4.814   0.397  -8.188  0.00  0.00    +0.030 A 
ATOM     30 CL   UNL     1       6.328   3.168  -5.743  0.00  0.00    -0.084 Cl
ENDBRANCH  21  24
ENDBRANCH  19  21
ENDBRANCH  18  19
BRANCH  18  31
ATOM     31  C   UNL     1      -0.685  -1.245  -7.681  0.00  0.00    +0.042 C 
BRANCH  31  32
ATOM     32  C   UNL     1      -1.266  -0.789  -9.021  0.00  0.00    +0.071 C 
BRANCH  32  33
ATOM     33  S   UNL     1      -2.957  -1.422  -9.193  0.00  0.00    -0.164 S 
ATOM     34  C   UNL     1      -3.495  -0.802 -10.811  0.00  0.00    +0.084 C 
ENDBRANCH  32  33
ENDBRANCH  31  32
ENDBRANCH  18  31
ENDBRANCH   1  18
TORSDOF 11
