REMARK  Name = ZINC21168024
REMARK  11 active torsions:
REMARK  status: ('A' for Active; 'I' for Inactive)
REMARK    1  A    between atoms: C_1  and  O_2
REMARK    2  A    between atoms: O_2  and  C_3
REMARK    3  A    between atoms: C_6  and  O_34
REMARK    4  A    between atoms: C_7  and  C_9
REMARK    5  A    between atoms: C_9  and  C_11
REMARK    6  A    between atoms: C_12  and  N_33
REMARK    7  A    between atoms: C_13  and  C_20
REMARK    8  A    between atoms: C_22  and  C_25
REMARK    9  A    between atoms: C_30  and  O_31
REMARK   10  A    between atoms: O_31  and  C_32
REMARK   11  A    between atoms: O_34  and  C_35
REMARK                            x       y       z     vdW  Elec       q    Type
REMARK                         _______ _______ _______ _____ _____    ______ ____
ROOT
ATOM      1  C   UNL     1       1.382   6.409  -0.218  0.00  0.00    +0.116 A 
ATOM      2  C   UNL     1       0.054   5.993  -0.113  0.00  0.00    +0.064 A 
ATOM      3  C   UNL     1      -0.741   7.147  -0.040  0.00  0.00    +0.054 A 
ATOM      4  C   UNL     1       0.125   8.257  -0.103  0.00  0.00    +0.058 A 
ATOM      5  N   UNL     1       1.409   7.795  -0.205  0.00  0.00    -0.311 N 
ATOM      6  C   UNL     1       2.450   8.674  -0.276  0.00  0.00    +0.092 A 
ATOM      7  C   UNL     1       2.232  10.007  -0.244  0.00  0.00    +0.018 A 
ATOM      8  C   UNL     1       0.927  10.508  -0.137  0.00  0.00    +0.003 A 
ATOM      9  C   UNL     1      -0.122   9.638  -0.073  0.00  0.00    +0.027 A 
ENDROOT
BRANCH   3  10
ATOM     10  C   UNL     1      -2.208   7.191   0.080  0.00  0.00    +0.113 A 
ATOM     11  N   UNL     1      -3.075   6.189   0.144  0.00  0.00    -0.239 NA
ATOM     12  C   UNL     1      -4.374   6.415   0.252  0.00  0.00    +0.082 A 
ATOM     13  C   UNL     1      -4.831   7.703   0.299  0.00  0.00    +0.075 A 
ATOM     14  S   UNL     1      -3.293   8.608   0.187  0.00  0.00    -0.075 S 
BRANCH  12  15
ATOM     15  C   UNL     1      -5.326   5.280   0.322  0.00  0.00    +0.043 A 
ATOM     16  C   UNL     1      -6.331   5.269   1.286  0.00  0.00    +0.013 A 
ATOM     17  C   UNL     1      -7.215   4.210   1.347  0.00  0.00    +0.001 A 
ATOM     18  C   UNL     1      -7.108   3.160   0.453  0.00  0.00    +0.004 A 
ATOM     19  C   UNL     1      -6.114   3.161  -0.508  0.00  0.00    +0.046 A 
ATOM     20  C   UNL     1      -5.223   4.220  -0.584  0.00  0.00    +0.129 A 
BRANCH  20  21
ATOM     21  O   UNL     1      -4.249   4.224  -1.531  0.00  0.00    -0.494 OA
ATOM     22  C   UNL     1      -4.205   3.108  -2.422  0.00  0.00    +0.277 C 
ENDBRANCH  20  21
ENDBRANCH  12  15
ENDBRANCH   3  10
BRANCH   2  23
ATOM     23  N   UNL     1      -0.398   4.679  -0.085  0.00  0.00    -0.356 N 
ATOM     24  H   UNL     1      -1.474   4.469   0.002  0.00  0.00    +0.142 HD
ATOM     25  H   UNL     1       0.321   3.849  -0.148  0.00  0.00    +0.142 HD
ENDBRANCH   2  23
BRANCH   1  26
ATOM     26  C   UNL     1       2.504   5.564  -0.314  0.00  0.00    +0.215 C 
ATOM     27  O   UNL     1       3.019   5.115   0.696  0.00  0.00    -0.285 OA
BRANCH  26  32
ATOM     28  C   UNL     1       2.930   5.311  -4.040  0.00  0.00    +0.121 A 
ATOM     29  C   UNL     1       4.104   4.574  -4.130  0.00  0.00    +0.049 A 
ATOM     30  C   UNL     1       4.756   4.159  -2.985  0.00  0.00    +0.050 A 
ATOM     31  C   UNL     1       4.242   4.477  -1.737  0.00  0.00    +0.131 A 
ATOM     32  C   UNL     1       3.059   5.221  -1.640  0.00  0.00    +0.069 A 
ATOM     33  C   UNL     1       2.409   5.641  -2.803  0.00  0.00    +0.061 A 
BRANCH  28  35
ATOM     34  C   UNL     1       2.892   5.346  -6.418  0.00  0.00    +0.277 C 
ATOM     35  O   UNL     1       2.296   5.716  -5.173  0.00  0.00    -0.495 OA
ENDBRANCH  28  35
BRANCH  31  36
ATOM     36  O   UNL     1       4.883   4.069  -0.613  0.00  0.00    -0.494 OA
ATOM     37  C   UNL     1       6.085   3.315  -0.788  0.00  0.00    +0.277 C 
ENDBRANCH  31  36
ENDBRANCH  26  32
ENDBRANCH   1  26
TORSDOF 8
