REMARK  Name = ZINC02558484
REMARK  3 active torsions:
REMARK  status: ('A' for Active; 'I' for Inactive)
REMARK    1  A    between atoms: C_6  and  C_10
REMARK    2  A    between atoms: C_7  and  N_9
REMARK    3  A    between atoms: N_12  and  C_13
REMARK                            x       y       z     vdW  Elec       q    Type
REMARK                         _______ _______ _______ _____ _____    ______ ____
ROOT
ATOM      1  C   UNL     1      -0.759   1.596  -1.228  0.00  0.00    +0.005 C 
ATOM      2  C   UNL     1      -0.013   1.086   0.008  0.00  0.00    +0.005 C 
ATOM      3  C   UNL     1      -0.737   1.584   1.267  0.00  0.00    +0.043 C 
ATOM      4  C   UNL     1      -2.204   1.309   1.104  0.00  0.00    -0.005 A 
ATOM      5  C   UNL     1      -2.851   0.991  -0.037  0.00  0.00    -0.023 A 
ATOM      6  C   UNL     1      -4.282   0.774   0.103  0.00  0.00    +0.068 A 
ATOM      7  C   UNL     1      -4.831   0.914   1.371  0.00  0.00    +0.076 A 
ATOM      8  S   UNL     1      -3.461   1.325   2.350  0.00  0.00    -0.078 S 
ATOM      9  C   UNL     1      -2.102   0.875  -1.359  0.00  0.00    +0.037 C 
ENDROOT
BRANCH   6  10
ATOM     10  C   UNL     1      -5.114   0.422  -1.050  0.00  0.00    +0.247 C 
ATOM     11  O   UNL     1      -5.286  -0.748  -1.341  0.00  0.00    -0.270 OA
ATOM     12  N   UNL     1      -5.688   1.392  -1.789  0.00  0.00    -0.308 N 
ATOM     13  H   UNL     1      -5.551   2.324  -1.557  0.00  0.00    +0.149 HD
BRANCH  12  14
ATOM     14  C   UNL     1      -6.520   1.039  -2.942  0.00  0.00    +0.073 C 
ATOM     15  C   UNL     1      -5.642   0.899  -4.203  0.00  0.00    +0.022 C 
ATOM     16  C   UNL     1      -6.519   1.477  -5.342  0.00  0.00    +0.002 C 
ATOM     17  C   UNL     1      -7.226   2.672  -4.656  0.00  0.00    +0.002 C 
ATOM     18  C   UNL     1      -7.527   2.167  -3.230  0.00  0.00    +0.022 C 
ENDBRANCH  12  14
ENDBRANCH   6  10
BRANCH   7  19
ATOM     19  N   UNL     1      -6.149   0.763   1.759  0.00  0.00    -0.352 N 
ATOM     20  H   UNL     1      -6.823   0.529   1.102  0.00  0.00    +0.143 HD
ATOM     21  H   UNL     1      -6.399   0.890   2.687  0.00  0.00    +0.143 HD
ENDBRANCH   7  19
TORSDOF 3
