REMARK  Name = ZINC39942466
REMARK  7 active torsions:
REMARK  status: ('A' for Active; 'I' for Inactive)
REMARK    1  A    between atoms: C_1  and  C_2
REMARK    2  A    between atoms: C_2  and  C_4
REMARK    3  A    between atoms: C_2  and  S_17
REMARK    4  A    between atoms: N_6  and  C_7
REMARK    5  A    between atoms: S_17  and  C_18
REMARK    6  A    between atoms: C_22  and  C_27
REMARK    7  A    between atoms: N_23  and  C_24
REMARK                            x       y       z     vdW  Elec       q    Type
REMARK                         _______ _______ _______ _____ _____    ______ ____
ROOT
ATOM      1  C   UNL     1      -2.255   0.095   1.311  0.00  0.00    +0.238 C 
ATOM      2  N   UNL     1      -1.464  -0.461   2.421  0.00  0.00    -0.237 N 
ATOM      3  N   UNL     1      -1.032   0.628   3.187  0.00  0.00    -0.169 NA
ATOM      4  C   UNL     1      -1.458   1.758   2.686  0.00  0.00    +0.147 C 
ATOM      5  N   UNL     1      -2.221   1.550   1.531  0.00  0.00    -0.282 N 
ATOM      6  H   UNL     1      -1.278  -1.398   2.589  0.00  0.00    +0.171 HD
ENDROOT
BRANCH   4   7
ATOM      7  C   UNL     1      -1.185   3.020   3.237  0.00  0.00    +0.022 C 
ATOM      8  C   UNL     1      -0.524   3.292   4.435  0.00  0.00    +0.006 A 
ATOM      9  C   UNL     1       0.048   2.458   5.419  0.00  0.00    +0.010 A 
ATOM     10  C   UNL     1       0.642   3.011   6.508  0.00  0.00    +0.001 A 
ATOM     11  C   UNL     1       0.702   4.395   6.685  0.00  0.00    +0.002 A 
ATOM     12  C   UNL     1       0.172   5.255   5.780  0.00  0.00    +0.026 A 
ATOM     13  C   UNL     1      -0.464   4.752   4.617  0.00  0.00    +0.043 A 
ATOM     14  N   UNL     1      -1.045   5.367   3.605  0.00  0.00    -0.380 N 
ATOM     15  C   UNL     1      -1.541   4.369   2.652  0.00  0.00    +0.152 C 
ATOM     16  H   UNL     1      -1.128   6.328   3.505  0.00  0.00    +0.160 HD
ENDBRANCH   4   7
BRANCH   5  17
ATOM     17  C   UNL     1      -2.861   2.576   0.704  0.00  0.00    +0.078 C 
ATOM     18  C   UNL     1      -4.389   2.578   0.636  0.00  0.00    +0.024 C 
ATOM     19  C   UNL     1      -3.571   2.114  -0.571  0.00  0.00    +0.024 C 
ENDBRANCH   5  17
BRANCH   1  20
ATOM     20  S   UNL     1      -1.494  -0.324  -0.282  0.00  0.00    -0.106 S 
BRANCH  20  22
ATOM     21  C   UNL     1       0.127   1.868  -0.050  0.00  0.00    +0.029 C 
ATOM     22  C   UNL     1       0.189   0.342  -0.153  0.00  0.00    +0.133 C 
BRANCH  22  23
ATOM     23  C   UNL     1       0.978  -0.047  -1.376  0.00  0.00    +0.230 C 
ATOM     24  O   UNL     1       0.404  -0.289  -2.417  0.00  0.00    -0.274 OA
ATOM     25  N   UNL     1       2.322  -0.126  -1.314  0.00  0.00    -0.284 N 
ATOM     26  H   UNL     1       2.786   0.138  -0.504  0.00  0.00    +0.155 HD
BRANCH  25  27
ATOM     27  C   UNL     1       3.048  -0.589  -2.419  0.00  0.00    +0.037 A 
ATOM     28  C   UNL     1       4.315  -0.083  -2.679  0.00  0.00    +0.027 A 
ATOM     29  C   UNL     1       5.031  -0.538  -3.768  0.00  0.00    +0.051 A 
ATOM     30  C   UNL     1       4.489  -1.502  -4.606  0.00  0.00    +0.162 A 
ATOM     31  C   UNL     1       3.222  -2.012  -4.347  0.00  0.00    +0.164 A 
ATOM     32  C   UNL     1       2.505  -1.557  -3.251  0.00  0.00    +0.072 A 
ATOM     33  O   UNL     1       2.676  -2.963  -5.153  0.00  0.00    -0.485 OA
ATOM     34  C   UNL     1       3.267  -3.128  -6.446  0.00  0.00    +0.270 C 
ATOM     35  C   UNL     1       4.792  -3.168  -6.276  0.00  0.00    +0.270 C 
ATOM     36  O   UNL     1       5.208  -1.936  -5.678  0.00  0.00    -0.485 OA
ENDBRANCH  25  27
ENDBRANCH  22  23
ENDBRANCH  20  22
ENDBRANCH   1  20
TORSDOF 6
