REMARK  Name = ZINC36066279
REMARK  13 active torsions:
REMARK  status: ('A' for Active; 'I' for Inactive)
REMARK    1  A    between atoms: C_1  and  C_2
REMARK    2  A    between atoms: C_2  and  C_3
REMARK    3  A    between atoms: C_2  and  O_4
REMARK    4  A    between atoms: O_4  and  C_5
REMARK    5  A    between atoms: C_5  and  C_6
REMARK    6  A    between atoms: C_6  and  C_7
REMARK    7  A    between atoms: C_7  and  N_8
REMARK    8  A    between atoms: C_9  and  C_34
REMARK    9  A    between atoms: C_17  and  C_23
REMARK   10  A    between atoms: N_25  and  C_26
REMARK   11  A    between atoms: C_30  and  O_32
REMARK   12  A    between atoms: O_32  and  C_33
REMARK   13  A    between atoms: N_36  and  C_37
REMARK                            x       y       z     vdW  Elec       q    Type
REMARK                         _______ _______ _______ _____ _____    ______ ____
ROOT
ATOM      1  N   UNL     1      -4.404  -4.618  -1.139  0.00  0.00    -0.286 N 
ATOM      2  C   UNL     1      -5.135  -5.364  -0.067  0.00  0.00    +0.198 C 
ATOM      3  C   UNL     1      -6.380  -5.789  -0.781  0.00  0.00    +0.127 C 
ATOM      4  C   UNL     1      -6.130  -6.881  -1.804  0.00  0.00    +0.009 C 
ATOM      5  C   UNL     1      -7.312  -7.152  -2.337  0.00  0.00    +0.004 C 
ATOM      6  C   UNL     1      -8.283  -6.168  -1.673  0.00  0.00    +0.155 C 
ATOM      7  O   UNL     1      -7.685  -6.042  -0.315  0.00  0.00    -0.358 OA
ATOM      8  C   UNL     1      -7.891  -4.802  -2.357  0.00  0.00    +0.123 C 
ATOM      9  C   UNL     1      -6.649  -4.431  -1.547  0.00  0.00    +0.128 C 
ATOM     10  C   UNL     1      -5.300  -4.151  -2.069  0.00  0.00    +0.223 C 
ATOM     11  O   UNL     1      -5.033  -3.611  -3.122  0.00  0.00    -0.275 OA
ENDROOT
BRANCH   8  12
ATOM     12  C   UNL     1      -7.568  -5.000  -3.816  0.00  0.00    +0.224 C 
ATOM     13  O   UNL     1      -6.461  -4.735  -4.234  0.00  0.00    -0.275 OA
ATOM     14  N   UNL     1      -8.511  -5.472  -4.656  0.00  0.00    -0.285 N 
ATOM     15  H   UNL     1      -9.371  -5.756  -4.310  0.00  0.00    +0.155 HD
BRANCH  14  16
ATOM     16  C   UNL     1      -8.248  -5.553  -6.028  0.00  0.00    +0.037 A 
ATOM     17  C   UNL     1      -8.807  -6.575  -6.785  0.00  0.00    +0.023 A 
ATOM     18  C   UNL     1      -8.547  -6.654  -8.139  0.00  0.00    +0.005 A 
ATOM     19  C   UNL     1      -7.731  -5.718  -8.745  0.00  0.00    +0.046 A 
ATOM     20  C   UNL     1      -7.169  -4.695  -7.994  0.00  0.00    +0.122 A 
ATOM     21  C   UNL     1      -7.433  -4.608  -6.636  0.00  0.00    +0.069 A 
BRANCH  20  22
ATOM     22  O   UNL     1      -6.366  -3.775  -8.591  0.00  0.00    -0.495 OA
ATOM     23  C   UNL     1      -6.143  -3.922  -9.995  0.00  0.00    +0.277 C 
ENDBRANCH  20  22
ENDBRANCH  14  16
ENDBRANCH   8  12
BRANCH   2  24
ATOM     24  C   UNL     1      -4.342  -6.560   0.394  0.00  0.00    +0.237 C 
ATOM     25  O   UNL     1      -3.451  -7.001  -0.301  0.00  0.00    -0.274 OA
ATOM     26  N   UNL     1      -4.624  -7.140   1.577  0.00  0.00    -0.311 N 
ATOM     27  H   UNL     1      -5.337  -6.788   2.132  0.00  0.00    +0.149 HD
BRANCH  26  28
ATOM     28  C   UNL     1      -3.853  -8.303   2.025  0.00  0.00    +0.073 C 
ATOM     29  C   UNL     1      -4.455  -9.575   1.424  0.00  0.00    +0.022 C 
ATOM     30  C   UNL     1      -3.650 -10.790   1.892  0.00  0.00    +0.002 C 
ATOM     31  C   UNL     1      -3.696 -10.875   3.418  0.00  0.00    +0.000 C 
ATOM     32  C   UNL     1      -3.095  -9.603   4.019  0.00  0.00    +0.002 C 
ATOM     33  C   UNL     1      -3.899  -8.388   3.551  0.00  0.00    +0.022 C 
ENDBRANCH  26  28
ENDBRANCH   2  24
BRANCH   1  34
ATOM     34  C   UNL     1      -2.954  -4.413  -1.186  0.00  0.00    +0.111 C 
BRANCH  34  35
ATOM     35  C   UNL     1      -2.598  -3.121  -0.447  0.00  0.00    +0.047 C 
BRANCH  35  36
ATOM     36  C   UNL     1      -1.084  -2.907  -0.496  0.00  0.00    +0.161 C 
BRANCH  36  37
ATOM     37  O   UNL     1      -0.751  -1.700   0.195  0.00  0.00    -0.377 OA
BRANCH  37  39
ATOM     38  C   UNL     1       0.848   0.111   0.254  0.00  0.00    +0.037 C 
ATOM     39  C   UNL     1       0.647  -1.405   0.208  0.00  0.00    +0.112 C 
ATOM     40  C   UNL     1       1.291  -2.043   1.441  0.00  0.00    +0.037 C 
ENDBRANCH  37  39
ENDBRANCH  36  37
ENDBRANCH  35  36
ENDBRANCH  34  35
ENDBRANCH   1  34
TORSDOF 10
