REMARK  Name = ZINC12041789
REMARK  6 active torsions:
REMARK  status: ('A' for Active; 'I' for Inactive)
REMARK    1  A    between atoms: C_1  and  S_2
REMARK    2  A    between atoms: S_2  and  C_5
REMARK    3  A    between atoms: C_8  and  C_11
REMARK    4  A    between atoms: C_18  and  C_21
REMARK    5  A    between atoms: C_21  and  N_22
REMARK    6  A    between atoms: C_23  and  C_25
REMARK                            x       y       z     vdW  Elec       q    Type
REMARK                         _______ _______ _______ _____ _____    ______ ____
ROOT
ATOM      1  C   UNL     1       1.168   3.570   0.010  0.00  0.00    -0.017 A 
ATOM      2  C   UNL     1      -0.042   4.261   0.019  0.00  0.00    +0.012 A 
ATOM      3  C   UNL     1      -0.055   5.638   0.034  0.00  0.00    +0.046 A 
ATOM      4  C   UNL     1       1.142   6.354   0.030  0.00  0.00    +0.124 A 
ATOM      5  C   UNL     1       2.345   5.659   0.009  0.00  0.00    -0.002 A 
ATOM      6  C   UNL     1       2.366   4.284   0.002  0.00  0.00    +0.015 A 
ATOM      7  C   UNL     1       3.455   6.692  -0.015  0.00  0.00    +0.085 C 
ATOM      8  C   UNL     1       2.687   7.977  -0.404  0.00  0.00    +0.195 C 
ATOM      9  O   UNL     1       1.351   7.699   0.049  0.00  0.00    -0.487 OA
ENDROOT
BRANCH   1  13
ATOM     10  C   UNL     1       1.208  -0.682  -0.013  0.00  0.00    +0.088 A 
ATOM     11  C   UNL     1       0.002  -0.004   0.002  0.00  0.00    +0.027 A 
ATOM     12  C   UNL     1      -0.017   1.376   0.010  0.00  0.00    +0.010 A 
ATOM     13  C   UNL     1       1.182   2.086   0.002  0.00  0.00    -0.018 A 
ATOM     14  C   UNL     1       2.394   1.398  -0.012  0.00  0.00    +0.010 A 
ATOM     15  C   UNL     1       2.401   0.018  -0.020  0.00  0.00    +0.027 A 
BRANCH  10  17
ATOM     16  C   UNL     1       1.212  -2.901  -1.778  0.00  0.00    +0.200 C 
ATOM     17  S   UNL     1       1.224  -2.444  -0.023  0.00  0.00    -0.006 S 
ATOM     18  O   UNL     1       2.468  -2.798   0.566  0.00  0.00    -0.170 OA
ATOM     19  O   UNL     1      -0.001  -2.821   0.590  0.00  0.00    -0.170 OA
ENDBRANCH  10  17
ENDBRANCH   1  13
BRANCH   8  20
ATOM     20  C   UNL     1       3.263   9.194   0.323  0.00  0.00    +0.149 C 
BRANCH  20  21
ATOM     21  N   UNL     1       2.441  10.371   0.031  0.00  0.00    -0.306 N 
ATOM     22  C   UNL     1       2.760  11.566   0.567  0.00  0.00    +0.266 C 
ATOM     23  O   UNL     1       3.730  11.666   1.292  0.00  0.00    -0.268 OA
ATOM     24  H   UNL     1       1.666  10.291  -0.548  0.00  0.00    +0.149 HD
BRANCH  22  25
ATOM     25  C   UNL     1       1.928  12.758   0.272  0.00  0.00    +0.171 A 
ATOM     26  C   UNL     1       2.122  14.070   0.748  0.00  0.00    +0.027 A 
ATOM     27  C   UNL     1       1.109  14.784   0.202  0.00  0.00    +0.141 A 
ATOM     28  O   UNL     1       0.395  13.932  -0.532  0.00  0.00    -0.359 OA
ATOM     29  N   UNL     1       0.859  12.810  -0.492  0.00  0.00    -0.073 NA
ATOM     30  C   UNL     1       0.903  16.258   0.434  0.00  0.00    +0.077 C 
ATOM     31  C   UNL     1       1.725  16.672   1.661  0.00  0.00    +0.008 C 
ATOM     32  C   UNL     1       3.162  16.163   1.517  0.00  0.00    +0.005 C 
ATOM     33  C   UNL     1       3.180  14.633   1.651  0.00  0.00    +0.041 C 
ENDBRANCH  22  25
ENDBRANCH  20  21
ENDBRANCH   8  20
TORSDOF 5
