REMARK  Name = ZINC03012292
REMARK  5 active torsions:
REMARK  status: ('A' for Active; 'I' for Inactive)
REMARK    1  A    between atoms: C_1  and  C_2
REMARK    2  A    between atoms: C_7  and  N_8
REMARK    3  A    between atoms: C_9  and  C_11
REMARK    4  A    between atoms: C_16  and  C_31
REMARK    5  A    between atoms: C_19  and  C_22
REMARK                            x       y       z     vdW  Elec       q    Type
REMARK                         _______ _______ _______ _____ _____    ______ ____
ROOT
ATOM      1  C   UNL     1      -0.165   0.037   4.856  0.00  0.00    +0.149 A 
ATOM      2  C   UNL     1      -0.252  -0.546   6.140  0.00  0.00    +0.078 A 
ATOM      3  C   UNL     1      -0.338   0.456   7.037  0.00  0.00    +0.119 A 
ATOM      4  N   UNL     1      -0.305   1.640   6.356  0.00  0.00    -0.238 N 
ATOM      5  N   UNL     1      -0.193   1.351   4.997  0.00  0.00    -0.164 NA
ATOM      6  C   UNL     1      -0.372   2.953   7.005  0.00  0.00    +0.215 C 
ATOM      7  C   UNL     1       0.002   2.796   8.483  0.00  0.00    +0.063 C 
ATOM      8  C   UNL     1      -0.808   1.654   9.108  0.00  0.00    +0.104 C 
ATOM      9  N   UNL     1      -0.445   0.395   8.430  0.00  0.00    -0.322 N 
ATOM     10  H   UNL     1      -0.290  -0.427   8.921  0.00  0.00    +0.148 HD
ENDROOT
BRANCH   8  11
ATOM     11  C   UNL     1      -2.280   1.923   8.932  0.00  0.00    -0.024 A 
ATOM     12  C   UNL     1      -2.893   1.641   7.725  0.00  0.00    +0.009 A 
ATOM     13  C   UNL     1      -4.243   1.885   7.559  0.00  0.00    +0.050 A 
ATOM     14  C   UNL     1      -4.986   2.413   8.602  0.00  0.00    +0.166 A 
ATOM     15  C   UNL     1      -4.369   2.697   9.818  0.00  0.00    +0.167 A 
ATOM     16  C   UNL     1      -3.016   2.445   9.979  0.00  0.00    +0.055 A 
ATOM     17  O   UNL     1      -5.304   3.203  10.674  0.00  0.00    -0.453 OA
ATOM     18  C   UNL     1      -6.408   3.608   9.843  0.00  0.00    +0.466 C 
ATOM     19  O   UNL     1      -6.308   2.742   8.697  0.00  0.00    -0.453 OA
ENDBRANCH   8  11
BRANCH   1  21
ATOM     20  N   UNL     1       0.025  -0.015   2.417  0.00  0.00    -0.280 N 
ATOM     21  C   UNL     1      -0.056  -0.695   3.578  0.00  0.00    +0.268 C 
ATOM     22  O   UNL     1      -0.040  -1.911   3.572  0.00  0.00    -0.268 OA
ATOM     23  H   UNL     1       0.078   0.953   2.424  0.00  0.00    +0.155 HD
BRANCH  20  30
ATOM     24  C   UNL     1      -1.266   1.183   0.182  0.00  0.00    +0.045 C 
ATOM     25  C   UNL     1      -0.585  -0.158   0.085  0.00  0.00    -0.029 A 
ATOM     26  C   UNL     1      -0.570  -0.841  -1.116  0.00  0.00    +0.005 A 
ATOM     27  C   UNL     1       0.055  -2.071  -1.206  0.00  0.00    +0.000 A 
ATOM     28  C   UNL     1       0.667  -2.622  -0.095  0.00  0.00    +0.002 A 
ATOM     29  C   UNL     1       0.655  -1.945   1.108  0.00  0.00    +0.023 A 
ATOM     30  C   UNL     1       0.034  -0.706   1.201  0.00  0.00    +0.037 A 
ENDBRANCH  20  30
ENDBRANCH   1  21
BRANCH   6  31
ATOM     31  C   UNL     1       0.607   3.911   6.325  0.00  0.00    +0.412 C 
ATOM     32  F   UNL     1       0.269   4.042   4.973  0.00  0.00    -0.168 F 
ATOM     33  F   UNL     1       0.541   5.163   6.945  0.00  0.00    -0.168 F 
ATOM     34  F   UNL     1       1.907   3.405   6.433  0.00  0.00    -0.168 F 
ENDBRANCH   6  31
TORSDOF 4
