REMARK  Name = ZINC22521318
REMARK  15 active torsions:
REMARK  status: ('A' for Active; 'I' for Inactive)
REMARK    1  A    between atoms: C_1  and  C_2
REMARK    2  A    between atoms: C_2  and  C_3
REMARK    3  A    between atoms: C_8  and  N_9
REMARK    4  A    between atoms: C_10  and  C_12
REMARK    5  A    between atoms: C_12  and  S_13
REMARK    6  A    between atoms: S_13  and  C_14
REMARK    7  A    between atoms: N_24  and  C_25
REMARK    8  A    between atoms: C_25  and  C_26
REMARK    9  A    between atoms: C_26  and  N_27
REMARK   10  A    between atoms: N_27  and  C_28
REMARK   11  A    between atoms: N_27  and  C_31
REMARK   12  A    between atoms: C_28  and  C_29
REMARK   13  A    between atoms: C_28  and  C_30
REMARK   14  A    between atoms: C_31  and  C_32
REMARK   15  A    between atoms: C_31  and  C_33
REMARK                            x       y       z     vdW  Elec       q    Type
REMARK                         _______ _______ _______ _____ _____    ______ ____
ROOT
ATOM      1  C   UNL     1      -0.717  -1.785  -1.722  0.00  0.00    +0.173 A 
ATOM      2  N   UNL     1      -0.531  -0.597  -2.241  0.00  0.00    -0.223 NA
ATOM      3  C   UNL     1       0.677  -0.205  -2.695  0.00  0.00    +0.079 A 
ATOM      4  C   UNL     1       0.876   1.063  -3.248  0.00  0.00    +0.028 A 
ATOM      5  C   UNL     1       2.117   1.419  -3.695  0.00  0.00    +0.002 A 
ATOM      6  C   UNL     1       3.188   0.538  -3.608  0.00  0.00    +0.001 A 
ATOM      7  C   UNL     1       3.025  -0.709  -3.071  0.00  0.00    +0.015 A 
ATOM      8  C   UNL     1       1.769  -1.099  -2.608  0.00  0.00    +0.065 A 
ATOM      9  C   UNL     1       1.535  -2.426  -2.022  0.00  0.00    +0.262 A 
ATOM     10  O   UNL     1       2.435  -3.239  -1.919  0.00  0.00    -0.267 OA
ATOM     11  N   UNL     1       0.281  -2.710  -1.600  0.00  0.00    -0.289 N 
ENDROOT
BRANCH   1  12
ATOM     12  S   UNL     1      -2.330  -2.211  -1.155  0.00  0.00    -0.078 S 
BRANCH  12  13
ATOM     13  C   UNL     1      -3.214  -0.681  -1.546  0.00  0.00    +0.173 C 
BRANCH  13  15
ATOM     14  N   UNL     1      -5.513   0.207  -1.333  0.00  0.00    -0.285 N 
ATOM     15  C   UNL     1      -4.658  -0.816  -1.136  0.00  0.00    +0.227 C 
ATOM     16  O   UNL     1      -5.051  -1.846  -0.629  0.00  0.00    -0.275 OA
ATOM     17  H   UNL     1      -5.174   1.115  -1.853  0.00  0.00    +0.155 HD
BRANCH  14  23
ATOM     18  C   UNL     1      -7.538   1.265  -0.548  0.00  0.00    -0.026 A 
ATOM     19  C   UNL     1      -8.840   1.170  -0.096  0.00  0.00    +0.005 A 
ATOM     20  C   UNL     1      -9.441  -0.069   0.030  0.00  0.00    +0.000 A 
ATOM     21  C   UNL     1      -8.741  -1.217  -0.295  0.00  0.00    +0.002 A 
ATOM     22  C   UNL     1      -7.441  -1.128  -0.752  0.00  0.00    +0.023 A 
ATOM     23  C   UNL     1      -6.832   0.114  -0.875  0.00  0.00    +0.037 A 
BRANCH  18  25
ATOM     24  C   UNL     1      -7.034   3.110  -2.126  0.00  0.00    +0.009 C 
ATOM     25  C   UNL     1      -6.884   2.615  -0.686  0.00  0.00    +0.033 C 
ENDBRANCH  18  25
ENDBRANCH  14  23
ENDBRANCH  13  15
ENDBRANCH  12  13
ENDBRANCH   1  12
BRANCH  11  26
ATOM     26  C   UNL     1      -0.009  -4.019  -1.008  0.00  0.00    +0.109 C 
BRANCH  26  27
ATOM     27  C   UNL     1       0.212  -3.954   0.505  0.00  0.00    -0.056 C 
BRANCH  27  28
ATOM     28  N   UNL     1      -0.078  -5.266   1.099  0.00  0.00    +0.384 N 
ATOM     29  H   UNL     1       0.499  -6.022   0.546  0.00  0.00    -0.081 HD
BRANCH  28  30
ATOM     30  C   UNL     1       0.347  -5.313   2.504  0.00  0.00    -0.074 C 
ATOM     31  C   UNL     1       1.835  -5.662   2.576  0.00  0.00    -0.014 C 
ATOM     32  C   UNL     1       0.111  -3.948   3.154  0.00  0.00    -0.014 C 
ENDBRANCH  28  30
BRANCH  28  33
ATOM     33  C   UNL     1      -1.502  -5.600   0.967  0.00  0.00    -0.074 C 
ATOM     34  C   UNL     1      -1.714  -7.074   1.315  0.00  0.00    -0.014 C 
ATOM     35  C   UNL     1      -2.320  -4.728   1.922  0.00  0.00    -0.014 C 
ENDBRANCH  28  33
ENDBRANCH  27  28
ENDBRANCH  26  27
ENDBRANCH  11  26
TORSDOF 10
