REMARK  Name = ZINC08185263
REMARK  6 active torsions:
REMARK  status: ('A' for Active; 'I' for Inactive)
REMARK    1  A    between atoms: C_3  and  N_16
REMARK    2  A    between atoms: C_6  and  N_7
REMARK    3  A    between atoms: C_8  and  C_10
REMARK    4  A    between atoms: C_10  and  C_11
REMARK    5  A    between atoms: N_16  and  S_17
REMARK    6  A    between atoms: S_17  and  C_20
REMARK                            x       y       z     vdW  Elec       q    Type
REMARK                         _______ _______ _______ _____ _____    ______ ____
ROOT
ATOM      1  C   UNL     1       5.651   0.775  -4.386  0.00  0.00    +0.025 A 
ATOM      2  C   UNL     1       5.421  -0.258  -3.498  0.00  0.00    +0.026 A 
ATOM      3  C   UNL     1       4.464  -0.116  -2.501  0.00  0.00    +0.048 A 
ATOM      4  C   UNL     1       3.735   1.061  -2.401  0.00  0.00    +0.026 A 
ATOM      5  C   UNL     1       3.969   2.095  -3.285  0.00  0.00    +0.025 A 
ATOM      6  C   UNL     1       4.925   1.954  -4.282  0.00  0.00    +0.033 A 
ENDROOT
BRANCH   6   7
ATOM      7  N   UNL     1       5.158   3.002  -5.183  0.00  0.00    -0.285 N 
ATOM      8  C   UNL     1       6.405   3.234  -5.638  0.00  0.00    +0.217 C 
ATOM      9  O   UNL     1       7.311   2.487  -5.335  0.00  0.00    -0.275 OA
ATOM     10  H   UNL     1       4.422   3.559  -5.479  0.00  0.00    +0.155 HD
BRANCH   8  11
ATOM     11  C   UNL     1       6.675   4.423  -6.524  0.00  0.00    +0.099 C 
BRANCH  11  12
ATOM     12  C   UNL     1       8.158   4.456  -6.897  0.00  0.00    -0.002 C 
ATOM     13  C   UNL     1       9.010   4.764  -5.648  0.00  0.00    +0.004 C 
ATOM     14  C   UNL     1      10.151   5.666  -6.179  0.00  0.00    +0.000 C 
ATOM     15  C   UNL     1       9.429   6.549  -7.227  0.00  0.00    +0.000 C 
ATOM     16  C   UNL     1       8.424   5.591  -7.901  0.00  0.00    +0.004 C 
ENDBRANCH  11  12
ENDBRANCH   8  11
ENDBRANCH   6   7
BRANCH   3  17
ATOM     17  N   UNL     1       4.231  -1.162  -1.602  0.00  0.00    -0.216 N 
ATOM     18  H   UNL     1       3.429  -1.700  -1.681  0.00  0.00    +0.174 HD
BRANCH  17  19
ATOM     19  S   UNL     1       5.327  -1.481  -0.401  0.00  0.00    +0.072 S 
ATOM     20  O   UNL     1       6.601  -1.564  -1.026  0.00  0.00    -0.150 OA
ATOM     21  O   UNL     1       4.786  -2.545   0.370  0.00  0.00    -0.150 OA
BRANCH  19  22
ATOM     22  C   UNL     1       5.372  -0.069   0.651  0.00  0.00    +0.112 A 
ATOM     23  C   UNL     1       4.448   0.062   1.671  0.00  0.00    +0.032 A 
ATOM     24  C   UNL     1       4.480   1.169   2.498  0.00  0.00    +0.051 A 
ATOM     25  C   UNL     1       5.439   2.152   2.306  0.00  0.00    +0.162 A 
ATOM     26  C   UNL     1       6.370   2.019   1.283  0.00  0.00    +0.164 A 
ATOM     27  C   UNL     1       6.332   0.906   0.456  0.00  0.00    +0.078 A 
ATOM     28  O   UNL     1       7.325   2.968   1.082  0.00  0.00    -0.485 OA
ATOM     29  C   UNL     1       7.101   4.245   1.690  0.00  0.00    +0.270 C 
ATOM     30  C   UNL     1       6.657   4.016   3.141  0.00  0.00    +0.270 C 
ATOM     31  O   UNL     1       5.452   3.241   3.123  0.00  0.00    -0.485 OA
ENDBRANCH  19  22
ENDBRANCH  17  19
ENDBRANCH   3  17
TORSDOF 6
