REMARK  Name = ZINC29186694
REMARK  11 active torsions:
REMARK  status: ('A' for Active; 'I' for Inactive)
REMARK    1  A    between atoms: C_1  and  C_2
REMARK    2  A    between atoms: C_5  and  C_8
REMARK    3  A    between atoms: C_8  and  N_9
REMARK    4  A    between atoms: C_10  and  C_35
REMARK    5  A    between atoms: C_11  and  C_15
REMARK    6  A    between atoms: C_12  and  C_14
REMARK    7  A    between atoms: C_16  and  C_17
REMARK    8  A    between atoms: C_22  and  C_25
REMARK    9  A    between atoms: C_28  and  C_30
REMARK   10  A    between atoms: C_30  and  N_31
REMARK   11  A    between atoms: C_32  and  C_34
REMARK                            x       y       z     vdW  Elec       q    Type
REMARK                         _______ _______ _______ _____ _____    ______ ____
ROOT
ATOM      1  C   UNL     1       2.522   3.924  -0.002  0.00  0.00    +0.243 C 
ATOM      2  O   UNL     1       3.491   3.187  -0.014  0.00  0.00    -0.270 OA
ATOM      3  N   UNL     1       1.279   3.402   0.007  0.00  0.00    -0.261 N 
ATOM      4  C   UNL     1       1.104   2.026   0.002  0.00  0.00    +0.165 A 
ATOM      5  N   UNL     1      -0.016   1.327   0.009  0.00  0.00    -0.221 NA
ATOM      6  C   UNL     1       0.002  -0.004   0.002  0.00  0.00    +0.115 A 
ATOM      7  C   UNL     1       1.206  -0.656  -0.013  0.00  0.00    +0.080 A 
ATOM      8  S   UNL     1       2.335   0.731  -0.016  0.00  0.00    -0.060 S 
ATOM      9  H   UNL     1       0.403   4.068   0.019  0.00  0.00    +0.157 HD
ENDROOT
BRANCH   6  10
ATOM     10  C   UNL     1      -1.262  -0.769   0.011  0.00  0.00    +0.154 A 
ATOM     11  C   UNL     1      -2.515  -0.240   0.031  0.00  0.00    +0.052 A 
ATOM     12  C   UNL     1      -3.414  -1.327   0.029  0.00  0.00    +0.047 A 
ATOM     13  C   UNL     1      -2.674  -2.452   0.017  0.00  0.00    +0.123 A 
ATOM     14  O   UNL     1      -1.374  -2.111   0.005  0.00  0.00    -0.457 OA
BRANCH  13  15
ATOM     15  C   UNL     1      -3.214  -3.858   0.015  0.00  0.00    +0.178 C 
BRANCH  15  16
ATOM     16  N   UNL     1      -3.402  -4.308  -1.367  0.00  0.00    -0.308 N 
ATOM     17  C   UNL     1      -3.880  -5.543  -1.615  0.00  0.00    +0.210 C 
ATOM     18  O   UNL     1      -4.153  -6.284  -0.694  0.00  0.00    -0.276 OA
ATOM     19  C   UNL     1      -4.073  -6.006  -3.036  0.00  0.00    +0.109 C 
ATOM     20  H   UNL     1      -3.154  -3.636  -2.202  0.00  0.00    +0.149 HD
ENDBRANCH  15  16
ENDBRANCH  13  15
ENDBRANCH   6  10
BRANCH   1  22
ATOM     21  C   UNL     1       3.946   5.852  -0.005  0.00  0.00    +0.016 C 
ATOM     22  C   UNL     1       2.700   5.330   0.004  0.00  0.00    +0.068 C 
BRANCH  21  25
ATOM     23  N   UNL     1       4.829   9.328   0.519  0.00  0.00    -0.263 N 
ATOM     24  C   UNL     1       4.952   8.031   0.848  0.00  0.00    +0.044 A 
ATOM     25  C   UNL     1       4.131   7.310   0.000  0.00  0.00    +0.018 A 
ATOM     26  C   UNL     1       3.508   8.239  -0.865  0.00  0.00    +0.067 A 
ATOM     27  N   UNL     1       3.925   9.433  -0.544  0.00  0.00    -0.175 NA
ATOM     28  C   UNL     1       2.531   7.909  -1.963  0.00  0.00    +0.068 C 
ATOM     29  C   UNL     1       5.824   7.466   1.940  0.00  0.00    +0.066 C 
BRANCH  23  30
ATOM     30  C   UNL     1       5.524  10.444   1.165  0.00  0.00    +0.178 C 
BRANCH  30  35
ATOM     31  C   UNL     1      10.546  11.404  -1.527  0.00  0.00    +0.044 C 
ATOM     32  C   UNL     1       9.237  11.154  -0.825  0.00  0.00    -0.050 A 
ATOM     33  C   UNL     1       8.092  11.806  -1.244  0.00  0.00    +0.004 A 
ATOM     34  C   UNL     1       6.891  11.576  -0.600  0.00  0.00    +0.006 A 
ATOM     35  C   UNL     1       6.834  10.695   0.463  0.00  0.00    -0.026 A 
ATOM     36  C   UNL     1       7.979  10.047   0.886  0.00  0.00    +0.006 A 
ATOM     37  C   UNL     1       9.180  10.273   0.239  0.00  0.00    +0.004 A 
ENDBRANCH  30  35
ENDBRANCH  23  30
ENDBRANCH  21  25
ENDBRANCH   1  22
TORSDOF 7
