REMARK  Name = ZINC14897930
REMARK  6 active torsions:
REMARK  status: ('A' for Active; 'I' for Inactive)
REMARK    1  A    between atoms: C_6  and  C_7
REMARK    2  A    between atoms: C_8  and  C_9
REMARK    3  A    between atoms: C_11  and  S_14
REMARK    4  A    between atoms: S_14  and  C_15
REMARK    5  A    between atoms: C_15  and  C_16
REMARK    6  A    between atoms: C_22  and  C_23
REMARK                            x       y       z     vdW  Elec       q    Type
REMARK                         _______ _______ _______ _____ _____    ______ ____
ROOT
ATOM      1  C   UNL     1      -7.025  -4.793   0.039  0.00  0.00    +0.173 C 
ENDROOT
BRANCH   1   2
ATOM      2  C   UNL     1      -8.531  -4.745   0.049  0.00  0.00    +0.226 C 
ATOM      3  O   UNL     1      -9.104  -3.676   0.054  0.00  0.00    -0.275 OA
ATOM      4  N   UNL     1      -9.242  -5.891   0.052  0.00  0.00    -0.294 N 
ATOM      5  C   UNL     1      -8.677  -7.252   0.053  0.00  0.00    +0.108 C 
ATOM      6  C   UNL     1      -9.785  -8.141   0.670  0.00  0.00    +0.021 C 
ATOM      7  C   UNL     1     -11.067  -7.490   0.088  0.00  0.00    +0.029 C 
ATOM      8  C   UNL     1     -10.709  -5.989   0.062  0.00  0.00    +0.106 C 
BRANCH   8   9
ATOM      9  C   UNL     1     -11.274  -5.351  -1.180  0.00  0.00    -0.023 A 
ATOM     10  C   UNL     1     -10.627  -5.508  -2.392  0.00  0.00    +0.009 A 
ATOM     11  C   UNL     1     -11.141  -4.924  -3.534  0.00  0.00    +0.050 A 
ATOM     12  C   UNL     1     -12.308  -4.178  -3.467  0.00  0.00    +0.162 A 
ATOM     13  C   UNL     1     -12.960  -4.021  -2.249  0.00  0.00    +0.162 A 
ATOM     14  C   UNL     1     -12.441  -4.614  -1.108  0.00  0.00    +0.055 A 
ATOM     15  O   UNL     1     -14.111  -3.300  -2.163  0.00  0.00    -0.485 OA
ATOM     16  C   UNL     1     -14.401  -2.418  -3.253  0.00  0.00    +0.270 C 
ATOM     17  C   UNL     1     -14.168  -3.181  -4.564  0.00  0.00    +0.270 C 
ATOM     18  O   UNL     1     -12.800  -3.604  -4.599  0.00  0.00    -0.485 OA
ENDBRANCH   8   9
ENDBRANCH   1   2
BRANCH   1  19
ATOM     19  S   UNL     1      -6.367  -3.102   0.036  0.00  0.00    -0.075 S 
BRANCH  19  22
ATOM     20  C   UNL     1      -2.498  -2.860   0.011  0.00  0.00    +0.150 A 
ATOM     21  N   UNL     1      -3.716  -2.345   0.019  0.00  0.00    -0.202 NA
ATOM     22  C   UNL     1      -4.619  -3.325   0.024  0.00  0.00    +0.209 A 
ATOM     23  N   UNL     1      -4.000  -4.484   0.019  0.00  0.00    -0.145 NA
ATOM     24  N   UNL     1      -2.622  -4.215   0.004  0.00  0.00    -0.258 N 
ATOM     25  H   UNL     1      -1.903  -4.865  -0.006  0.00  0.00    +0.191 HD
BRANCH  20  27
ATOM     26  C   UNL     1      -1.261  -0.761   0.010  0.00  0.00    +0.011 C 
ATOM     27  C   UNL     1      -1.240  -2.106   0.003  0.00  0.00    +0.048 C 
BRANCH  26  33
ATOM     28  C   UNL     1      -0.017   1.394   0.010  0.00  0.00    +0.011 A 
ATOM     29  C   UNL     1       1.169   2.096   0.002  0.00  0.00    +0.039 A 
ATOM     30  C   UNL     1       2.379   1.419  -0.013  0.00  0.00    +0.123 A 
ATOM     31  C   UNL     1       2.405   0.034  -0.021  0.00  0.00    +0.039 A 
ATOM     32  C   UNL     1       1.226  -0.681  -0.014  0.00  0.00    +0.011 A 
ATOM     33  C   UNL     1       0.002  -0.004   0.002  0.00  0.00    -0.025 A 
ATOM     34  F   UNL     1       3.538   2.114  -0.021  0.00  0.00    -0.205 F 
ENDBRANCH  26  33
ENDBRANCH  20  27
ENDBRANCH  19  22
ENDBRANCH   1  19
TORSDOF 6
