REMARK  Name = ZINC16741898
REMARK  11 active torsions:
REMARK  status: ('A' for Active; 'I' for Inactive)
REMARK    1  A    between atoms: C_1  and  C_2
REMARK    2  A    between atoms: C_5  and  O_8
REMARK    3  A    between atoms: O_8  and  C_9
REMARK    4  A    between atoms: C_9  and  C_10
REMARK    5  A    between atoms: N_12  and  C_13
REMARK    6  A    between atoms: C_14  and  C_27
REMARK    7  A    between atoms: C_19  and  C_23
REMARK    8  A    between atoms: C_23  and  C_24
REMARK    9  A    between atoms: C_23  and  C_25
REMARK   10  A    between atoms: C_23  and  C_26
REMARK   11  A    between atoms: N_29  and  C_30
REMARK                            x       y       z     vdW  Elec       q    Type
REMARK                         _______ _______ _______ _____ _____    ______ ____
ROOT
ATOM      1  C   UNL     1      -1.988   0.931   4.197  0.00  0.00    +0.084 A 
ATOM      2  C   UNL     1      -2.408   1.324   2.934  0.00  0.00    +0.069 A 
ATOM      3  C   UNL     1      -3.546   2.224   2.855  0.00  0.00    -0.023 A 
ATOM      4  C   UNL     1      -4.085   2.575   4.043  0.00  0.00    -0.004 A 
ATOM      5  S   UNL     1      -3.097   1.742   5.253  0.00  0.00    -0.077 S 
ATOM      6  C   UNL     1      -5.258   3.478   4.271  0.00  0.00    +0.046 C 
ATOM      7  C   UNL     1      -6.004   3.648   2.939  0.00  0.00    -0.000 C 
ATOM      8  C   UNL     1      -4.986   3.973   1.842  0.00  0.00    +0.009 C 
ATOM      9  C   UNL     1      -4.130   2.740   1.546  0.00  0.00    +0.037 C 
ENDROOT
BRANCH   1  12
ATOM     10  C   UNL     1      -0.675  -0.176   5.827  0.00  0.00    +0.255 C 
ATOM     11  O   UNL     1      -1.361   0.314   6.699  0.00  0.00    -0.272 OA
ATOM     12  N   UNL     1      -0.935   0.093   4.532  0.00  0.00    -0.277 N 
ATOM     13  H   UNL     1      -0.387  -0.300   3.835  0.00  0.00    +0.155 HD
BRANCH  10  14
ATOM     14  C   UNL     1       0.469  -1.088   6.192  0.00  0.00    +0.324 C 
BRANCH  14  15
ATOM     15  O   UNL     1       0.541  -1.216   7.613  0.00  0.00    -0.483 OA
BRANCH  15  20
ATOM     16  C   UNL     1       4.620  -4.506   9.679  0.00  0.00    +0.044 C 
ATOM     17  C   UNL     1       3.528  -3.626   9.127  0.00  0.00    -0.050 A 
ATOM     18  C   UNL     1       2.654  -2.987   9.987  0.00  0.00    +0.007 A 
ATOM     19  C   UNL     1       1.653  -2.180   9.482  0.00  0.00    +0.046 A 
ATOM     20  C   UNL     1       1.525  -2.010   8.112  0.00  0.00    +0.121 A 
ATOM     21  C   UNL     1       2.400  -2.656   7.250  0.00  0.00    +0.046 A 
ATOM     22  C   UNL     1       3.403  -3.458   7.760  0.00  0.00    +0.007 A 
ENDBRANCH  15  20
ENDBRANCH  14  15
ENDBRANCH  10  14
ENDBRANCH   1  12
BRANCH   7  23
ATOM     23  C   UNL     1      -7.012   4.793   3.058  0.00  0.00    -0.035 C 
ATOM     24  C   UNL     1      -6.274   6.090   3.397  0.00  0.00    +0.011 C 
ATOM     25  C   UNL     1      -7.753   4.960   1.730  0.00  0.00    +0.011 C 
ATOM     26  C   UNL     1      -8.017   4.474   4.167  0.00  0.00    +0.011 C 
ENDBRANCH   7  23
BRANCH   2  27
ATOM     27  C   UNL     1      -1.726   0.853   1.725  0.00  0.00    +0.247 C 
ATOM     28  O   UNL     1      -2.091  -0.172   1.180  0.00  0.00    -0.270 OA
ATOM     29  N   UNL     1      -0.695   1.556   1.216  0.00  0.00    -0.307 N 
ATOM     30  H   UNL     1      -0.404   2.373   1.650  0.00  0.00    +0.149 HD
BRANCH  29  31
ATOM     31  C   UNL     1      -0.013   1.086   0.008  0.00  0.00    +0.096 C 
ATOM     32  C   UNL     1      -0.767   1.593  -1.232  0.00  0.00    +0.046 C 
ATOM     33  C   UNL     1       0.134   1.355  -2.478  0.00  0.00    +0.168 C 
ATOM     34  S   UNL     1       1.780   1.828  -1.798  0.00  0.00    -0.029 S 
ATOM     35  O   UNL     1       2.014   3.204  -2.068  0.00  0.00    -0.174 OA
ATOM     36  O   UNL     1       2.742   0.864  -2.202  0.00  0.00    -0.174 OA
ATOM     37  C   UNL     1       1.440   1.619  -0.003  0.00  0.00    +0.188 C 
ENDBRANCH  29  31
ENDBRANCH   2  27
TORSDOF 7
