REMARK  Name = ZINC34812515
REMARK  3 active torsions:
REMARK  status: ('A' for Active; 'I' for Inactive)
REMARK    1  A    between atoms: C_1  and  C_2
REMARK    2  A    between atoms: C_12  and  C_17
REMARK    3  A    between atoms: C_25  and  C_28
REMARK                            x       y       z     vdW  Elec       q    Type
REMARK                         _______ _______ _______ _____ _____    ______ ____
ROOT
ATOM      1  C   UNL     1       0.827   1.699   0.573  0.00  0.00    +0.044 C 
ATOM      2  C   UNL     1       0.628   0.218   0.379  0.00  0.00    -0.050 A 
ATOM      3  C   UNL     1       0.636  -0.317  -0.897  0.00  0.00    +0.007 A 
ATOM      4  C   UNL     1       0.466  -1.677  -1.084  0.00  0.00    +0.047 A 
ATOM      5  C   UNL     1       0.280  -2.510   0.007  0.00  0.00    +0.139 A 
ATOM      6  C   UNL     1       0.251  -1.972   1.298  0.00  0.00    +0.057 A 
ATOM      7  C   UNL     1       0.444  -0.600   1.475  0.00  0.00    +0.018 A 
ATOM      8  C   UNL     1      -0.010  -2.832   2.462  0.00  0.00    +0.133 C 
ATOM      9  N   UNL     1       0.439  -4.029   2.620  0.00  0.00    -0.228 NA
ATOM     10  C   UNL     1       1.250  -4.718   1.768  0.00  0.00    +0.109 A 
ATOM     11  C   UNL     1       2.275  -5.506   2.300  0.00  0.00    +0.044 A 
ATOM     12  C   UNL     1       3.092  -6.239   1.463  0.00  0.00    +0.057 A 
ATOM     13  C   UNL     1       2.901  -6.199   0.095  0.00  0.00    +0.016 A 
ATOM     14  C   UNL     1       1.896  -5.413  -0.444  0.00  0.00    +0.049 A 
ATOM     15  C   UNL     1       1.078  -4.661   0.384  0.00  0.00    +0.154 A 
ATOM     16  O   UNL     1       0.147  -3.846  -0.177  0.00  0.00    -0.453 OA
ATOM     17  N   UNL     1      -0.797  -2.316   3.466  0.00  0.00    -0.318 N 
ATOM     18  C   UNL     1      -0.980  -3.041   4.732  0.00  0.00    +0.087 C 
ATOM     19  C   UNL     1      -2.481  -3.126   5.031  0.00  0.00    -0.063 C 
ATOM     20  N   UNL     1      -3.059  -1.776   5.016  0.00  0.00    +0.383 N 
ATOM     21  C   UNL     1      -2.957  -1.203   3.668  0.00  0.00    -0.057 C 
ATOM     22  C   UNL     1      -1.475  -1.020   3.304  0.00  0.00    +0.090 C 
ATOM     23  C   UNL     1      -3.660   0.156   3.637  0.00  0.00    -0.012 C 
ATOM     24  H   UNL     1      -4.030  -1.825   5.287  0.00  0.00    -0.085 HD
ATOM     25  H   UNL     1      -2.560  -1.190   5.669  0.00  0.00    -0.085 HD
ENDROOT
BRANCH  12  26
ATOM     26  C   UNL     1       4.197  -7.084   2.043  0.00  0.00    +0.417 C 
ATOM     27  F   UNL     1       3.711  -8.368   2.308  0.00  0.00    -0.166 F 
ATOM     28  F   UNL     1       5.252  -7.165   1.127  0.00  0.00    -0.166 F 
ATOM     29  F   UNL     1       4.654  -6.503   3.230  0.00  0.00    -0.166 F 
ENDBRANCH  12  26
TORSDOF 1
