REMARK  Name = ZINC01504916
REMARK  6 active torsions:
REMARK  status: ('A' for Active; 'I' for Inactive)
REMARK    1  A    between atoms: C_1  and  C_2
REMARK    2  A    between atoms: N_9  and  N_10
REMARK    3  A    between atoms: C_11  and  C_13
REMARK    4  A    between atoms: C_13  and  N_21
REMARK    5  A    between atoms: C_14  and  C_15
REMARK    6  A    between atoms: C_22  and  C_24
REMARK                            x       y       z     vdW  Elec       q    Type
REMARK                         _______ _______ _______ _____ _____    ______ ____
ROOT
ATOM      1  C   UNL     1      -0.201  -4.997   6.599  0.00  0.00    +0.098 C 
ATOM      2  C   UNL     1       0.263  -6.206   6.205  0.00  0.00    +0.036 C 
ENDROOT
BRANCH   2   3
ATOM      3  C   UNL     1       0.419  -7.290   7.186  0.00  0.00    -0.023 A 
ATOM      4  C   UNL     1      -0.244  -7.225   8.417  0.00  0.00    +0.008 A 
ATOM      5  C   UNL     1      -0.092  -8.245   9.332  0.00  0.00    +0.001 A 
ATOM      6  C   UNL     1       0.714  -9.331   9.036  0.00  0.00    +0.000 A 
ATOM      7  C   UNL     1       1.373  -9.403   7.821  0.00  0.00    +0.001 A 
ATOM      8  C   UNL     1       1.226  -8.394   6.892  0.00  0.00    +0.008 A 
ENDBRANCH   2   3
BRANCH   1  10
ATOM      9  N   UNL     1      -0.320  -4.221   4.289  0.00  0.00    -0.201 N 
ATOM     10  C   UNL     1      -0.503  -3.964   5.600  0.00  0.00    +0.277 C 
ATOM     11  O   UNL     1      -0.920  -2.877   5.955  0.00  0.00    -0.267 OA
ATOM     12  H   UNL     1       0.012  -5.087   4.007  0.00  0.00    +0.178 HD
BRANCH   9  21
ATOM     13  C   UNL     1      -1.774   0.747  -0.514  0.00  0.00    +0.044 C 
ATOM     14  C   UNL     1      -1.272  -0.670  -0.409  0.00  0.00    -0.050 A 
ATOM     15  C   UNL     1      -0.940  -1.372  -1.556  0.00  0.00    +0.005 A 
ATOM     16  C   UNL     1      -0.478  -2.670  -1.476  0.00  0.00    +0.024 A 
ATOM     17  C   UNL     1      -0.342  -3.288  -0.238  0.00  0.00    +0.043 A 
ATOM     18  C   UNL     1      -0.679  -2.574   0.919  0.00  0.00    +0.028 A 
ATOM     19  C   UNL     1      -1.138  -1.264   0.829  0.00  0.00    +0.015 A 
ATOM     20  C   UNL     1      -0.430  -3.485   2.061  0.00  0.00    +0.153 C 
ATOM     21  N   UNL     1      -0.609  -3.236   3.336  0.00  0.00    -0.174 NA
ATOM     22  C   UNL     1       0.062  -4.736   1.450  0.00  0.00    +0.269 C 
ATOM     23  O   UNL     1       0.385  -5.746   2.046  0.00  0.00    -0.268 OA
ATOM     24  N   UNL     1       0.092  -4.560   0.117  0.00  0.00    -0.280 N 
ATOM     25  H   UNL     1       0.379  -5.236  -0.516  0.00  0.00    +0.155 HD
ENDBRANCH   9  21
ENDBRANCH   1  10
BRANCH   1  26
ATOM     26  N   UNL     1      -0.391  -4.731   7.958  0.00  0.00    -0.277 N 
ATOM     27  C   UNL     1      -1.604  -4.353   8.408  0.00  0.00    +0.248 C 
ATOM     28  O   UNL     1      -2.505  -4.138   7.619  0.00  0.00    -0.270 OA
ATOM     29  H   UNL     1       0.350  -4.818   8.578  0.00  0.00    +0.155 HD
BRANCH  27  30
ATOM     30  C   UNL     1      -1.841  -4.201   9.859  0.00  0.00    +0.037 A 
ATOM     31  C   UNL     1      -0.782  -4.332  10.759  0.00  0.00    +0.013 A 
ATOM     32  C   UNL     1      -1.009  -4.189  12.112  0.00  0.00    +0.001 A 
ATOM     33  C   UNL     1      -2.283  -3.916  12.578  0.00  0.00    +0.000 A 
ATOM     34  C   UNL     1      -3.337  -3.785  11.691  0.00  0.00    +0.001 A 
ATOM     35  C   UNL     1      -3.122  -3.919  10.335  0.00  0.00    +0.013 A 
ENDBRANCH  27  30
ENDBRANCH   1  26
TORSDOF 5
