REMARK  Name = ZINC35747289
REMARK  16 active torsions:
REMARK  status: ('A' for Active; 'I' for Inactive)
REMARK    1  A    between atoms: C_1  and  O_2
REMARK    2  A    between atoms: O_2  and  C_3
REMARK    3  A    between atoms: C_6  and  C_11
REMARK    4  A    between atoms: C_8  and  O_9
REMARK    5  A    between atoms: O_9  and  C_10
REMARK    6  A    between atoms: C_20  and  C_22
REMARK    7  A    between atoms: C_22  and  N_23
REMARK    8  A    between atoms: N_23  and  C_24
REMARK    9  A    between atoms: N_23  and  C_30
REMARK   10  A    between atoms: C_24  and  C_25
REMARK   11  A    between atoms: C_30  and  C_31
REMARK   12  A    between atoms: C_31  and  C_33
REMARK   13  A    between atoms: C_31  and  O_38
REMARK   14  A    between atoms: C_33  and  O_34
REMARK   15  A    between atoms: O_34  and  C_35
REMARK   16  A    between atoms: C_35  and  C_36
REMARK                            x       y       z     vdW  Elec       q    Type
REMARK                         _______ _______ _______ _____ _____    ______ ____
ROOT
ATOM      1  C   UNL     1      -5.738  -3.065  -0.757  0.00  0.00    +0.004 A 
ATOM      2  C   UNL     1      -6.079  -4.138  -1.510  0.00  0.00    +0.056 A 
ATOM      3  S   UNL     1      -7.670  -4.611  -0.858  0.00  0.00    -0.076 S 
ATOM      4  C   UNL     1      -7.837  -3.369   0.398  0.00  0.00    +0.116 A 
ATOM      5  C   UNL     1      -6.654  -2.621   0.287  0.00  0.00    +0.080 A 
ATOM      6  C   UNL     1      -6.520  -1.532   1.206  0.00  0.00    +0.260 A 
ATOM      7  O   UNL     1      -5.529  -0.821   1.183  0.00  0.00    -0.267 OA
ATOM      8  N   UNL     1      -7.504  -1.304   2.095  0.00  0.00    -0.312 N 
ATOM      9  H   UNL     1      -7.419  -0.567   2.720  0.00  0.00    +0.170 HD
ATOM     10  C   UNL     1      -8.615  -2.084   2.133  0.00  0.00    +0.094 A 
ATOM     11  N   UNL     1      -8.770  -3.079   1.302  0.00  0.00    -0.229 NA
ENDROOT
BRANCH   1  15
ATOM     12  C   UNL     1      -2.054  -1.036  -1.411  0.00  0.00    +0.162 A 
ATOM     13  C   UNL     1      -3.237  -0.318  -1.335  0.00  0.00    +0.050 A 
ATOM     14  C   UNL     1      -4.433  -0.973  -1.123  0.00  0.00    +0.012 A 
ATOM     15  C   UNL     1      -4.454  -2.361  -0.985  0.00  0.00    -0.013 A 
ATOM     16  C   UNL     1      -3.264  -3.083  -1.062  0.00  0.00    +0.058 A 
ATOM     17  C   UNL     1      -2.069  -2.422  -1.280  0.00  0.00    +0.162 A 
BRANCH  12  19
ATOM     18  C   UNL     1      -0.936   1.036  -1.746  0.00  0.00    +0.277 C 
ATOM     19  O   UNL     1      -0.878  -0.386  -1.620  0.00  0.00    -0.491 OA
ENDBRANCH  12  19
BRANCH  17  20
ATOM     20  O   UNL     1      -0.907  -3.125  -1.360  0.00  0.00    -0.491 OA
ATOM     21  C   UNL     1      -0.997  -4.544  -1.216  0.00  0.00    +0.277 C 
ENDBRANCH  17  20
ENDBRANCH   1  15
BRANCH  10  22
ATOM     22  C   UNL     1      -9.691  -1.791   3.146  0.00  0.00    -0.003 C 
BRANCH  22  23
ATOM     23  N   UNL     1     -10.783  -2.762   2.995  0.00  0.00    +0.391 N 
ATOM     24  H   UNL     1     -11.090  -2.777   2.034  0.00  0.00    -0.080 HD
BRANCH  23  25
ATOM     25  C   UNL     1     -10.307  -4.098   3.378  0.00  0.00    -0.002 C 
BRANCH  25  26
ATOM     26  C   UNL     1     -11.398  -5.108   3.136  0.00  0.00    +0.089 A 
ATOM     27  C   UNL     1     -11.658  -5.721   1.967  0.00  0.00    +0.042 A 
ATOM     28  C   UNL     1     -12.757  -6.582   2.190  0.00  0.00    +0.041 A 
ATOM     29  C   UNL     1     -13.103  -6.444   3.483  0.00  0.00    +0.195 A 
ATOM     30  O   UNL     1     -12.273  -5.555   4.052  0.00  0.00    -0.470 OA
ENDBRANCH  25  26
ENDBRANCH  23  25
BRANCH  23  31
ATOM     31  C   UNL     1     -11.906  -2.375   3.861  0.00  0.00    -0.044 C 
BRANCH  31  32
ATOM     32  C   UNL     1     -12.532  -1.082   3.336  0.00  0.00    +0.124 C 
BRANCH  32  33
ATOM     33  O   UNL     1     -11.635   0.008   3.561  0.00  0.00    -0.391 OA
ATOM     34  H   UNL     1     -11.418   0.153   4.492  0.00  0.00    +0.210 HD
ENDBRANCH  32  33
BRANCH  32  35
ATOM     35  C   UNL     1     -13.848  -0.818   4.071  0.00  0.00    +0.190 C 
BRANCH  35  36
ATOM     36  O   UNL     1     -14.491   0.324   3.502  0.00  0.00    -0.365 OA
BRANCH  36  37
ATOM     37  C   UNL     1     -15.736   0.658   4.119  0.00  0.00    +0.248 C 
BRANCH  37  38
ATOM     38  C   UNL     1     -16.308   1.843   3.459  0.00  0.00    -0.077 C 
ATOM     39  C   UNL     1     -16.764   2.788   2.933  0.00  0.00    +0.006 C 
ENDBRANCH  37  38
ENDBRANCH  36  37
ENDBRANCH  35  36
ENDBRANCH  32  35
ENDBRANCH  31  32
ENDBRANCH  23  31
ENDBRANCH  22  23
ENDBRANCH  10  22
TORSDOF 14
