REMARK  Name = ZINC40322034
REMARK  11 active torsions:
REMARK  status: ('A' for Active; 'I' for Inactive)
REMARK    1  A    between atoms: C_1  and  C_2
REMARK    2  A    between atoms: C_2  and  N_3
REMARK    3  A    between atoms: N_3  and  C_4
REMARK    4  A    between atoms: N_3  and  C_6
REMARK    5  A    between atoms: C_4  and  C_5
REMARK    6  A    between atoms: C_6  and  C_8
REMARK    7  A    between atoms: C_6  and  C_27
REMARK    8  A    between atoms: C_8  and  N_9
REMARK    9  A    between atoms: C_10  and  C_12
REMARK   10  A    between atoms: C_15  and  S_17
REMARK   11  A    between atoms: S_17  and  C_20
REMARK                            x       y       z     vdW  Elec       q    Type
REMARK                         _______ _______ _______ _____ _____    ______ ____
ROOT
ATOM      1  N   UNL     1      -1.661  -2.408   0.746  0.00  0.00    -0.310 N 
ATOM      2  C   UNL     1      -1.278  -3.429  -0.046  0.00  0.00    +0.279 C 
ATOM      3  O   UNL     1      -1.068  -3.236  -1.229  0.00  0.00    -0.267 OA
ATOM      4  H   UNL     1      -1.757  -2.545   1.702  0.00  0.00    +0.149 HD
ENDROOT
BRANCH   2   5
ATOM      5  C   UNL     1      -1.113  -4.772   0.519  0.00  0.00    +0.192 A 
ATOM      6  C   UNL     1      -0.638  -5.868  -0.143  0.00  0.00    +0.056 A 
ATOM      7  C   UNL     1      -0.650  -6.930   0.774  0.00  0.00    +0.070 A 
ATOM      8  C   UNL     1      -1.126  -6.443   1.941  0.00  0.00    +0.246 A 
ATOM      9  O   UNL     1      -1.399  -5.141   1.784  0.00  0.00    -0.433 OA
BRANCH   8  10
ATOM     10  S   UNL     1      -1.346  -7.367   3.425  0.00  0.00    +0.058 S 
ATOM     11  O   UNL     1      -2.337  -6.687   4.183  0.00  0.00    -0.161 OA
ATOM     12  O   UNL     1      -1.481  -8.728   3.040  0.00  0.00    -0.161 OA
BRANCH  10  13
ATOM     13  C   UNL     1       0.156  -7.248   4.339  0.00  0.00    +0.097 A 
ATOM     14  C   UNL     1       1.159  -8.180   4.144  0.00  0.00    +0.029 A 
ATOM     15  C   UNL     1       2.337  -8.087   4.862  0.00  0.00    +0.022 A 
ATOM     16  C   UNL     1       2.512  -7.063   5.774  0.00  0.00    +0.041 A 
ATOM     17  C   UNL     1       1.508  -6.131   5.969  0.00  0.00    +0.022 A 
ATOM     18  C   UNL     1       0.333  -6.221   5.247  0.00  0.00    +0.029 A 
ATOM     19 CL   UNL     1       3.991  -6.946   6.676  0.00  0.00    -0.084 Cl
ENDBRANCH  10  13
ENDBRANCH   8  10
ENDBRANCH   2   5
BRANCH   1  20
ATOM     20  C   UNL     1      -1.931  -1.091   0.164  0.00  0.00    +0.094 C 
BRANCH  20  21
ATOM     21  C   UNL     1      -2.206  -0.085   1.283  0.00  0.00    -0.020 C 
BRANCH  21  22
ATOM     22  C   UNL     1      -2.364   1.293   0.693  0.00  0.00    -0.059 A 
ATOM     23  C   UNL     1      -2.714   1.439  -0.636  0.00  0.00    +0.003 A 
ATOM     24  C   UNL     1      -2.858   2.702  -1.178  0.00  0.00    +0.020 A 
ATOM     25  C   UNL     1      -2.653   3.821  -0.390  0.00  0.00    +0.041 A 
ATOM     26  C   UNL     1      -2.303   3.674   0.941  0.00  0.00    +0.020 A 
ATOM     27  C   UNL     1      -2.164   2.410   1.483  0.00  0.00    +0.003 A 
ATOM     28 CL   UNL     1      -2.834   5.408  -1.070  0.00  0.00    -0.084 Cl
ENDBRANCH  21  22
BRANCH  21  29
ATOM     29  N   UNL     1      -1.082  -0.086   2.230  0.00  0.00    +0.385 N 
ATOM     30  H   UNL     1      -0.687  -1.013   2.280  0.00  0.00    -0.081 HD
BRANCH  29  32
ATOM     31  C   UNL     1       0.385   0.489   0.355  0.00  0.00    -0.017 C 
ATOM     32  C   UNL     1      -0.056   0.860   1.773  0.00  0.00    -0.081 C 
ENDBRANCH  29  32
BRANCH  29  33
ATOM     33  C   UNL     1      -1.561   0.315   3.559  0.00  0.00    -0.081 C 
ATOM     34  C   UNL     1      -2.467  -0.779   4.127  0.00  0.00    -0.017 C 
ENDBRANCH  29  33
ENDBRANCH  21  29
ENDBRANCH  20  21
ENDBRANCH   1  20
TORSDOF 9
