REMARK  Name = ZINC39686559
REMARK  11 active torsions:
REMARK  status: ('A' for Active; 'I' for Inactive)
REMARK    1  A    between atoms: C_1  and  C_2
REMARK    2  A    between atoms: C_2  and  O_3
REMARK    3  A    between atoms: O_3  and  C_4
REMARK    4  A    between atoms: C_9  and  C_10
REMARK    5  A    between atoms: C_14  and  C_23
REMARK    6  A    between atoms: N_25  and  C_26
REMARK    7  A    between atoms: C_26  and  C_28
REMARK    8  A    between atoms: C_26  and  C_29
REMARK    9  A    between atoms: C_29  and  C_30
REMARK   10  A    between atoms: C_35  and  O_36
REMARK   11  A    between atoms: O_36  and  C_37
REMARK                            x       y       z     vdW  Elec       q    Type
REMARK                         _______ _______ _______ _____ _____    ______ ____
ROOT
ATOM      1  C   UNL     1      -3.162  -1.507   0.816  0.00  0.00    +0.250 C 
ATOM      2  O   UNL     1      -3.047  -0.300   0.914  0.00  0.00    -0.270 OA
ATOM      3  N   UNL     1      -4.354  -2.046   0.495  0.00  0.00    -0.296 N 
ATOM      4  C   UNL     1      -4.704  -3.483   0.393  0.00  0.00    +0.121 C 
ATOM      5  C   UNL     1      -6.124  -3.583   0.993  0.00  0.00    +0.100 C 
ATOM      6  C   UNL     1      -6.716  -2.172   0.838  0.00  0.00    -0.004 C 
ATOM      7  C   UNL     1      -5.615  -1.337   0.169  0.00  0.00    +0.115 C 
ATOM      8  C   UNL     1      -7.056  -1.588   2.206  0.00  0.00    -0.010 C 
ATOM      9  C   UNL     1      -7.695  -0.209   2.022  0.00  0.00    -0.082 C 
ATOM     10  N   UNL     1      -8.909  -0.335   1.206  0.00  0.00    +0.379 N 
ATOM     11  C   UNL     1      -8.562  -0.810  -0.138  0.00  0.00    -0.082 C 
ATOM     12  C   UNL     1      -7.959  -2.215  -0.046  0.00  0.00    -0.010 C 
ATOM     13  H   UNL     1      -9.538  -0.993   1.642  0.00  0.00    -0.086 HD
ATOM     14  H   UNL     1      -9.361   0.564   1.138  0.00  0.00    -0.086 HD
ENDROOT
BRANCH   1  20
ATOM     15  C   UNL     1      -0.906  -1.916   1.798  0.00  0.00    +0.133 A 
ATOM     16  C   UNL     1       0.182  -2.748   2.017  0.00  0.00    +0.046 A 
ATOM     17  C   UNL     1       0.193  -4.025   1.493  0.00  0.00    +0.004 A 
ATOM     18  C   UNL     1      -0.880  -4.486   0.746  0.00  0.00    +0.001 A 
ATOM     19  C   UNL     1      -1.969  -3.673   0.520  0.00  0.00    +0.017 A 
ATOM     20  C   UNL     1      -1.996  -2.380   1.050  0.00  0.00    +0.078 A 
BRANCH  15  21
ATOM     21  O   UNL     1      -0.918  -0.660   2.312  0.00  0.00    -0.491 OA
BRANCH  21  23
ATOM     22  C   UNL     1       0.033   1.178   3.560  0.00  0.00    +0.048 C 
ATOM     23  C   UNL     1       0.227  -0.257   3.065  0.00  0.00    +0.226 C 
ENDBRANCH  21  23
ENDBRANCH  15  21
ENDBRANCH   1  20
BRANCH   5  24
ATOM     24  C   UNL     1      -6.052  -3.967   2.449  0.00  0.00    +0.218 C 
ATOM     25  O   UNL     1      -5.125  -3.586   3.132  0.00  0.00    -0.275 OA
ATOM     26  N   UNL     1      -7.018  -4.734   2.992  0.00  0.00    -0.312 N 
ATOM     27  H   UNL     1      -7.797  -4.976   2.467  0.00  0.00    +0.149 HD
BRANCH  26  28
ATOM     28  C   UNL     1      -6.892  -5.201   4.375  0.00  0.00    +0.074 C 
ATOM     29  C   UNL     1      -7.491  -4.159   5.322  0.00  0.00    +0.028 C 
BRANCH  28  30
ATOM     30  C   UNL     1      -7.640  -6.526   4.536  0.00  0.00    +0.060 C 
BRANCH  30  31
ATOM     31  C   UNL     1      -6.980  -7.582   3.687  0.00  0.00    -0.004 A 
ATOM     32  C   UNL     1      -7.473  -7.866   2.428  0.00  0.00    +0.007 A 
ATOM     33  C   UNL     1      -6.868  -8.835   1.650  0.00  0.00    +0.000 A 
ATOM     34  C   UNL     1      -5.767  -9.522   2.128  0.00  0.00    +0.004 A 
ATOM     35  C   UNL     1      -5.270  -9.241   3.386  0.00  0.00    +0.046 A 
ATOM     36  C   UNL     1      -5.872  -8.266   4.167  0.00  0.00    +0.123 A 
BRANCH  36  37
ATOM     37  O   UNL     1      -5.381  -7.984   5.403  0.00  0.00    -0.495 OA
ATOM     38  C   UNL     1      -4.239  -8.727   5.832  0.00  0.00    +0.277 C 
ENDBRANCH  36  37
ENDBRANCH  30  31
ENDBRANCH  28  30
ENDBRANCH  26  28
ENDBRANCH   5  24
TORSDOF 8
