REMARK  Name = ZINC39304361
REMARK  11 active torsions:
REMARK  status: ('A' for Active; 'I' for Inactive)
REMARK    1  A    between atoms: C_1  and  C_2
REMARK    2  A    between atoms: C_2  and  O_3
REMARK    3  A    between atoms: O_3  and  C_4
REMARK    4  A    between atoms: C_4  and  C_6
REMARK    5  A    between atoms: C_6  and  C_24
REMARK    6  A    between atoms: N_10  and  C_12
REMARK    7  A    between atoms: C_12  and  C_13
REMARK    8  A    between atoms: N_15  and  C_16
REMARK    9  A    between atoms: C_18  and  C_23
REMARK   10  A    between atoms: C_24  and  C_25
REMARK   11  A    between atoms: C_28  and  C_31
REMARK                            x       y       z     vdW  Elec       q    Type
REMARK                         _______ _______ _______ _____ _____    ______ ____
ROOT
ATOM      1  C   UNL     1       1.487  -2.379   2.486  0.00  0.00    +0.057 C 
ATOM      2  C   UNL     1       2.938  -1.891   2.506  0.00  0.00    +0.015 C 
ATOM      3  C   UNL     1       3.662  -2.419   1.264  0.00  0.00    -0.018 C 
ATOM      4  C   UNL     1       3.563  -3.946   1.234  0.00  0.00    -0.078 C 
ATOM      5  N   UNL     1       2.153  -4.348   1.189  0.00  0.00    +0.386 N 
ATOM      6  C   UNL     1       1.470  -3.907   2.411  0.00  0.00    -0.060 C 
ATOM      7  H   UNL     1       1.709  -3.927   0.386  0.00  0.00    -0.081 HD
ENDROOT
BRANCH   1   8
ATOM      8  C   UNL     1       0.781  -1.808   1.284  0.00  0.00    +0.312 C 
ATOM      9  O   UNL     1       0.311  -2.547   0.451  0.00  0.00    -0.250 OA
BRANCH   8  10
ATOM     10  O   UNL     1       0.673  -0.478   1.137  0.00  0.00    -0.465 OA
BRANCH  10  12
ATOM     11  C   UNL     1      -0.031   1.524  -0.019  0.00  0.00    +0.048 C 
ATOM     12  C   UNL     1      -0.009  -0.006  -0.026  0.00  0.00    +0.229 C 
ENDBRANCH  10  12
ENDBRANCH   8  10
ENDBRANCH   1   8
BRANCH   5  13
ATOM     13  C   UNL     1       2.065  -5.811   1.081  0.00  0.00    +0.019 C 
BRANCH  13  14
ATOM     14  C   UNL     1       2.649  -6.254  -0.235  0.00  0.00    +0.201 C 
ATOM     15  O   UNL     1       3.094  -5.432  -1.008  0.00  0.00    -0.278 OA
ATOM     16  N   UNL     1       2.677  -7.563  -0.554  0.00  0.00    -0.285 N 
ATOM     17  H   UNL     1       2.396  -8.226   0.095  0.00  0.00    +0.155 HD
BRANCH  16  18
ATOM     18  C   UNL     1       3.112  -7.966  -1.823  0.00  0.00    +0.069 A 
ATOM     19  C   UNL     1       3.025  -7.092  -2.898  0.00  0.00    +0.029 A 
ATOM     20  C   UNL     1       3.455  -7.492  -4.148  0.00  0.00    -0.049 A 
ATOM     21  C   UNL     1       3.972  -8.761  -4.331  0.00  0.00    +0.006 A 
ATOM     22  C   UNL     1       4.060  -9.636  -3.264  0.00  0.00    +0.040 A 
ATOM     23  C   UNL     1       3.637  -9.240  -2.008  0.00  0.00    +0.144 A 
ATOM     24  F   UNL     1       3.728 -10.092  -0.963  0.00  0.00    -0.204 F 
ATOM     25  C   UNL     1       3.361  -6.543  -5.315  0.00  0.00    +0.044 C 
ENDBRANCH  16  18
ENDBRANCH  13  14
ENDBRANCH   5  13
BRANCH   1  26
ATOM     26  C   UNL     1       0.776  -1.922   3.761  0.00  0.00    +0.051 C 
BRANCH  26  27
ATOM     27  C   UNL     1       0.795  -0.417   3.836  0.00  0.00    -0.046 A 
ATOM     28  C   UNL     1       1.845   0.230   4.460  0.00  0.00    +0.004 A 
ATOM     29  C   UNL     1       1.863   1.611   4.528  0.00  0.00    +0.012 A 
ATOM     30  C   UNL     1       0.832   2.344   3.972  0.00  0.00    +0.055 A 
ATOM     31  C   UNL     1      -0.218   1.697   3.348  0.00  0.00    +0.012 A 
ATOM     32  C   UNL     1      -0.234   0.316   3.275  0.00  0.00    +0.004 A 
BRANCH  30  33
ATOM     33  C   UNL     1       0.851   3.849   4.047  0.00  0.00    +0.417 C 
ATOM     34  F   UNL     1       1.509   4.364   2.925  0.00  0.00    -0.166 F 
ATOM     35  F   UNL     1      -0.462   4.331   4.080  0.00  0.00    -0.166 F 
ATOM     36  F   UNL     1       1.524   4.249   5.207  0.00  0.00    -0.166 F 
ENDBRANCH  30  33
ENDBRANCH  26  27
ENDBRANCH   1  26
TORSDOF 9
