REMARK  Name = ZINC01274724
REMARK  8 active torsions:
REMARK  status: ('A' for Active; 'I' for Inactive)
REMARK    1  A    between atoms: C_1  and  C_2
REMARK    2  A    between atoms: C_5  and  N_9
REMARK    3  A    between atoms: C_10  and  C_12
REMARK    4  A    between atoms: C_12  and  S_13
REMARK    5  A    between atoms: S_13  and  C_14
REMARK    6  A    between atoms: C_17  and  C_25
REMARK    7  A    between atoms: N_18  and  C_19
REMARK    8  A    between atoms: C_19  and  C_20
REMARK                            x       y       z     vdW  Elec       q    Type
REMARK                         _______ _______ _______ _____ _____    ______ ____
ROOT
ATOM      1  C   UNL     1       1.273  -8.700   2.422  0.00  0.00    +0.193 A 
ATOM      2  N   UNL     1       0.991  -9.368   1.327  0.00  0.00    -0.122 NA
ATOM      3  N   UNL     1       1.169 -10.627   1.517  0.00  0.00    -0.125 NA
ATOM      4  C   UNL     1       1.577 -10.840   2.749  0.00  0.00    +0.201 A 
ATOM      5  N   UNL     1       1.661  -9.611   3.364  0.00  0.00    -0.292 N 
ENDROOT
BRANCH   4   6
ATOM      6  C   UNL     1       1.890 -12.145   3.353  0.00  0.00    +0.172 A 
ATOM      7  C   UNL     1       2.094 -13.311   2.678  0.00  0.00    +0.053 A 
ATOM      8  C   UNL     1       2.364 -14.297   3.646  0.00  0.00    +0.042 A 
ATOM      9  C   UNL     1       2.312 -13.695   4.851  0.00  0.00    +0.196 A 
ATOM     10  O   UNL     1       2.031 -12.394   4.670  0.00  0.00    -0.460 OA
ENDBRANCH   4   6
BRANCH   1  11
ATOM     11  S   UNL     1       1.175  -6.954   2.635  0.00  0.00    -0.077 S 
BRANCH  11  12
ATOM     12  C   UNL     1       0.601  -6.347   1.025  0.00  0.00    +0.173 C 
BRANCH  12  14
ATOM     13  N   UNL     1       0.059  -4.172  -0.021  0.00  0.00    -0.283 N 
ATOM     14  C   UNL     1       0.473  -4.846   1.070  0.00  0.00    +0.228 C 
ATOM     15  O   UNL     1       0.743  -4.245   2.088  0.00  0.00    -0.275 OA
ATOM     16  H   UNL     1      -0.225  -4.656  -0.812  0.00  0.00    +0.155 HD
BRANCH  13  21
ATOM     17  C   UNL     1      -0.020   1.503   0.010  0.00  0.00    +0.044 C 
ATOM     18  C   UNL     1       0.001  -0.004   0.002  0.00  0.00    -0.048 A 
ATOM     19  C   UNL     1       1.142  -0.676  -0.396  0.00  0.00    +0.020 A 
ATOM     20  C   UNL     1       1.165  -2.058  -0.405  0.00  0.00    +0.040 A 
ATOM     21  C   UNL     1       0.040  -2.772  -0.013  0.00  0.00    +0.062 A 
ATOM     22  C   UNL     1      -1.105  -2.094   0.387  0.00  0.00    +0.040 A 
ATOM     23  C   UNL     1      -1.119  -0.712   0.398  0.00  0.00    +0.020 A 
ATOM     24 BR   UNL     1      -2.640  -3.061   0.921  0.00  0.00    -0.048 Br
ATOM     25 BR   UNL     1       2.726  -2.975  -0.950  0.00  0.00    -0.048 Br
ENDBRANCH  13  21
ENDBRANCH  12  14
ENDBRANCH  11  12
ENDBRANCH   1  11
BRANCH   5  26
ATOM     26  C   UNL     1       2.077  -9.337   4.742  0.00  0.00    +0.200 C 
BRANCH  26  27
ATOM     27  C   UNL     1       0.873  -9.371   5.647  0.00  0.00    +0.125 A 
ATOM     28  C   UNL     1       0.402 -10.456   6.289  0.00  0.00    +0.046 A 
ATOM     29  C   UNL     1      -0.734 -10.038   7.020  0.00  0.00    +0.041 A 
ATOM     30  C   UNL     1      -0.889  -8.723   6.781  0.00  0.00    +0.195 A 
ATOM     31  O   UNL     1       0.090  -8.324   5.954  0.00  0.00    -0.466 OA
ENDBRANCH  26  27
ENDBRANCH   5  26
TORSDOF 7
