REMARK  Name = ZINC41585654
REMARK  4 active torsions:
REMARK  status: ('A' for Active; 'I' for Inactive)
REMARK    1  A    between atoms: C_6  and  N_7
REMARK    2  A    between atoms: N_10  and  C_13
REMARK    3  A    between atoms: C_13  and  C_14
REMARK    4  A    between atoms: C_15  and  O_26
REMARK                            x       y       z     vdW  Elec       q    Type
REMARK                         _______ _______ _______ _____ _____    ______ ____
ROOT
ATOM      1  C   UNL     1      -4.286  -2.772   1.978  0.00  0.00    +0.127 C 
ENDROOT
BRANCH   1   2
ATOM      2  C   UNL     1      -4.547  -4.194   1.552  0.00  0.00    +0.051 A 
ATOM      3  C   UNL     1      -5.608  -4.484   0.710  0.00  0.00    +0.125 A 
ATOM      4  C   UNL     1      -5.859  -5.795   0.310  0.00  0.00    +0.046 A 
ATOM      5  C   UNL     1      -5.059  -6.814   0.745  0.00  0.00    +0.019 A 
ATOM      6  C   UNL     1      -3.987  -6.538   1.593  0.00  0.00    +0.066 A 
ATOM      7  C   UNL     1      -3.723  -5.217   1.996  0.00  0.00    +0.146 A 
ATOM      8  O   UNL     1      -2.679  -4.963   2.812  0.00  0.00    -0.461 OA
ATOM      9  C   UNL     1      -1.867  -5.929   3.258  0.00  0.00    +0.219 A 
ATOM     10  C   UNL     1      -2.024  -7.224   2.929  0.00  0.00    +0.123 A 
ATOM     11  C   UNL     1      -3.100  -7.608   2.084  0.00  0.00    +0.211 A 
ATOM     12  O   UNL     1      -3.274  -8.773   1.767  0.00  0.00    -0.285 OA
ATOM     13 CL   UNL     1      -0.927  -8.420   3.546  0.00  0.00    -0.076 Cl
BRANCH   3  14
ATOM     14  O   UNL     1      -6.412  -3.482   0.271  0.00  0.00    -0.506 OA
ATOM     15  H   UNL     1      -6.119  -3.078  -0.558  0.00  0.00    +0.292 HD
ENDBRANCH   3  14
ENDBRANCH   1   2
BRANCH   1  19
ATOM     16  N   UNL     1      -1.198  -0.721   0.010  0.00  0.00    -0.327 N 
ATOM     17  C   UNL     1      -2.490  -0.028   0.131  0.00  0.00    +0.120 C 
ATOM     18  C   UNL     1      -3.292  -0.685   1.259  0.00  0.00    +0.103 C 
ATOM     19  N   UNL     1      -3.383  -2.130   1.014  0.00  0.00    -0.295 NA
ATOM     20  C   UNL     1      -2.055  -2.759   1.036  0.00  0.00    +0.103 C 
ATOM     21  C   UNL     1      -1.204  -2.187  -0.108  0.00  0.00    +0.120 C 
BRANCH  16  27
ATOM     22  C   UNL     1       1.215  -0.680   0.001  0.00  0.00    +0.026 A 
ATOM     23  C   UNL     1       2.400   0.030  -0.007  0.00  0.00    +0.040 A 
ATOM     24  C   UNL     1       2.379   1.414  -0.015  0.00  0.00    +0.124 A 
ATOM     25  C   UNL     1       1.170   2.090  -0.013  0.00  0.00    +0.040 A 
ATOM     26  C   UNL     1      -0.017   1.385  -0.005  0.00  0.00    +0.026 A 
ATOM     27  C   UNL     1       0.002  -0.004   0.002  0.00  0.00    +0.030 A 
ATOM     28  F   UNL     1       3.539   2.107  -0.023  0.00  0.00    -0.205 F 
ENDBRANCH  16  27
ENDBRANCH   1  19
TORSDOF 4
