REMARK  Name = ZINC24132970
REMARK  14 active torsions:
REMARK  status: ('A' for Active; 'I' for Inactive)
REMARK    1  A    between atoms: C_1  and  C_2
REMARK    2  A    between atoms: C_2  and  C_3
REMARK    3  A    between atoms: C_3  and  N_4
REMARK    4  A    between atoms: C_8  and  S_22
REMARK    5  A    between atoms: C_12  and  C_13
REMARK    6  A    between atoms: C_13  and  O_14
REMARK    7  A    between atoms: O_14  and  C_15
REMARK    8  A    between atoms: C_15  and  C_17
REMARK    9  A    between atoms: C_17  and  C_19
REMARK   10  A    between atoms: C_17  and  C_20
REMARK   11  A    between atoms: C_20  and  C_21
REMARK   12  A    between atoms: S_22  and  N_25
REMARK   13  A    between atoms: N_25  and  C_26
REMARK   14  A    between atoms: N_25  and  C_27
REMARK                            x       y       z     vdW  Elec       q    Type
REMARK                         _______ _______ _______ _____ _____    ______ ____
ROOT
ATOM      1  N   UNL     1      -0.458   0.390   8.082  0.00  0.00    -0.325 N 
ATOM      2  C   UNL     1       0.399   0.315   9.162  0.00  0.00    +0.069 A 
ATOM      3  C   UNL     1       0.542  -0.568  10.223  0.00  0.00    +0.030 A 
ATOM      4  C   UNL     1       1.524  -0.350  11.166  0.00  0.00    +0.030 A 
ATOM      5  C   UNL     1       2.369   0.746  11.061  0.00  0.00    +0.108 A 
ATOM      6  C   UNL     1       2.243   1.626  10.023  0.00  0.00    +0.058 A 
ATOM      7  C   UNL     1       1.255   1.425   9.056  0.00  0.00    +0.091 A 
ATOM      8  N   UNL     1       0.887   2.102   7.938  0.00  0.00    -0.229 NA
ATOM      9  C   UNL     1      -0.112   1.494   7.367  0.00  0.00    +0.149 A 
ENDROOT
BRANCH   5  10
ATOM     10  S   UNL     1       3.617   1.006  12.277  0.00  0.00    +0.060 S 
ATOM     11  O   UNL     1       3.921   2.393  12.257  0.00  0.00    -0.153 OA
ATOM     12  O   UNL     1       3.182   0.338  13.454  0.00  0.00    -0.153 OA
BRANCH  10  13
ATOM     13  N   UNL     1       4.977   0.215  11.760  0.00  0.00    -0.183 NA
ATOM     14  C   UNL     1       5.955   0.912  10.922  0.00  0.00    +0.131 C 
ATOM     15  C   UNL     1       5.202  -1.181  12.141  0.00  0.00    +0.131 C 
ENDBRANCH  10  13
ENDBRANCH   5  10
BRANCH   1  16
ATOM     16  C   UNL     1      -1.537  -0.548   7.764  0.00  0.00    +0.123 C 
BRANCH  16  18
ATOM     17  C   UNL     1      -2.121  -2.647   6.541  0.00  0.00    +0.005 C 
ATOM     18  C   UNL     1      -0.994  -1.667   6.874  0.00  0.00    +0.018 C 
ENDBRANCH  16  18
ENDBRANCH   1  16
BRANCH   9  19
ATOM     19  C   UNL     1      -0.791   1.951   6.102  0.00  0.00    +0.306 C 
BRANCH  19  20
ATOM     20  O   UNL     1      -0.133   1.351   4.955  0.00  0.00    -0.457 OA
BRANCH  20  21
ATOM     21  C   UNL     1      -0.621   1.658   3.743  0.00  0.00    +0.310 C 
ATOM     22  O   UNL     1      -1.566   2.404   3.643  0.00  0.00    -0.251 OA
BRANCH  21  23
ATOM     23  C   UNL     1       0.011   1.072   2.506  0.00  0.00    +0.094 C 
ATOM     24  C   UNL     1      -0.075  -0.454   2.563  0.00  0.00    +0.019 C 
BRANCH  23  25
ATOM     25  C   UNL     1      -0.729   1.579   1.267  0.00  0.00    +0.011 C 
ATOM     26  C   UNL     1      -0.013   1.086   0.008  0.00  0.00    +0.004 C 
ENDBRANCH  23  25
ENDBRANCH  21  23
ENDBRANCH  20  21
ENDBRANCH  19  20
ENDBRANCH   9  19
TORSDOF 9
