REMARK  Name = ZINC08982862
REMARK  6 active torsions:
REMARK  status: ('A' for Active; 'I' for Inactive)
REMARK    1  A    between atoms: C_1  and  C_2
REMARK    2  A    between atoms: C_16  and  C_17
REMARK    3  A    between atoms: C_16  and  N_68
REMARK    4  A    between atoms: N_19  and  C_20
REMARK    5  A    between atoms: C_25  and  C_26
REMARK    6  A    between atoms: N_28  and  C_29
REMARK                            x       y       z     vdW  Elec       q    Type
REMARK                         _______ _______ _______ _____ _____    ______ ____
ROOT
ATOM      1  C   UNL     1      -7.978  -1.303   2.802  0.00  0.00    -0.008 C 
ATOM      2  C   UNL     1      -7.821  -2.824   2.829  0.00  0.00    -0.040 C 
ATOM      3  C   UNL     1      -9.021  -3.435   3.505  0.00  0.00    -0.054 A 
ATOM      4  C   UNL     1     -10.276  -2.920   3.216  0.00  0.00    +0.051 A 
ATOM      5  C   UNL     1     -11.409  -3.452   3.810  0.00  0.00    +0.162 A 
ATOM      6  C   UNL     1     -11.285  -4.513   4.699  0.00  0.00    +0.162 A 
ATOM      7  C   UNL     1     -10.029  -5.021   4.988  0.00  0.00    +0.053 A 
ATOM      8  C   UNL     1      -8.898  -4.482   4.394  0.00  0.00    -0.038 A 
ATOM      9  C   UNL     1      -7.553  -5.060   4.747  0.00  0.00    -0.019 C 
ATOM     10  C   UNL     1      -7.643  -6.597   4.783  0.00  0.00    +0.010 C 
ATOM     11  C   UNL     1      -6.728  -7.002   5.966  0.00  0.00    +0.001 C 
ATOM     12  C   UNL     1      -6.996  -5.884   7.005  0.00  0.00    +0.001 C 
ATOM     13  C   UNL     1      -7.142  -4.604   6.155  0.00  0.00    +0.010 C 
ATOM     14  C   UNL     1      -6.499  -4.629   3.730  0.00  0.00    -0.066 C 
ATOM     15  O   UNL     1     -12.381  -5.061   5.279  0.00  0.00    -0.485 OA
ATOM     16  C   UNL     1     -13.618  -4.370   5.214  0.00  0.00    +0.270 C 
ATOM     17  C   UNL     1     -13.793  -3.652   3.885  0.00  0.00    +0.270 C 
ATOM     18  O   UNL     1     -12.626  -2.931   3.520  0.00  0.00    -0.485 OA
ATOM     19  N   UNL     1      -6.596  -3.163   3.572  0.00  0.00    +0.390 N 
ATOM     20  H   UNL     1      -6.636  -2.728   4.501  0.00  0.00    -0.080 HD
ENDROOT
BRANCH  19  21
ATOM     21  C   UNL     1      -5.409  -2.651   2.851  0.00  0.00    +0.020 C 
BRANCH  21  22
ATOM     22  C   UNL     1      -4.225  -2.673   3.784  0.00  0.00    +0.201 C 
ATOM     23  O   UNL     1      -4.373  -2.995   4.944  0.00  0.00    -0.278 OA
ATOM     24  N   UNL     1      -3.002  -2.335   3.329  0.00  0.00    -0.286 N 
ATOM     25  H   UNL     1      -2.895  -2.011   2.421  0.00  0.00    +0.155 HD
BRANCH  24  26
ATOM     26  C   UNL     1      -1.893  -2.450   4.163  0.00  0.00    +0.045 A 
ATOM     27  C   UNL     1      -1.874  -3.404   5.172  0.00  0.00    +0.024 A 
ATOM     28  C   UNL     1      -0.776  -3.512   6.001  0.00  0.00    +0.002 A 
ATOM     29  C   UNL     1       0.317  -2.676   5.831  0.00  0.00    +0.001 A 
ATOM     30  C   UNL     1       0.318  -1.728   4.832  0.00  0.00    +0.015 A 
ATOM     31  C   UNL     1      -0.786  -1.606   3.985  0.00  0.00    +0.058 A 
BRANCH  31  32
ATOM     32  C   UNL     1      -0.792  -0.592   2.914  0.00  0.00    +0.246 C 
ATOM     33  O   UNL     1      -1.732  -0.524   2.145  0.00  0.00    -0.270 OA
ATOM     34  N   UNL     1       0.245   0.260   2.787  0.00  0.00    -0.308 N 
ATOM     35  H   UNL     1       0.994   0.207   3.400  0.00  0.00    +0.149 HD
BRANCH  34  36
ATOM     36  C   UNL     1       0.239   1.268   1.723  0.00  0.00    +0.073 C 
ATOM     37  C   UNL     1       0.683   2.685   2.090  0.00  0.00    +0.024 C 
ATOM     38  C   UNL     1       1.593   1.794   1.242  0.00  0.00    +0.024 C 
ENDBRANCH  34  36
ENDBRANCH  31  32
ENDBRANCH  24  26
ENDBRANCH  21  22
ENDBRANCH  19  21
TORSDOF 5
