REMARK  Name = ZINC35968847
REMARK  9 active torsions:
REMARK  status: ('A' for Active; 'I' for Inactive)
REMARK    1  A    between atoms: C_1  and  C_2
REMARK    2  A    between atoms: C_2  and  N_3
REMARK    3  A    between atoms: C_6  and  C_11
REMARK    4  A    between atoms: N_18  and  C_20
REMARK    5  A    between atoms: C_20  and  C_22
REMARK    6  A    between atoms: C_20  and  C_29
REMARK    7  A    between atoms: C_22  and  C_23
REMARK    8  A    between atoms: N_31  and  C_32
REMARK    9  A    between atoms: C_32  and  C_33
REMARK                            x       y       z     vdW  Elec       q    Type
REMARK                         _______ _______ _______ _____ _____    ______ ____
ROOT
ATOM      1  N   UNL     1       0.688  -0.476  -1.203  0.00  0.00    -0.257 N 
ATOM      2  C   UNL     1      -0.057  -0.690  -2.328  0.00  0.00    +0.042 C 
ATOM      3  C   UNL     1       0.512  -1.125  -3.471  0.00  0.00    +0.058 C 
ATOM      4  C   UNL     1       2.007  -1.367  -3.465  0.00  0.00    +0.142 C 
ATOM      5  N   UNL     1       2.720  -1.107  -2.203  0.00  0.00    -0.288 N 
ATOM      6  C   UNL     1       2.012  -0.670  -1.144  0.00  0.00    +0.307 C 
ATOM      7  O   UNL     1       2.592  -0.448  -0.099  0.00  0.00    -0.252 OA
ATOM      8  C   UNL     1      -0.463  -1.267  -4.480  0.00  0.00    +0.247 C 
ATOM      9  O   UNL     1      -0.229  -1.644  -5.614  0.00  0.00    -0.270 OA
ATOM     10  N   UNL     1      -1.684  -0.932  -4.027  0.00  0.00    -0.280 N 
ATOM     11  C   UNL     1      -1.533  -0.536  -2.619  0.00  0.00    +0.160 C 
ATOM     12  H   UNL     1       3.679  -1.244  -2.137  0.00  0.00    +0.151 HD
ENDROOT
BRANCH   4  13
ATOM     13  C   UNL     1       2.246  -2.806  -3.845  0.00  0.00    -0.016 A 
ATOM     14  C   UNL     1       2.620  -3.139  -5.133  0.00  0.00    +0.013 A 
ATOM     15  C   UNL     1       2.826  -4.443  -5.442  0.00  0.00    +0.045 A 
ATOM     16  S   UNL     1       2.490  -5.249  -3.885  0.00  0.00    -0.105 S 
ATOM     17  C   UNL     1       2.102  -3.793  -2.927  0.00  0.00    +0.051 A 
ENDBRANCH   4  13
BRANCH   1  19
ATOM     18  C   UNL     1      -0.019   1.526   0.010  0.00  0.00    +0.025 C 
ATOM     19  C   UNL     1       0.002  -0.004   0.002  0.00  0.00    +0.111 C 
ENDBRANCH   1  19
BRANCH  10  20
ATOM     20  C   UNL     1      -2.932  -0.957  -4.793  0.00  0.00    +0.167 C 
BRANCH  20  21
ATOM     21  C   UNL     1      -2.814  -0.029  -5.975  0.00  0.00    +0.234 C 
ATOM     22  O   UNL     1      -1.789   0.591  -6.159  0.00  0.00    -0.274 OA
ATOM     23  N   UNL     1      -3.849   0.111  -6.828  0.00  0.00    -0.311 N 
ATOM     24  H   UNL     1      -4.669  -0.386  -6.681  0.00  0.00    +0.149 HD
BRANCH  23  25
ATOM     25  C   UNL     1      -3.734   1.012  -7.977  0.00  0.00    +0.135 C 
BRANCH  25  26
ATOM     26  C   UNL     1      -5.038   0.986  -8.778  0.00  0.00    +0.135 C 
ATOM     27  C   UNL     1      -4.885   1.839 -10.055  0.00  0.00    +0.035 C 
ATOM     28  C   UNL     1      -6.269   2.536 -10.154  0.00  0.00    +0.031 C 
ATOM     29  C   UNL     1      -6.609   2.729  -8.655  0.00  0.00    +0.160 C 
ATOM     30  O   UNL     1      -6.097   1.555  -8.000  0.00  0.00    -0.375 OA
ENDBRANCH  25  26
ENDBRANCH  23  25
ENDBRANCH  20  21
BRANCH  20  31
ATOM     31  C   UNL     1      -3.200  -2.380  -5.287  0.00  0.00    +0.067 C 
BRANCH  31  32
ATOM     32  C   UNL     1      -3.439  -3.285  -4.106  0.00  0.00    -0.045 A 
ATOM     33  C   UNL     1      -2.377  -3.934  -3.506  0.00  0.00    +0.004 A 
ATOM     34  C   UNL     1      -2.597  -4.764  -2.422  0.00  0.00    +0.000 A 
ATOM     35  C   UNL     1      -3.879  -4.944  -1.938  0.00  0.00    +0.000 A 
ATOM     36  C   UNL     1      -4.941  -4.294  -2.538  0.00  0.00    +0.000 A 
ATOM     37  C   UNL     1      -4.721  -3.461  -3.619  0.00  0.00    +0.004 A 
ENDBRANCH  31  32
ENDBRANCH  20  31
ENDBRANCH  10  20
TORSDOF 8
