REMARK  Name = ZINC17664560
REMARK  8 active torsions:
REMARK  status: ('A' for Active; 'I' for Inactive)
REMARK    1  A    between atoms: C_4  and  C_7
REMARK    2  A    between atoms: C_7  and  N_8
REMARK    3  A    between atoms: C_9  and  C_28
REMARK    4  A    between atoms: C_12  and  S_13
REMARK    5  A    between atoms: S_13  and  C_14
REMARK    6  A    between atoms: C_14  and  C_16
REMARK    7  A    between atoms: C_14  and  C_22
REMARK    8  A    between atoms: N_24  and  C_25
REMARK                            x       y       z     vdW  Elec       q    Type
REMARK                         _______ _______ _______ _____ _____    ______ ____
ROOT
ATOM      1  N   UNL     1       5.843   4.352  -2.506  0.00  0.00    -0.298 N 
ATOM      2  C   UNL     1       6.951   4.868  -1.874  0.00  0.00    +0.167 A 
ATOM      3  N   UNL     1       6.911   4.457  -0.628  0.00  0.00    -0.128 NA
ATOM      4  N   UNL     1       5.865   3.734  -0.438  0.00  0.00    -0.122 NA
ATOM      5  C   UNL     1       5.174   3.639  -1.552  0.00  0.00    +0.193 A 
ENDROOT
BRANCH   2   6
ATOM      6  C   UNL     1       7.995   5.719  -2.485  0.00  0.00    +0.037 A 
ATOM      7  C   UNL     1       9.333   5.597  -2.092  0.00  0.00    +0.014 A 
ATOM      8  C   UNL     1      10.270   6.417  -2.695  0.00  0.00    +0.020 A 
ATOM      9  C   UNL     1       9.860   7.322  -3.657  0.00  0.00    +0.111 A 
ATOM     10  N   UNL     1       8.591   7.415  -4.007  0.00  0.00    -0.263 NA
ATOM     11  C   UNL     1       7.663   6.653  -3.466  0.00  0.00    +0.122 A 
ENDBRANCH   2   6
BRANCH   1  12
ATOM     12  C   UNL     1       5.460   4.532  -3.908  0.00  0.00    +0.161 C 
BRANCH  12  16
ATOM     13  C   UNL     1       7.561   1.712  -6.333  0.00  0.00    +0.000 A 
ATOM     14  C   UNL     1       6.303   1.406  -5.849  0.00  0.00    +0.000 A 
ATOM     15  C   UNL     1       5.623   2.318  -5.064  0.00  0.00    +0.005 A 
ATOM     16  C   UNL     1       6.201   3.537  -4.763  0.00  0.00    -0.028 A 
ATOM     17  C   UNL     1       7.457   3.846  -5.252  0.00  0.00    +0.005 A 
ATOM     18  C   UNL     1       8.139   2.931  -6.032  0.00  0.00    +0.000 A 
ENDBRANCH  12  16
ENDBRANCH   1  12
BRANCH   5  19
ATOM     19  S   UNL     1       3.668   2.751  -1.776  0.00  0.00    -0.068 S 
BRANCH  19  20
ATOM     20  C   UNL     1       3.442   2.092  -0.106  0.00  0.00    +0.170 C 
BRANCH  20  21
ATOM     21  C   UNL     1       2.246   1.174  -0.086  0.00  0.00    -0.025 A 
ATOM     22  C   UNL     1       0.996   1.661  -0.420  0.00  0.00    +0.005 A 
ATOM     23  C   UNL     1      -0.100   0.819  -0.403  0.00  0.00    +0.000 A 
ATOM     24  C   UNL     1       0.053  -0.509  -0.050  0.00  0.00    +0.000 A 
ATOM     25  C   UNL     1       1.303  -0.995   0.286  0.00  0.00    +0.000 A 
ATOM     26  C   UNL     1       2.399  -0.153   0.268  0.00  0.00    +0.005 A 
ENDBRANCH  20  21
BRANCH  20  27
ATOM     27  C   UNL     1       3.218   3.229   0.858  0.00  0.00    +0.231 C 
ATOM     28  O   UNL     1       3.559   3.118   2.016  0.00  0.00    -0.274 OA
ATOM     29  N   UNL     1       2.640   4.369   0.431  0.00  0.00    -0.311 N 
ATOM     30  H   UNL     1       2.305   4.433  -0.476  0.00  0.00    +0.149 HD
BRANCH  29  31
ATOM     31  C   UNL     1       2.518   5.512   1.340  0.00  0.00    +0.073 C 
ATOM     32  C   UNL     1       1.185   6.263   1.355  0.00  0.00    +0.024 C 
ATOM     33  C   UNL     1       2.418   6.904   0.713  0.00  0.00    +0.024 C 
ENDBRANCH  29  31
ENDBRANCH  20  27
ENDBRANCH  19  20
ENDBRANCH   5  19
TORSDOF 8
