REMARK  Name = ZINC39686917
REMARK  8 active torsions:
REMARK  status: ('A' for Active; 'I' for Inactive)
REMARK    1  A    between atoms: C_1  and  C_2
REMARK    2  A    between atoms: C_2  and  C_4
REMARK    3  A    between atoms: C_2  and  N_12
REMARK    4  A    between atoms: C_4  and  C_5
REMARK    5  A    between atoms: C_13  and  C_15
REMARK    6  A    between atoms: C_26  and  C_28
REMARK    7  A    between atoms: C_31  and  O_34
REMARK    8  A    between atoms: O_34  and  C_35
REMARK                            x       y       z     vdW  Elec       q    Type
REMARK                         _______ _______ _______ _____ _____    ______ ____
ROOT
ATOM      1  C   UNL     1      -2.525  -1.888   0.009  0.00  0.00    +0.100 C 
ATOM      2  C   UNL     1      -3.494  -2.771  -0.810  0.00  0.00    +0.121 C 
ATOM      3  N   UNL     1      -2.620  -3.521  -1.742  0.00  0.00    -0.296 N 
ATOM      4  C   UNL     1      -1.425  -3.863  -0.933  0.00  0.00    +0.115 C 
ATOM      5  C   UNL     1      -1.169  -2.610  -0.072  0.00  0.00    -0.004 C 
ATOM      6  C   UNL     1      -0.703  -3.015   1.323  0.00  0.00    -0.010 C 
ATOM      7  C   UNL     1       0.674  -3.678   1.224  0.00  0.00    -0.082 C 
ATOM      8  N   UNL     1       1.628  -2.741   0.619  0.00  0.00    +0.379 N 
ATOM      9  C   UNL     1       1.221  -2.430  -0.756  0.00  0.00    -0.082 C 
ATOM     10  C   UNL     1      -0.132  -1.714  -0.741  0.00  0.00    -0.010 C 
ATOM     11  C   UNL     1      -2.857  -3.825  -3.033  0.00  0.00    +0.247 C 
ATOM     12  O   UNL     1      -2.061  -4.501  -3.655  0.00  0.00    -0.270 OA
ATOM     13  H   UNL     1       1.653  -1.891   1.162  0.00  0.00    -0.086 HD
ATOM     14  H   UNL     1       2.547  -3.158   0.610  0.00  0.00    -0.086 HD
ENDROOT
BRANCH  11  15
ATOM     15  C   UNL     1      -4.085  -3.338  -3.692  0.00  0.00    +0.037 A 
ATOM     16  C   UNL     1      -4.214  -1.986  -4.021  0.00  0.00    +0.016 A 
ATOM     17  C   UNL     1      -5.361  -1.535  -4.636  0.00  0.00    +0.047 A 
ATOM     18  C   UNL     1      -6.389  -2.423  -4.930  0.00  0.00    +0.130 A 
ATOM     19  C   UNL     1      -6.264  -3.769  -4.605  0.00  0.00    +0.047 A 
ATOM     20  C   UNL     1      -5.118  -4.228  -3.995  0.00  0.00    +0.016 A 
BRANCH  18  21
ATOM     21  O   UNL     1      -7.518  -1.975  -5.535  0.00  0.00    -0.406 OA
BRANCH  21  22
ATOM     22  C   UNL     1      -8.535  -2.941  -5.809  0.00  0.00    +0.575 C 
ATOM     23  F   UNL     1      -8.958  -3.525  -4.610  0.00  0.00    -0.133 F 
ATOM     24  F   UNL     1      -9.620  -2.313  -6.430  0.00  0.00    -0.133 F 
ATOM     25  F   UNL     1      -8.022  -3.931  -6.654  0.00  0.00    -0.133 F 
ENDBRANCH  21  22
ENDBRANCH  18  21
ENDBRANCH  11  15
BRANCH   1  27
ATOM     26  N   UNL     1      -2.299   0.568   0.191  0.00  0.00    -0.312 N 
ATOM     27  C   UNL     1      -2.425  -0.514  -0.602  0.00  0.00    +0.218 C 
ATOM     28  O   UNL     1      -2.457  -0.382  -1.807  0.00  0.00    -0.275 OA
ATOM     29  H   UNL     1      -2.387   0.477   1.153  0.00  0.00    +0.149 HD
BRANCH  26  31
ATOM     30  C   UNL     1      -0.548   2.223  -0.230  0.00  0.00    +0.028 C 
ATOM     31  C   UNL     1      -2.030   1.882  -0.399  0.00  0.00    +0.074 C 
BRANCH  31  32
ATOM     32  C   UNL     1      -2.880   2.941   0.305  0.00  0.00    +0.060 C 
BRANCH  32  33
ATOM     33  C   UNL     1      -2.428   3.080   1.736  0.00  0.00    -0.010 A 
ATOM     34  C   UNL     1      -3.220   2.599   2.761  0.00  0.00    +0.006 A 
ATOM     35  C   UNL     1      -2.805   2.725   4.073  0.00  0.00    +0.000 A 
ATOM     36  C   UNL     1      -1.597   3.334   4.362  0.00  0.00    +0.003 A 
ATOM     37  C   UNL     1      -0.803   3.815   3.338  0.00  0.00    +0.038 A 
ATOM     38  C   UNL     1      -1.215   3.684   2.023  0.00  0.00    +0.127 A 
ATOM     39  F   UNL     1      -0.438   4.149   1.021  0.00  0.00    -0.205 F 
ENDBRANCH  32  33
ENDBRANCH  31  32
ENDBRANCH  26  31
ENDBRANCH   1  27
TORSDOF 7
