REMARK  Name = ZINC17524298
REMARK  6 active torsions:
REMARK  status: ('A' for Active; 'I' for Inactive)
REMARK    1  A    between atoms: C_7  and  C_11
REMARK    2  A    between atoms: N_13  and  N_14
REMARK    3  A    between atoms: C_15  and  C_17
REMARK    4  A    between atoms: C_21  and  N_23
REMARK    5  A    between atoms: N_23  and  S_24
REMARK    6  A    between atoms: S_24  and  C_27
REMARK                            x       y       z     vdW  Elec       q    Type
REMARK                         _______ _______ _______ _____ _____    ______ ____
ROOT
ATOM      1  C   UNL     1       4.372   1.197  -4.540  0.00  0.00    +0.040 A 
ATOM      2  C   UNL     1       5.198   2.215  -4.060  0.00  0.00    +0.013 A 
ATOM      3  C   UNL     1       5.727   2.133  -2.789  0.00  0.00    +0.003 A 
ATOM      4  C   UNL     1       5.443   1.044  -1.986  0.00  0.00    +0.024 A 
ATOM      5  C   UNL     1       4.622   0.025  -2.454  0.00  0.00    +0.049 A 
ATOM      6  C   UNL     1       4.090   0.096  -3.732  0.00  0.00    +0.037 A 
ENDROOT
BRANCH   1   8
ATOM      7  N   UNL     1       4.083   2.345  -6.683  0.00  0.00    -0.230 N 
ATOM      8  C   UNL     1       3.804   1.282  -5.902  0.00  0.00    +0.260 C 
ATOM      9  O   UNL     1       3.086   0.395  -6.318  0.00  0.00    -0.269 OA
ATOM     10  H   UNL     1       4.656   3.054  -6.351  0.00  0.00    +0.173 HD
BRANCH   7  13
ATOM     11  C   UNL     1       3.823   3.489  -8.755  0.00  0.00    +0.262 C 
ATOM     12  O   UNL     1       4.542   4.378  -8.339  0.00  0.00    -0.269 OA
ATOM     13  N   UNL     1       3.545   2.426  -7.974  0.00  0.00    -0.230 N 
ATOM     14  H   UNL     1       2.971   1.718  -8.306  0.00  0.00    +0.173 HD
BRANCH  11  21
ATOM     15  C   UNL     1       4.168   6.675 -12.172  0.00  0.00    +0.001 A 
ATOM     16  C   UNL     1       3.443   6.317 -13.300  0.00  0.00    +0.002 A 
ATOM     17  C   UNL     1       2.728   5.140 -13.331  0.00  0.00    +0.026 A 
ATOM     18  C   UNL     1       2.730   4.298 -12.224  0.00  0.00    +0.047 A 
ATOM     19  C   UNL     1       3.464   4.661 -11.084  0.00  0.00    +0.012 A 
ATOM     20  C   UNL     1       4.182   5.854 -11.066  0.00  0.00    +0.011 A 
ATOM     21  C   UNL     1       3.259   3.574 -10.108  0.00  0.00    +0.063 A 
ATOM     22  C   UNL     1       2.447   2.660 -10.713  0.00  0.00    +0.096 A 
ATOM     23  N   UNL     1       2.127   3.085 -11.959  0.00  0.00    -0.360 N 
ATOM     24  H   UNL     1       1.558   2.603 -12.580  0.00  0.00    +0.165 HD
ENDBRANCH  11  21
ENDBRANCH   7  13
ENDBRANCH   1   8
BRANCH   5  25
ATOM     25  N   UNL     1       4.338  -1.074  -1.639  0.00  0.00    -0.216 N 
ATOM     26  H   UNL     1       4.380  -1.972  -2.003  0.00  0.00    +0.174 HD
BRANCH  25  27
ATOM     27  S   UNL     1       3.931  -0.843  -0.050  0.00  0.00    +0.072 S 
ATOM     28  O   UNL     1       4.904   0.039   0.494  0.00  0.00    -0.150 OA
ATOM     29  O   UNL     1       3.679  -2.130   0.496  0.00  0.00    -0.150 OA
BRANCH  27  30
ATOM     30  C   UNL     1       2.397   0.024  -0.026  0.00  0.00    +0.112 A 
ATOM     31  C   UNL     1       1.207  -0.680  -0.016  0.00  0.00    +0.032 A 
ATOM     32  C   UNL     1       0.002  -0.004   0.002  0.00  0.00    +0.051 A 
ATOM     33  C   UNL     1      -0.017   1.383   0.010  0.00  0.00    +0.162 A 
ATOM     34  C   UNL     1       1.179   2.090   0.002  0.00  0.00    +0.164 A 
ATOM     35  C   UNL     1       2.386   1.406  -0.017  0.00  0.00    +0.078 A 
ATOM     36  O   UNL     1       1.184   3.451   0.018  0.00  0.00    -0.485 OA
ATOM     37  C   UNL     1      -0.040   4.103  -0.340  0.00  0.00    +0.270 C 
ATOM     38  C   UNL     1      -1.189   3.413   0.408  0.00  0.00    +0.270 C 
ATOM     39  O   UNL     1      -1.212   2.035   0.019  0.00  0.00    -0.485 OA
ENDBRANCH  27  30
ENDBRANCH  25  27
ENDBRANCH   5  25
TORSDOF 6
