REMARK  Name = ZINC39657794
REMARK  10 active torsions:
REMARK  status: ('A' for Active; 'I' for Inactive)
REMARK    1  A    between atoms: C_1  and  C_2
REMARK    2  A    between atoms: C_4  and  C_8
REMARK    3  A    between atoms: N_6  and  C_7
REMARK    4  A    between atoms: C_12  and  C_21
REMARK    5  A    between atoms: N_23  and  C_24
REMARK    6  A    between atoms: C_24  and  C_25
REMARK    7  A    between atoms: C_30  and  S_31
REMARK    8  A    between atoms: S_31  and  C_32
REMARK    9  A    between atoms: C_37  and  C_38
REMARK   10  A    between atoms: C_38  and  O_39
REMARK                            x       y       z     vdW  Elec       q    Type
REMARK                         _______ _______ _______ _____ _____    ______ ____
ROOT
ATOM      1  C   UNL     1      -0.977  -9.108  -3.461  0.00  0.00    +0.267 C 
ATOM      2  O   UNL     1      -1.548  -9.938  -4.141  0.00  0.00    -0.268 OA
ATOM      3  N   UNL     1      -0.990  -9.214  -2.117  0.00  0.00    -0.295 N 
ATOM      4  C   UNL     1      -0.362  -8.306  -1.128  0.00  0.00    +0.121 C 
ATOM      5  C   UNL     1      -1.387  -8.217   0.025  0.00  0.00    +0.100 C 
ATOM      6  C   UNL     1      -2.218  -9.505  -0.088  0.00  0.00    -0.004 C 
ATOM      7  C   UNL     1      -1.642 -10.261  -1.294  0.00  0.00    +0.115 C 
ATOM      8  C   UNL     1      -3.685  -9.168  -0.336  0.00  0.00    -0.010 C 
ATOM      9  C   UNL     1      -4.500 -10.463  -0.388  0.00  0.00    -0.082 C 
ATOM     10  N   UNL     1      -4.352 -11.188   0.880  0.00  0.00    +0.379 N 
ATOM     11  C   UNL     1      -2.952 -11.590   1.066  0.00  0.00    -0.082 C 
ATOM     12  C   UNL     1      -2.072 -10.342   1.179  0.00  0.00    -0.010 C 
ATOM     13  H   UNL     1      -4.633 -10.590   1.642  0.00  0.00    -0.086 HD
ATOM     14  H   UNL     1      -4.937 -12.009   0.867  0.00  0.00    -0.086 HD
ENDROOT
BRANCH   1  18
ATOM     15  C   UNL     1       0.962  -5.927  -6.897  0.00  0.00    +0.065 C 
ATOM     16  C   UNL     1       0.569  -6.610  -5.612  0.00  0.00    +0.037 A 
ATOM     17  C   UNL     1      -0.166  -7.741  -5.496  0.00  0.00    +0.057 A 
ATOM     18  C   UNL     1      -0.268  -7.984  -4.106  0.00  0.00    +0.147 A 
ATOM     19  N   UNL     1       0.389  -7.018  -3.497  0.00  0.00    -0.167 NA
ATOM     20  N   UNL     1       0.887  -6.210  -4.363  0.00  0.00    -0.271 N 
ATOM     21  C   UNL     1       1.684  -5.024  -4.040  0.00  0.00    +0.172 C 
ENDBRANCH   1  18
BRANCH   5  22
ATOM     22  C   UNL     1      -0.677  -8.162   1.354  0.00  0.00    +0.218 C 
ATOM     23  O   UNL     1       0.320  -8.829   1.537  0.00  0.00    -0.275 OA
ATOM     24  N   UNL     1      -1.150  -7.372   2.338  0.00  0.00    -0.311 N 
ATOM     25  H   UNL     1      -1.946  -6.839   2.192  0.00  0.00    +0.149 HD
BRANCH  24  26
ATOM     26  C   UNL     1      -0.460  -7.320   3.630  0.00  0.00    +0.140 C 
BRANCH  26  27
ATOM     27  C   UNL     1      -1.185  -6.370   4.548  0.00  0.00    -0.017 A 
ATOM     28  C   UNL     1      -0.716  -5.083   4.722  0.00  0.00    +0.006 A 
ATOM     29  C   UNL     1      -1.380  -4.211   5.565  0.00  0.00    +0.000 A 
ATOM     30  C   UNL     1      -2.517  -4.624   6.236  0.00  0.00    +0.001 A 
ATOM     31  C   UNL     1      -2.992  -5.909   6.067  0.00  0.00    +0.015 A 
ATOM     32  C   UNL     1      -2.330  -6.786   5.216  0.00  0.00    +0.017 A 
BRANCH  32  33
ATOM     33  S   UNL     1      -2.936  -8.425   4.992  0.00  0.00    -0.089 S 
BRANCH  33  34
ATOM     34  C   UNL     1      -4.461  -8.440   5.875  0.00  0.00    +0.018 A 
ATOM     35  C   UNL     1      -5.550  -7.722   5.396  0.00  0.00    +0.015 A 
ATOM     36  C   UNL     1      -6.743  -7.736   6.091  0.00  0.00    +0.001 A 
ATOM     37  C   UNL     1      -6.855  -8.464   7.262  0.00  0.00    +0.000 A 
ATOM     38  C   UNL     1      -5.773  -9.179   7.741  0.00  0.00    +0.007 A 
ATOM     39  C   UNL     1      -4.579  -9.175   7.048  0.00  0.00    -0.008 A 
BRANCH  39  40
ATOM     40  C   UNL     1      -3.402  -9.961   7.568  0.00  0.00    +0.192 C 
BRANCH  40  41
ATOM     41  O   UNL     1      -3.771 -10.626   8.778  0.00  0.00    -0.390 OA
ATOM     42  H   UNL     1      -3.060 -11.152   9.169  0.00  0.00    +0.210 HD
ENDBRANCH  40  41
ENDBRANCH  39  40
ENDBRANCH  33  34
ENDBRANCH  32  33
ENDBRANCH  26  27
ENDBRANCH  24  26
ENDBRANCH   5  22
TORSDOF 8
