REMARK  Name = ZINC63119347
REMARK  7 active torsions:
REMARK  status: ('A' for Active; 'I' for Inactive)
REMARK    1  A    between atoms: C_1  and  C_2
REMARK    2  A    between atoms: C_2  and  C_3
REMARK    3  A    between atoms: C_3  and  C_4
REMARK    4  A    between atoms: C_8  and  S_16
REMARK    5  A    between atoms: C_13  and  N_14
REMARK    6  A    between atoms: N_14  and  N_15
REMARK    7  A    between atoms: S_16  and  C_19
REMARK                            x       y       z     vdW  Elec       q    Type
REMARK                         _______ _______ _______ _____ _____    ______ ____
ROOT
ATOM      1  C   UNL     1       0.762  -2.018   1.233  0.00  0.00    -0.006 A 
ATOM      2  C   UNL     1      -0.191  -2.717   1.910  0.00  0.00    +0.017 A 
ATOM      3  C   UNL     1      -0.137  -4.125   1.877  0.00  0.00    +0.003 A 
ATOM      4  C   UNL     1      -1.087  -4.907   2.552  0.00  0.00    +0.037 A 
ATOM      5  C   UNL     1      -1.003  -6.265   2.497  0.00  0.00    +0.089 A 
ATOM      6  C   UNL     1       0.015  -6.890   1.780  0.00  0.00    +0.029 A 
ATOM      7  C   UNL     1       0.953  -6.162   1.115  0.00  0.00    +0.030 A 
ATOM      8  C   UNL     1       0.899  -4.758   1.147  0.00  0.00    +0.073 A 
ATOM      9  N   UNL     1       1.808  -4.019   0.501  0.00  0.00    -0.231 NA
ATOM     10  C   UNL     1       1.759  -2.703   0.524  0.00  0.00    +0.136 A 
ENDROOT
BRANCH   5  11
ATOM     11  S   UNL     1      -2.197  -7.245   3.345  0.00  0.00    -0.006 S 
ATOM     12  O   UNL     1      -1.533  -8.471   3.617  0.00  0.00    -0.170 OA
ATOM     13  O   UNL     1      -2.657  -6.419   4.405  0.00  0.00    -0.170 OA
ATOM     14  C   UNL     1      -3.526  -7.509   2.138  0.00  0.00    +0.200 C 
ENDBRANCH   5  11
BRANCH  10  15
ATOM     15  N   UNL     1       2.720  -1.978  -0.165  0.00  0.00    -0.267 N 
ATOM     16  H   UNL     1       2.697  -1.008  -0.153  0.00  0.00    +0.167 HD
BRANCH  15  17
ATOM     17  N   UNL     1       3.698  -2.629  -0.862  0.00  0.00    -0.255 NA
ATOM     18  H   UNL     1       3.300  -3.266  -1.534  0.00  0.00    +0.140 HD
ATOM     19  H   UNL     1       4.321  -1.973  -1.309  0.00  0.00    +0.140 HD
ENDBRANCH  15  17
ENDBRANCH  10  15
BRANCH   1  20
ATOM     20  C   UNL     1       0.742  -0.511   1.242  0.00  0.00    +0.038 C 
BRANCH  20  22
ATOM     21  C   UNL     1      -0.019   1.526   0.010  0.00  0.00    +0.004 C 
ATOM     22  C   UNL     1       0.002  -0.004   0.002  0.00  0.00    +0.001 C 
ENDBRANCH  20  22
ENDBRANCH   1  20
TORSDOF 5
