REMARK  Name = ZINC13135919
REMARK  14 active torsions:
REMARK  status: ('A' for Active; 'I' for Inactive)
REMARK    1  A    between atoms: C_1  and  C_2
REMARK    2  A    between atoms: C_7  and  N_12
REMARK    3  A    between atoms: C_9  and  C_11
REMARK    4  A    between atoms: C_13  and  C_15
REMARK    5  A    between atoms: C_15  and  O_16
REMARK    6  A    between atoms: O_16  and  C_17
REMARK    7  A    between atoms: C_17  and  C_19
REMARK    8  A    between atoms: C_19  and  C_21
REMARK    9  A    between atoms: C_19  and  N_25
REMARK   10  A    between atoms: C_21  and  C_22
REMARK   11  A    between atoms: C_22  and  S_23
REMARK   12  A    between atoms: S_23  and  C_24
REMARK   13  A    between atoms: C_26  and  C_28
REMARK   14  A    between atoms: C_31  and  N_35
REMARK                            x       y       z     vdW  Elec       q    Type
REMARK                         _______ _______ _______ _____ _____    ______ ____
ROOT
ATOM      1  C   UNL     1      -4.948   1.584   0.034  0.00  0.00    +0.183 C 
ENDROOT
BRANCH   1   2
ATOM      2  N   UNL     1      -3.686   2.328   0.032  0.00  0.00    -0.298 N 
ATOM      3  C   UNL     1      -2.512   1.665   0.023  0.00  0.00    +0.246 C 
ATOM      4  O   UNL     1      -2.501   0.450   0.016  0.00  0.00    -0.270 OA
ATOM      5  H   UNL     1      -3.695   3.298   0.037  0.00  0.00    +0.150 HD
BRANCH   3   6
ATOM      6  C   UNL     1      -1.240   2.416   0.021  0.00  0.00    +0.055 A 
ATOM      7  C   UNL     1      -1.249   3.812   0.034  0.00  0.00    +0.017 A 
ATOM      8  C   UNL     1      -0.057   4.506   0.025  0.00  0.00    +0.033 A 
ATOM      9  C   UNL     1       1.147   3.823   0.011  0.00  0.00    +0.128 A 
ATOM     10  C   UNL     1       1.164   2.441   0.004  0.00  0.00    +0.053 A 
ATOM     11  C   UNL     1      -0.021   1.732   0.012  0.00  0.00    +0.055 A 
ATOM     12 CL   UNL     1       0.002  -0.004   0.002  0.00  0.00    -0.083 Cl
BRANCH   9  13
ATOM     13  N   UNL     1       2.421   4.576   0.002  0.00  0.00    +0.056 N 
ATOM     14  O   UNL     1       3.482   3.978  -0.012  0.00  0.00    -0.126 OA
ATOM     15  O   UNL     1       2.408   5.794   0.007  0.00  0.00    -0.126 OA
ENDBRANCH   9  13
ENDBRANCH   3   6
ENDBRANCH   1   2
BRANCH   1  16
ATOM     16  C   UNL     1      -6.032   2.434   0.644  0.00  0.00    +0.328 C 
ATOM     17  O   UNL     1      -5.776   3.548   1.037  0.00  0.00    -0.249 OA
BRANCH  16  18
ATOM     18  O   UNL     1      -7.281   1.955   0.751  0.00  0.00    -0.454 OA
BRANCH  18  19
ATOM     19  C   UNL     1      -8.274   2.830   1.349  0.00  0.00    +0.327 C 
BRANCH  19  21
ATOM     20  N   UNL     1     -10.684   2.751   1.901  0.00  0.00    -0.309 N 
ATOM     21  C   UNL     1      -9.606   2.127   1.385  0.00  0.00    +0.251 C 
ATOM     22  O   UNL     1      -9.709   0.999   0.950  0.00  0.00    -0.272 OA
ATOM     23  H   UNL     1     -10.601   3.652   2.249  0.00  0.00    +0.149 HD
BRANCH  20  29
ATOM     24  C   UNL     1     -13.911   4.736   3.928  0.00  0.00    +0.008 C 
ATOM     25  C   UNL     1     -13.054   4.148   2.805  0.00  0.00    -0.009 C 
ATOM     26  C   UNL     1     -13.767   4.339   1.466  0.00  0.00    +0.003 C 
ATOM     27  C   UNL     1     -12.910   3.751   0.343  0.00  0.00    +0.002 C 
ATOM     28  C   UNL     1     -12.693   2.258   0.596  0.00  0.00    +0.022 C 
ATOM     29  C   UNL     1     -11.979   2.067   1.936  0.00  0.00    +0.076 C 
ATOM     30  C   UNL     1     -12.836   2.655   3.059  0.00  0.00    +0.009 C 
ATOM     31  C   UNL     1     -12.122   2.464   4.398  0.00  0.00    +0.009 C 
ENDBRANCH  20  29
ENDBRANCH  19  21
ENDBRANCH  18  19
ENDBRANCH  16  18
ENDBRANCH   1  16
BRANCH   1  32
ATOM     32  C   UNL     1      -5.330   1.224  -1.403  0.00  0.00    +0.044 C 
BRANCH  32  33
ATOM     33  C   UNL     1      -4.292   0.260  -1.981  0.00  0.00    +0.071 C 
BRANCH  33  34
ATOM     34  S   UNL     1      -4.745  -0.167  -3.685  0.00  0.00    -0.164 S 
ATOM     35  C   UNL     1      -3.433  -1.300  -4.217  0.00  0.00    +0.084 C 
ENDBRANCH  33  34
ENDBRANCH  32  33
ENDBRANCH   1  32
TORSDOF 11
