REMARK  Name = ZINC12409851
REMARK  6 active torsions:
REMARK  status: ('A' for Active; 'I' for Inactive)
REMARK    1  A    between atoms: C_1  and  O_2
REMARK    2  A    between atoms: O_2  and  C_3
REMARK    3  A    between atoms: C_6  and  O_33
REMARK    4  A    between atoms: C_7  and  C_9
REMARK    5  A    between atoms: C_14  and  C_19
REMARK    6  A    between atoms: O_33  and  C_34
REMARK                            x       y       z     vdW  Elec       q    Type
REMARK                         _______ _______ _______ _____ _____    ______ ____
ROOT
ATOM      1  C   UNL     1       5.702   6.740   0.147  0.00  0.00    +0.141 C 
ATOM      2  C   UNL     1       4.359   6.043   0.074  0.00  0.00    +0.037 C 
ATOM      3  C   UNL     1       3.666   5.609  -0.989  0.00  0.00    +0.019 C 
ATOM      4  C   UNL     1       2.333   4.899  -0.820  0.00  0.00    +0.059 C 
ATOM      5  C   UNL     1       2.337   4.091   0.478  0.00  0.00    +0.032 C 
ATOM      6  C   UNL     1       2.552   5.083   1.628  0.00  0.00    +0.088 C 
ATOM      7  C   UNL     1       3.814   5.845   1.374  0.00  0.00    +0.163 C 
ATOM      8  O   UNL     1       4.404   6.317   2.326  0.00  0.00    -0.292 OA
ATOM      9  N   UNL     1       4.044   5.767  -2.291  0.00  0.00    -0.297 N 
ATOM     10  C   UNL     1       5.346   5.565  -2.725  0.00  0.00    +0.208 A 
ATOM     11  C   UNL     1       6.429   6.362  -2.167  0.00  0.00    +0.205 A 
ATOM     12  N   UNL     1       7.532   6.048  -2.770  0.00  0.00    -0.032 NA
ATOM     13  O   UNL     1       7.226   5.021  -3.703  0.00  0.00    -0.239 OA
ATOM     14  N   UNL     1       5.833   4.755  -3.608  0.00  0.00    -0.032 NA
ATOM     15  N   UNL     1       6.213   7.249  -1.113  0.00  0.00    -0.312 N 
ATOM     16  H   UNL     1       3.373   6.030  -2.940  0.00  0.00    +0.153 HD
ATOM     17  H   UNL     1       6.401   8.195  -1.220  0.00  0.00    +0.149 HD
ENDROOT
BRANCH   5  18
ATOM     18  C   UNL     1       1.015   3.386   0.648  0.00  0.00    -0.043 A 
ATOM     19  C   UNL     1       0.976   2.009   0.753  0.00  0.00    +0.007 A 
ATOM     20  C   UNL     1      -0.235   1.361   0.909  0.00  0.00    +0.038 A 
ATOM     21  C   UNL     1      -1.409   2.093   0.955  0.00  0.00    +0.123 A 
ATOM     22  C   UNL     1      -1.368   3.473   0.855  0.00  0.00    +0.038 A 
ATOM     23  C   UNL     1      -0.156   4.118   0.699  0.00  0.00    +0.007 A 
ATOM     24  F   UNL     1      -2.594   1.461   1.102  0.00  0.00    -0.205 F 
ENDBRANCH   5  18
BRANCH   1  29
ATOM     25  C   UNL     1       7.401   3.507   1.120  0.00  0.00    +0.121 A 
ATOM     26  C   UNL     1       8.557   3.973   1.729  0.00  0.00    +0.049 A 
ATOM     27  C   UNL     1       8.787   5.332   1.825  0.00  0.00    +0.049 A 
ATOM     28  C   UNL     1       7.865   6.230   1.308  0.00  0.00    +0.126 A 
ATOM     29  C   UNL     1       6.707   5.764   0.704  0.00  0.00    +0.022 A 
ATOM     30  C   UNL     1       6.476   4.405   0.608  0.00  0.00    +0.055 A 
BRANCH  25  32
ATOM     31  C   UNL     1       8.168   1.303   1.574  0.00  0.00    +0.277 C 
ATOM     32  O   UNL     1       7.174   2.170   1.025  0.00  0.00    -0.495 OA
ENDBRANCH  25  32
BRANCH  28  33
ATOM     33  O   UNL     1       8.094   7.567   1.398  0.00  0.00    -0.495 OA
ATOM     34  C   UNL     1       9.307   7.976   2.033  0.00  0.00    +0.277 C 
ENDBRANCH  28  33
ENDBRANCH   1  29
TORSDOF 4
