REMARK  Name = ZINC22698165
REMARK  11 active torsions:
REMARK  status: ('A' for Active; 'I' for Inactive)
REMARK    1  A    between atoms: C_1  and  C_2
REMARK    2  A    between atoms: C_2  and  O_3
REMARK    3  A    between atoms: O_3  and  C_4
REMARK    4  A    between atoms: N_9  and  C_12
REMARK    5  A    between atoms: C_12  and  C_14
REMARK    6  A    between atoms: C_12  and  C_22
REMARK    7  A    between atoms: C_19  and  O_20
REMARK    8  A    between atoms: O_20  and  C_21
REMARK    9  A    between atoms: C_25  and  C_35
REMARK   10  A    between atoms: N_26  and  C_29
REMARK   11  A    between atoms: C_29  and  C_30
REMARK                            x       y       z     vdW  Elec       q    Type
REMARK                         _______ _______ _______ _____ _____    ______ ____
ROOT
ATOM      1  C   UNL     1       3.743  -0.653  -0.037  0.00  0.00    +0.130 C 
ENDROOT
BRANCH   1   2
ATOM      2  C   UNL     1       2.408  -0.003   0.224  0.00  0.00    +0.085 A 
ATOM      3  C   UNL     1       1.250  -0.759   0.229  0.00  0.00    +0.191 A 
ATOM      4  C   UNL     1       0.019  -0.119   0.477  0.00  0.00    +0.072 A 
ATOM      5  C   UNL     1      -0.013   1.211   0.705  0.00  0.00    +0.023 A 
ATOM      6  N   UNL     1       1.130   1.947   0.700  0.00  0.00    -0.305 N 
ATOM      7  C   UNL     1       2.325   1.373   0.467  0.00  0.00    +0.261 A 
ATOM      8  O   UNL     1       3.338   2.054   0.467  0.00  0.00    -0.267 OA
ATOM      9  C   UNL     1      -1.333   1.890   0.964  0.00  0.00    +0.064 C 
ATOM     10  O   UNL     1       1.298  -2.092  -0.002  0.00  0.00    -0.287 OA
BRANCH   6  11
ATOM     11  C   UNL     1       1.059   3.388   0.952  0.00  0.00    +0.199 C 
BRANCH  11  12
ATOM     12  C   UNL     1       1.194   3.647   2.430  0.00  0.00    +0.125 A 
ATOM     13  C   UNL     1       2.347   3.849   3.092  0.00  0.00    +0.046 A 
ATOM     14  C   UNL     1       2.010   4.053   4.449  0.00  0.00    +0.041 A 
ATOM     15  C   UNL     1       0.672   3.956   4.538  0.00  0.00    +0.195 A 
ATOM     16  O   UNL     1       0.182   3.710   3.312  0.00  0.00    -0.466 OA
ENDBRANCH  11  12
ENDBRANCH   6  11
ENDBRANCH   1   2
BRANCH   1  22
ATOM     17  C   UNL     1       6.997  -1.284   4.259  0.00  0.00    +0.403 C 
ATOM     18  O   UNL     1       6.477  -1.400   5.351  0.00  0.00    -0.226 OA
ATOM     19  N   UNL     1       6.338  -0.661   3.262  0.00  0.00    -0.265 N 
ATOM     20  C   UNL     1       4.989  -0.115   3.474  0.00  0.00    +0.126 C 
ATOM     21  C   UNL     1       4.072  -0.635   2.362  0.00  0.00    +0.104 C 
ATOM     22  N   UNL     1       4.669  -0.326   1.056  0.00  0.00    -0.288 NA
ATOM     23  C   UNL     1       5.954  -1.015   0.880  0.00  0.00    +0.104 C 
ATOM     24  C   UNL     1       6.948  -0.511   1.932  0.00  0.00    +0.126 C 
BRANCH  17  25
ATOM     25  O   UNL     1       8.231  -1.778   4.045  0.00  0.00    -0.451 OA
BRANCH  25  27
ATOM     26  C   UNL     1      10.264  -2.927   4.733  0.00  0.00    +0.048 C 
ATOM     27  C   UNL     1       8.881  -2.436   5.164  0.00  0.00    +0.230 C 
ENDBRANCH  25  27
ENDBRANCH  17  25
ENDBRANCH   1  22
BRANCH   1  28
ATOM     28  C   UNL     1       4.303  -0.143  -1.340  0.00  0.00    +0.016 A 
ATOM     29  C   UNL     1       5.177   0.926  -1.345  0.00  0.00    +0.009 A 
ATOM     30  C   UNL     1       5.695   1.391  -2.540  0.00  0.00    +0.001 A 
ATOM     31  C   UNL     1       5.331   0.793  -3.733  0.00  0.00    +0.004 A 
ATOM     32  C   UNL     1       4.454  -0.273  -3.733  0.00  0.00    +0.046 A 
ATOM     33  C   UNL     1       3.936  -0.745  -2.535  0.00  0.00    +0.125 A 
BRANCH  33  34
ATOM     34  O   UNL     1       3.073  -1.794  -2.533  0.00  0.00    -0.495 OA
ATOM     35  C   UNL     1       2.740  -2.364  -3.800  0.00  0.00    +0.277 C 
ENDBRANCH  33  34
ENDBRANCH   1  28
TORSDOF 8
