REMARK  Name = ZINC09137649
REMARK  9 active torsions:
REMARK  status: ('A' for Active; 'I' for Inactive)
REMARK    1  A    between atoms: C_1  and  C_2
REMARK    2  A    between atoms: C_2  and  O_4
REMARK    3  A    between atoms: O_4  and  C_5
REMARK    4  A    between atoms: C_10  and  C_11
REMARK    5  A    between atoms: N_13  and  C_14
REMARK    6  A    between atoms: C_14  and  C_15
REMARK    7  A    between atoms: C_15  and  C_17
REMARK    8  A    between atoms: C_15  and  N_65
REMARK    9  A    between atoms: N_26  and  C_27
REMARK                            x       y       z     vdW  Elec       q    Type
REMARK                         _______ _______ _______ _____ _____    ______ ____
ROOT
ATOM      1  C   UNL     1      -2.473  -4.374  -0.720  0.00  0.00    -0.020 C 
ENDROOT
BRANCH   1   2
ATOM      2  C   UNL     1      -3.950  -4.100  -0.604  0.00  0.00    -0.059 A 
ATOM      3  C   UNL     1      -4.426  -3.276   0.399  0.00  0.00    +0.004 A 
ATOM      4  C   UNL     1      -5.777  -3.028   0.505  0.00  0.00    +0.023 A 
ATOM      5  C   UNL     1      -6.674  -3.605  -0.397  0.00  0.00    +0.033 A 
ATOM      6  C   UNL     1      -6.192  -4.425  -1.402  0.00  0.00    -0.026 A 
ATOM      7  C   UNL     1      -4.831  -4.667  -1.504  0.00  0.00    +0.007 A 
ATOM      8  C   UNL     1      -7.106  -5.070  -2.414  0.00  0.00    +0.038 C 
ATOM      9  C   UNL     1      -8.552  -5.003  -1.917  0.00  0.00    +0.024 C 
ATOM     10  C   UNL     1      -8.821  -3.572  -1.435  0.00  0.00    +0.105 C 
ATOM     11  N   UNL     1      -8.029  -3.328  -0.228  0.00  0.00    -0.333 N 
ATOM     12  C   UNL     1      -8.229  -1.958   0.264  0.00  0.00    +0.129 C 
ENDBRANCH   1   2
BRANCH   1  18
ATOM     13  C   UNL     1      -2.555  -6.627   0.163  0.00  0.00    -0.078 C 
ATOM     14  C   UNL     1      -1.980  -7.553   1.237  0.00  0.00    -0.019 C 
ATOM     15  C   UNL     1      -2.395  -7.043   2.620  0.00  0.00    -0.004 C 
ATOM     16  C   UNL     1      -1.902  -5.604   2.793  0.00  0.00    -0.019 C 
ATOM     17  C   UNL     1      -2.479  -4.734   1.674  0.00  0.00    -0.078 C 
ATOM     18  N   UNL     1      -2.023  -5.263   0.371  0.00  0.00    +0.385 N 
ATOM     19  H   UNL     1      -0.997  -5.302   0.368  0.00  0.00    -0.081 HD
ENDBRANCH   1  18
BRANCH   1  20
ATOM     20  C   UNL     1      -1.701  -3.056  -0.631  0.00  0.00    +0.094 C 
BRANCH  20  23
ATOM     21  C   UNL     1       0.618  -2.324  -0.482  0.00  0.00    +0.248 C 
ATOM     22  O   UNL     1       0.218  -1.188  -0.316  0.00  0.00    -0.270 OA
ATOM     23  N   UNL     1      -0.262  -3.331  -0.649  0.00  0.00    -0.312 N 
ATOM     24  H   UNL     1       0.057  -4.237  -0.781  0.00  0.00    +0.149 HD
BRANCH  21  30
ATOM     25  C   UNL     1       2.986  -1.557  -0.327  0.00  0.00    +0.144 A 
ATOM     26  C   UNL     1       4.346  -1.828  -0.346  0.00  0.00    +0.047 A 
ATOM     27  C   UNL     1       4.792  -3.122  -0.536  0.00  0.00    +0.004 A 
ATOM     28  C   UNL     1       3.886  -4.156  -0.708  0.00  0.00    +0.001 A 
ATOM     29  C   UNL     1       2.531  -3.904  -0.691  0.00  0.00    +0.017 A 
ATOM     30  C   UNL     1       2.068  -2.601  -0.500  0.00  0.00    +0.079 A 
BRANCH  25  31
ATOM     31  O   UNL     1       2.547  -0.286  -0.146  0.00  0.00    -0.425 OA
BRANCH  31  33
ATOM     32  C   UNL     1       1.679   1.451   1.381  0.00  0.00    +0.136 C 
ATOM     33  C   UNL     1       2.270   0.090   1.113  0.00  0.00    +0.309 C 
ATOM     34  O   UNL     1       2.494  -0.662   2.032  0.00  0.00    -0.251 OA
ENDBRANCH  31  33
ENDBRANCH  25  31
ENDBRANCH  21  30
ENDBRANCH  20  23
ENDBRANCH   1  20
TORSDOF 7
