REMARK  Name = ZINC34774573
REMARK  9 active torsions:
REMARK  status: ('A' for Active; 'I' for Inactive)
REMARK    1  A    between atoms: C_1  and  C_2
REMARK    2  A    between atoms: C_2  and  C_3
REMARK    3  A    between atoms: C_3  and  C_4
REMARK    4  A    between atoms: C_4  and  N_5
REMARK    5  A    between atoms: C_13  and  C_31
REMARK    6  A    between atoms: C_18  and  S_20
REMARK    7  A    between atoms: S_20  and  C_21
REMARK    8  A    between atoms: C_21  and  C_22
REMARK    9  A    between atoms: C_25  and  N_28
REMARK                            x       y       z     vdW  Elec       q    Type
REMARK                         _______ _______ _______ _____ _____    ______ ____
ROOT
ATOM      1  N   UNL     1       1.496  -1.671  -4.777  0.00  0.00    +0.382 N 
ATOM      2  C   UNL     1       1.691  -2.465  -5.997  0.00  0.00    -0.060 C 
ATOM      3  C   UNL     1       1.990  -3.918  -5.616  0.00  0.00    +0.088 C 
ATOM      4  N   UNL     1       3.136  -3.932  -4.694  0.00  0.00    -0.318 N 
ATOM      5  C   UNL     1       3.096  -3.039  -3.525  0.00  0.00    +0.088 C 
ATOM      6  C   UNL     1       2.744  -1.627  -4.004  0.00  0.00    -0.060 C 
ATOM      7  C   UNL     1       4.221  -4.760  -4.919  0.00  0.00    +0.134 A 
ATOM      8  C   UNL     1       4.118  -6.158  -4.682  0.00  0.00    +0.055 A 
ATOM      9  C   UNL     1       2.980  -6.938  -4.205  0.00  0.00    +0.002 A 
ATOM     10  C   UNL     1       3.124  -8.275  -4.056  0.00  0.00    +0.056 A 
ATOM     11  S   UNL     1       4.810  -8.570  -4.552  0.00  0.00    -0.076 S 
ATOM     12  C   UNL     1       5.283  -6.907  -4.945  0.00  0.00    +0.115 A 
ATOM     13  N   UNL     1       6.387  -6.333  -5.382  0.00  0.00    -0.214 NA
ATOM     14  C   UNL     1       6.426  -5.023  -5.586  0.00  0.00    +0.191 A 
ATOM     15  N   UNL     1       5.362  -4.260  -5.362  0.00  0.00    -0.206 NA
ATOM     16  H   UNL     1       0.770  -2.091  -4.217  0.00  0.00    -0.082 HD
ENDROOT
BRANCH   9  17
ATOM     17  C   UNL     1       1.691  -6.278  -3.889  0.00  0.00    -0.017 A 
ATOM     18  C   UNL     1       1.633  -5.290  -2.906  0.00  0.00    +0.008 A 
ATOM     19  C   UNL     1       0.431  -4.679  -2.616  0.00  0.00    +0.001 A 
ATOM     20  C   UNL     1      -0.716  -5.044  -3.299  0.00  0.00    +0.000 A 
ATOM     21  C   UNL     1      -0.665  -6.023  -4.274  0.00  0.00    +0.001 A 
ATOM     22  C   UNL     1       0.533  -6.638  -4.577  0.00  0.00    +0.008 A 
ENDBRANCH   9  17
BRANCH   1  23
ATOM     23  C   UNL     1       1.101  -0.304  -5.143  0.00  0.00    -0.079 C 
BRANCH  23  24
ATOM     24  C   UNL     1      -0.261  -0.336  -5.839  0.00  0.00    -0.019 C 
BRANCH  24  26
ATOM     25  C   UNL     1      -2.035   1.056  -6.915  0.00  0.00    +0.004 C 
ATOM     26  C   UNL     1      -0.673   1.088  -6.219  0.00  0.00    -0.005 C 
ENDBRANCH  24  26
ENDBRANCH  23  24
ENDBRANCH   1  23
BRANCH  14  27
ATOM     27  S   UNL     1       7.914  -4.282  -6.169  0.00  0.00    -0.081 S 
BRANCH  27  28
ATOM     28  C   UNL     1       9.064  -5.676  -6.333  0.00  0.00    +0.112 C 
BRANCH  28  29
ATOM     29  C   UNL     1      10.395  -5.174  -6.831  0.00  0.00    -0.037 A 
ATOM     30  C   UNL     1      10.642  -5.103  -8.189  0.00  0.00    +0.007 A 
ATOM     31  C   UNL     1      11.863  -4.643  -8.646  0.00  0.00    +0.033 A 
ATOM     32  C   UNL     1      12.836  -4.253  -7.745  0.00  0.00    +0.126 A 
ATOM     33  C   UNL     1      12.588  -4.322  -6.387  0.00  0.00    +0.033 A 
ATOM     34  C   UNL     1      11.366  -4.779  -5.930  0.00  0.00    +0.007 A 
BRANCH  32  35
ATOM     35  N   UNL     1      14.143  -3.760  -8.234  0.00  0.00    +0.056 N 
ATOM     36  O   UNL     1      14.360  -3.700  -9.422  0.00  0.00    -0.126 OA
ATOM     37  O   UNL     1      14.994  -3.419  -7.446  0.00  0.00    -0.126 OA
ENDBRANCH  32  35
ENDBRANCH  28  29
ENDBRANCH  27  28
ENDBRANCH  14  27
TORSDOF 8
