REMARK  Name = ZINC52012993
REMARK  8 active torsions:
REMARK  status: ('A' for Active; 'I' for Inactive)
REMARK    1  A    between atoms: C_1  and  C_2
REMARK    2  A    between atoms: C_2  and  C_3
REMARK    3  A    between atoms: C_2  and  C_4
REMARK    4  A    between atoms: C_2  and  N_5
REMARK    5  A    between atoms: C_6  and  C_8
REMARK    6  A    between atoms: C_8  and  N_9
REMARK    7  A    between atoms: N_9  and  C_10
REMARK    8  A    between atoms: C_16  and  O_18
REMARK                            x       y       z     vdW  Elec       q    Type
REMARK                         _______ _______ _______ _____ _____    ______ ____
ROOT
ATOM      1  N   UNL     1       4.055  -0.110  -2.677  0.00  0.00    +0.388 N 
ATOM      2  H   UNL     1       4.041   0.899  -2.672  0.00  0.00    -0.085 HD
ATOM      3  H   UNL     1       4.543  -0.444  -1.860  0.00  0.00    -0.085 HD
ENDROOT
BRANCH   1   4
ATOM      4  C   UNL     1       4.743  -0.584  -3.886  0.00  0.00    -0.042 C 
ATOM      5  C   UNL     1       4.077   0.024  -5.122  0.00  0.00    -0.013 C 
ATOM      6  C   UNL     1       4.794  -0.469  -6.381  0.00  0.00    -0.001 C 
ATOM      7  C   UNL     1       6.263  -0.045  -6.332  0.00  0.00    +0.002 C 
ATOM      8  C   UNL     1       6.928  -0.652  -5.095  0.00  0.00    +0.030 C 
ATOM      9  C   UNL     1       6.212  -0.159  -3.836  0.00  0.00    +0.101 C 
BRANCH   9  10
ATOM     10  O   UNL     1       6.294   1.266  -3.769  0.00  0.00    -0.393 OA
ATOM     11  H   UNL     1       7.198   1.607  -3.735  0.00  0.00    +0.210 HD
ENDBRANCH   9  10
ENDBRANCH   1   4
BRANCH   1  12
ATOM     12  C   UNL     1       2.677  -0.618  -2.667  0.00  0.00    +0.015 C 
BRANCH  12  14
ATOM     13  N   UNL     1       0.688  -0.476  -1.203  0.00  0.00    -0.312 N 
ATOM     14  C   UNL     1       1.972  -0.132  -1.427  0.00  0.00    +0.196 C 
ATOM     15  O   UNL     1       2.559   0.569  -0.630  0.00  0.00    -0.278 OA
ATOM     16  H   UNL     1       0.218  -1.037  -1.840  0.00  0.00    +0.149 HD
BRANCH  13  18
ATOM     17  C   UNL     1      -0.019   1.526   0.010  0.00  0.00    +0.031 C 
ATOM     18  C   UNL     1       0.002  -0.004   0.002  0.00  0.00    +0.026 C 
ATOM     19  C   UNL     1       0.742  -0.511   1.242  0.00  0.00    +0.031 C 
ATOM     20  C   UNL     1      -1.433  -0.534   0.013  0.00  0.00    +0.031 C 
ENDBRANCH  13  18
ENDBRANCH  12  14
ENDBRANCH   1  12
TORSDOF 5
