REMARK  Name = ZINC05444938
REMARK  5 active torsions:
REMARK  status: ('A' for Active; 'I' for Inactive)
REMARK    1  A    between atoms: C_1  and  C_2
REMARK    2  A    between atoms: C_2  and  C_3
REMARK    3  A    between atoms: C_6  and  C_9
REMARK    4  A    between atoms: C_11  and  C_15
REMARK    5  A    between atoms: N_17  and  N_18
REMARK                            x       y       z     vdW  Elec       q    Type
REMARK                         _______ _______ _______ _____ _____    ______ ____
ROOT
ATOM      1  C   UNL     1       5.514  -2.948  -6.800  0.00  0.00    +0.281 C 
ATOM      2  O   UNL     1       6.547  -2.932  -6.159  0.00  0.00    -0.267 OA
ATOM      3  N   UNL     1       5.528  -3.334  -8.091  0.00  0.00    -0.201 N 
ATOM      4  H   UNL     1       4.704  -3.346  -8.602  0.00  0.00    +0.178 HD
ENDROOT
BRANCH   3   5
ATOM      5  N   UNL     1       6.733  -3.716  -8.695  0.00  0.00    -0.174 NA
ATOM      6  C   UNL     1       6.746  -4.091  -9.952  0.00  0.00    +0.153 C 
ATOM      7  C   UNL     1       7.915  -4.530 -10.749  0.00  0.00    +0.028 A 
ATOM      8  C   UNL     1       9.266  -4.679 -10.457  0.00  0.00    +0.012 A 
ATOM      9  C   UNL     1      10.134  -5.120 -11.435  0.00  0.00    +0.001 A 
ATOM     10  C   UNL     1       9.659  -5.413 -12.703  0.00  0.00    +0.002 A 
ATOM     11  C   UNL     1       8.320  -5.269 -13.003  0.00  0.00    +0.024 A 
ATOM     12  C   UNL     1       7.431  -4.826 -12.030  0.00  0.00    +0.043 A 
ATOM     13  N   UNL     1       6.059  -4.598 -12.067  0.00  0.00    -0.280 N 
ATOM     14  C   UNL     1       5.600  -4.173 -10.878  0.00  0.00    +0.269 C 
ATOM     15  O   UNL     1       4.444  -3.900 -10.613  0.00  0.00    -0.268 OA
ATOM     16  H   UNL     1       5.504  -4.733 -12.851  0.00  0.00    +0.155 HD
ENDBRANCH   3   5
BRANCH   1  19
ATOM     17  C   UNL     1       2.698  -1.862  -4.737  0.00  0.00    +0.093 A 
ATOM     18  C   UNL     1       4.073  -2.130  -4.859  0.00  0.00    +0.062 A 
ATOM     19  C   UNL     1       4.249  -2.547  -6.166  0.00  0.00    +0.122 A 
ATOM     20  N   UNL     1       3.014  -2.513  -6.752  0.00  0.00    -0.272 N 
ATOM     21  H   UNL     1       2.828  -2.754  -7.673  0.00  0.00    +0.189 HD
ATOM     22  N   UNL     1       2.138  -2.119  -5.900  0.00  0.00    -0.173 NA
BRANCH  17  26
ATOM     23  C   UNL     1       0.707  -0.490  -1.238  0.00  0.00    -0.048 A 
ATOM     24  C   UNL     1      -0.013  -0.718  -2.396  0.00  0.00    +0.004 A 
ATOM     25  C   UNL     1       0.628  -1.163  -3.535  0.00  0.00    +0.010 A 
ATOM     26  C   UNL     1       2.003  -1.383  -3.515  0.00  0.00    +0.002 A 
ATOM     27  C   UNL     1       2.724  -1.152  -2.346  0.00  0.00    +0.010 A 
ATOM     28  C   UNL     1       2.074  -0.701  -1.215  0.00  0.00    +0.004 A 
BRANCH  23  30
ATOM     29  C   UNL     1      -0.019   1.526   0.010  0.00  0.00    +0.009 C 
ATOM     30  C   UNL     1       0.002  -0.004   0.002  0.00  0.00    +0.032 C 
ENDBRANCH  23  30
ENDBRANCH  17  26
ENDBRANCH   1  19
TORSDOF 4
