REMARK  Name = ZINC06197907
REMARK  9 active torsions:
REMARK  status: ('A' for Active; 'I' for Inactive)
REMARK    1  A    between atoms: C_1  and  C_2
REMARK    2  A    between atoms: C_2  and  C_3
REMARK    3  A    between atoms: C_10  and  C_15
REMARK    4  A    between atoms: C_15  and  C_17
REMARK    5  A    between atoms: C_15  and  N_70
REMARK    6  A    between atoms: N_21  and  C_22
REMARK    7  A    between atoms: C_22  and  C_23
REMARK    8  A    between atoms: C_22  and  C_24
REMARK    9  A    between atoms: C_22  and  C_25
REMARK                            x       y       z     vdW  Elec       q    Type
REMARK                         _______ _______ _______ _____ _____    ______ ____
ROOT
ATOM      1  C   UNL     1       3.323   0.742  -0.127  0.00  0.00    +0.039 C 
ENDROOT
BRANCH   1  16
ATOM      2  C   UNL     1       2.631   3.052  -0.347  0.00  0.00    -0.058 C 
ATOM      3  C   UNL     1       2.892   4.351  -1.113  0.00  0.00    +0.088 C 
ATOM      4  N   UNL     1       2.626   4.137  -2.542  0.00  0.00    -0.313 N 
ATOM      5  C   UNL     1       3.484   3.073  -3.081  0.00  0.00    +0.088 C 
ATOM      6  C   UNL     1       3.223   1.774  -2.316  0.00  0.00    -0.058 C 
ATOM      7  C   UNL     1       2.782   5.308  -3.255  0.00  0.00    +0.162 A 
ATOM      8  N   UNL     1       2.191   6.467  -3.076  0.00  0.00    -0.225 NA
ATOM      9  C   UNL     1       2.445   7.540  -3.858  0.00  0.00    +0.080 A 
ATOM     10  C   UNL     1       1.883   8.834  -3.773  0.00  0.00    +0.029 A 
ATOM     11  C   UNL     1       2.253   9.818  -4.653  0.00  0.00    +0.002 A 
ATOM     12  C   UNL     1       3.186   9.582  -5.653  0.00  0.00    +0.001 A 
ATOM     13  C   UNL     1       3.756   8.327  -5.765  0.00  0.00    +0.017 A 
ATOM     14  C   UNL     1       3.391   7.336  -4.888  0.00  0.00    +0.041 A 
ATOM     15  S   UNL     1       3.847   5.635  -4.653  0.00  0.00    -0.052 S 
ATOM     16  N   UNL     1       3.516   1.997  -0.884  0.00  0.00    +0.391 N 
ATOM     17  H   UNL     1       4.493   2.298  -0.786  0.00  0.00    -0.080 HD
ENDBRANCH   1  16
BRANCH   1  25
ATOM     18  C   UNL     1       2.300   1.104   5.965  0.00  0.00    -0.047 A 
ATOM     19  C   UNL     1       3.567   1.557   6.308  0.00  0.00    +0.005 A 
ATOM     20  C   UNL     1       4.528   1.759   5.342  0.00  0.00    +0.026 A 
ATOM     21  C   UNL     1       4.228   1.508   4.007  0.00  0.00    +0.049 A 
ATOM     22  C   UNL     1       2.943   1.049   3.662  0.00  0.00    -0.001 A 
ATOM     23  C   UNL     1       1.983   0.851   4.660  0.00  0.00    +0.013 A 
ATOM     24  C   UNL     1       2.634   0.793   2.254  0.00  0.00    +0.017 A 
ATOM     25  C   UNL     1       3.606   1.000   1.331  0.00  0.00    +0.011 A 
ATOM     26  C   UNL     1       4.879   1.460   1.729  0.00  0.00    +0.251 A 
ATOM     27  O   UNL     1       5.736   1.643   0.882  0.00  0.00    -0.268 OA
ATOM     28  N   UNL     1       5.170   1.702   3.019  0.00  0.00    -0.322 N 
ATOM     29  H   UNL     1       6.082   2.028   3.266  0.00  0.00    +0.169 HD
BRANCH  18  31
ATOM     30  C   UNL     1       1.361  -0.545   7.561  0.00  0.00    +0.009 C 
ATOM     31  C   UNL     1       1.266   0.890   7.040  0.00  0.00    +0.032 C 
ENDBRANCH  18  31
ENDBRANCH   1  25
BRANCH   1  32
ATOM     32  C   UNL     1       1.909   0.243  -0.284  0.00  0.00    +0.143 A 
ATOM     33  N   UNL     1       0.812   0.949  -0.160  0.00  0.00    -0.115 NA
ATOM     34  N   UNL     1      -0.190   0.167  -0.367  0.00  0.00    -0.023 NA
ATOM     35  N   UNL     1       0.239  -1.020  -0.620  0.00  0.00    -0.043 NA
ATOM     36  N   UNL     1       1.528  -1.014  -0.578  0.00  0.00    -0.225 N 
BRANCH  36  37
ATOM     37  C   UNL     1       2.412  -2.160  -0.807  0.00  0.00    +0.059 C 
ATOM     38  C   UNL     1       1.569  -3.419  -1.019  0.00  0.00    +0.036 C 
ATOM     39  C   UNL     1       3.268  -1.904  -2.049  0.00  0.00    +0.036 C 
ATOM     40  C   UNL     1       3.321  -2.353   0.408  0.00  0.00    +0.036 C 
ENDBRANCH  36  37
ENDBRANCH   1  32
TORSDOF 5
