REMARK  Name = ZINC64137929
REMARK  10 active torsions:
REMARK  status: ('A' for Active; 'I' for Inactive)
REMARK    1  A    between atoms: C_1  and  C_2
REMARK    2  A    between atoms: C_2  and  C_3
REMARK    3  A    between atoms: C_3  and  C_25
REMARK    4  A    between atoms: N_6  and  C_10
REMARK    5  A    between atoms: C_10  and  C_11
REMARK    6  A    between atoms: N_13  and  C_14
REMARK    7  A    between atoms: C_14  and  C_15
REMARK    8  A    between atoms: C_15  and  C_16
REMARK    9  A    between atoms: C_28  and  O_31
REMARK   10  A    between atoms: O_31  and  C_32
REMARK                            x       y       z     vdW  Elec       q    Type
REMARK                         _______ _______ _______ _____ _____    ______ ____
ROOT
ATOM      1  C   UNL     1       0.718  -0.497  -1.257  0.00  0.00    +0.138 C 
ATOM      2  C   UNL     1       0.081   0.093  -2.499  0.00  0.00    +0.251 C 
ATOM      3  O   UNL     1      -1.061  -0.057  -2.878  0.00  0.00    -0.272 OA
ATOM      4  N   UNL     1       1.047   0.819  -3.095  0.00  0.00    -0.215 N 
ATOM      5  C   UNL     1       2.195   0.770  -2.408  0.00  0.00    +0.310 C 
ATOM      6  O   UNL     1       3.210   1.345  -2.748  0.00  0.00    -0.252 OA
ATOM      7  N   UNL     1       2.099   0.013  -1.301  0.00  0.00    -0.281 N 
ATOM      8  H   UNL     1       2.803  -0.163  -0.657  0.00  0.00    +0.152 HD
ENDROOT
BRANCH   1   9
ATOM      9  C   UNL     1       0.707  -2.003  -1.315  0.00  0.00    -0.015 A 
ATOM     10  C   UNL     1      -0.341  -2.708  -0.752  0.00  0.00    +0.010 A 
ATOM     11  C   UNL     1      -0.353  -4.088  -0.804  0.00  0.00    +0.046 A 
ATOM     12  C   UNL     1       0.686  -4.768  -1.423  0.00  0.00    +0.120 A 
ATOM     13  C   UNL     1       1.736  -4.058  -1.988  0.00  0.00    +0.046 A 
ATOM     14  C   UNL     1       1.741  -2.678  -1.938  0.00  0.00    +0.010 A 
BRANCH  12  15
ATOM     15  O   UNL     1       0.677  -6.125  -1.475  0.00  0.00    -0.495 OA
ATOM     16  C   UNL     1       1.779  -6.758  -2.128  0.00  0.00    +0.277 C 
ENDBRANCH  12  15
ENDBRANCH   1   9
BRANCH   1  18
ATOM     17  C   UNL     1      -0.019   1.526   0.010  0.00  0.00    +0.007 C 
ATOM     18  C   UNL     1       0.002  -0.004   0.002  0.00  0.00    +0.037 C 
ENDBRANCH   1  18
BRANCH   4  19
ATOM     19  C   UNL     1       0.864   1.569  -4.340  0.00  0.00    +0.213 C 
BRANCH  19  20
ATOM     20  C   UNL     1       0.403   2.967  -4.021  0.00  0.00    +0.231 C 
ATOM     21  O   UNL     1       0.243   3.305  -2.867  0.00  0.00    -0.274 OA
ATOM     22  N   UNL     1       0.169   3.843  -5.018  0.00  0.00    -0.314 N 
ATOM     23  H   UNL     1       0.296   3.573  -5.941  0.00  0.00    +0.149 HD
BRANCH  22  24
ATOM     24  C   UNL     1      -0.280   5.203  -4.708  0.00  0.00    +0.108 C 
BRANCH  24  25
ATOM     25  C   UNL     1      -0.471   5.986  -6.009  0.00  0.00    +0.052 C 
BRANCH  25  26
ATOM     26  C   UNL     1      -0.932   7.385  -5.690  0.00  0.00    -0.040 C 
ATOM     27  C   UNL     1      -0.159   8.488  -5.569  0.00  0.00    -0.001 A 
ATOM     28  C   UNL     1       1.287   8.707  -5.692  0.00  0.00    +0.010 A 
ATOM     29  C   UNL     1       1.780   9.954  -5.511  0.00  0.00    +0.001 A 
ATOM     30  C   UNL     1       0.945  11.039  -5.209  0.00  0.00    +0.002 A 
ATOM     31  C   UNL     1      -0.393  10.916  -5.080  0.00  0.00    +0.026 A 
ATOM     32  C   UNL     1      -1.018   9.651  -5.250  0.00  0.00    +0.043 A 
ATOM     33  N   UNL     1      -2.274   9.280  -5.176  0.00  0.00    -0.380 N 
ATOM     34  C   UNL     1      -2.353   7.841  -5.447  0.00  0.00    +0.144 C 
ATOM     35  H   UNL     1      -3.025   9.862  -4.980  0.00  0.00    +0.160 HD
ENDBRANCH  25  26
ENDBRANCH  24  25
ENDBRANCH  22  24
ENDBRANCH  19  20
ENDBRANCH   4  19
TORSDOF 8
