REMARK  Name = ZINC00879587
REMARK  12 active torsions:
REMARK  status: ('A' for Active; 'I' for Inactive)
REMARK    1  A    between atoms: C_1  and  C_2
REMARK    2  A    between atoms: C_2  and  O_3
REMARK    3  A    between atoms: O_3  and  C_4
REMARK    4  A    between atoms: C_11  and  C_16
REMARK    5  A    between atoms: C_16  and  N_17
REMARK    6  A    between atoms: N_17  and  C_18
REMARK    7  A    between atoms: N_17  and  C_28
REMARK    8  A    between atoms: C_18  and  C_19
REMARK    9  A    between atoms: C_28  and  N_30
REMARK   10  A    between atoms: N_30  and  C_31
REMARK   11  A    between atoms: C_31  and  C_33
REMARK   12  A    between atoms: C_31  and  C_34
REMARK                            x       y       z     vdW  Elec       q    Type
REMARK                         _______ _______ _______ _____ _____    ______ ____
ROOT
ATOM      1  N   UNL     1       1.153   4.077   1.394  0.00  0.00    -0.304 N 
ENDROOT
BRANCH   1   2
ATOM      2  C   UNL     1      -0.012   4.281   2.041  0.00  0.00    +0.134 C 
ATOM      3  S   UNL     1      -0.005   4.843   3.658  0.00  0.00    -0.019 S 
BRANCH   2   4
ATOM      4  N   UNL     1      -1.181   4.041   1.415  0.00  0.00    -0.320 N 
ATOM      5  H   UNL     1      -1.185   3.723   0.499  0.00  0.00    +0.148 HD
BRANCH   4   6
ATOM      6  C   UNL     1      -2.447   4.263   2.119  0.00  0.00    +0.099 C 
ATOM      7  C   UNL     1      -2.850   5.733   1.994  0.00  0.00    +0.033 C 
BRANCH   6   8
ATOM      8  C   UNL     1      -3.518   3.395   1.510  0.00  0.00    -0.028 A 
ATOM      9  C   UNL     1      -3.579   3.232   0.139  0.00  0.00    +0.005 A 
ATOM     10  C   UNL     1      -4.559   2.433  -0.419  0.00  0.00    +0.000 A 
ATOM     11  C   UNL     1      -5.484   1.804   0.393  0.00  0.00    +0.000 A 
ATOM     12  C   UNL     1      -5.426   1.971   1.764  0.00  0.00    +0.000 A 
ATOM     13  C   UNL     1      -4.444   2.767   2.323  0.00  0.00    +0.005 A 
ENDBRANCH   6   8
ENDBRANCH   4   6
ENDBRANCH   2   4
ENDBRANCH   1   2
BRANCH   1  14
ATOM     14  C   UNL     1       2.424   4.338   2.074  0.00  0.00    +0.147 C 
BRANCH  14  22
ATOM     15  C   UNL     1       3.043  10.414   3.134  0.00  0.00    +0.121 A 
ATOM     16  C   UNL     1       3.741  10.700   1.963  0.00  0.00    +0.047 A 
ATOM     17  C   UNL     1       4.038   9.702   1.061  0.00  0.00    +0.030 A 
ATOM     18  C   UNL     1       3.640   8.393   1.317  0.00  0.00    +0.049 A 
ATOM     19  C   UNL     1       2.934   8.100   2.499  0.00  0.00    +0.002 A 
ATOM     20  C   UNL     1       2.639   9.123   3.407  0.00  0.00    +0.055 A 
ATOM     21  C   UNL     1       2.517   6.720   2.752  0.00  0.00    +0.020 A 
ATOM     22  C   UNL     1       2.835   5.769   1.840  0.00  0.00    +0.035 A 
ATOM     23  C   UNL     1       3.544   6.114   0.670  0.00  0.00    +0.254 A 
ATOM     24  O   UNL     1       3.816   5.244  -0.139  0.00  0.00    -0.268 OA
ATOM     25  N   UNL     1       3.928   7.380   0.426  0.00  0.00    -0.322 N 
ATOM     26  H   UNL     1       4.429   7.589  -0.414  0.00  0.00    +0.169 HD
BRANCH  15  27
ATOM     27  O   UNL     1       2.758  11.412   4.013  0.00  0.00    -0.492 OA
BRANCH  27  29
ATOM     28  C   UNL     1       2.796  13.706   4.770  0.00  0.00    +0.048 C 
ATOM     29  C   UNL     1       3.205  12.725   3.670  0.00  0.00    +0.225 C 
ENDBRANCH  27  29
ENDBRANCH  15  27
ENDBRANCH  14  22
ENDBRANCH   1  14
BRANCH   1  30
ATOM     30  C   UNL     1       1.147   3.596   0.010  0.00  0.00    +0.142 C 
BRANCH  30  31
ATOM     31  C   UNL     1       1.171   2.089   0.002  0.00  0.00    -0.026 A 
ATOM     32  C   UNL     1       2.379   1.418  -0.011  0.00  0.00    +0.009 A 
ATOM     33  C   UNL     1       2.405   0.036  -0.020  0.00  0.00    +0.050 A 
ATOM     34  C   UNL     1       1.220  -0.680  -0.013  0.00  0.00    +0.166 A 
ATOM     35  C   UNL     1       0.002  -0.004   0.002  0.00  0.00    +0.167 A 
ATOM     36  C   UNL     1      -0.017   1.381   0.010  0.00  0.00    +0.054 A 
ATOM     37  O   UNL     1      -1.007  -0.923   0.006  0.00  0.00    -0.453 OA
ATOM     38  C   UNL     1      -0.404  -2.159  -0.418  0.00  0.00    +0.466 C 
ATOM     39  O   UNL     1       0.973  -2.023  -0.018  0.00  0.00    -0.453 OA
ENDBRANCH  30  31
ENDBRANCH   1  30
TORSDOF 10
