REMARK  Name = ZINC04070385
REMARK  3 active torsions:
REMARK  status: ('A' for Active; 'I' for Inactive)
REMARK    1  A    between atoms: C_4  and  C_7
REMARK    2  A    between atoms: C_13  and  C_15
REMARK    3  A    between atoms: C_20  and  N_21
REMARK                            x       y       z     vdW  Elec       q    Type
REMARK                         _______ _______ _______ _____ _____    ______ ____
ROOT
ATOM      1  C   UNL     1      -7.154   1.412   0.554  0.00  0.00    +0.134 A 
ATOM      2  N   UNL     1      -6.058   2.138   0.368  0.00  0.00    -0.140 NA
ATOM      3  N   UNL     1      -4.915   1.611   0.292  0.00  0.00    -0.125 NA
ATOM      4  C   UNL     1      -4.740   0.298   0.381  0.00  0.00    +0.188 A 
ATOM      5  S   UNL     1      -6.436  -0.227   0.616  0.00  0.00    -0.030 S 
ATOM      6  N   UNL     1      -3.575  -0.453   0.316  0.00  0.00    -0.259 N 
ATOM      7  C   UNL     1      -2.388   0.159   0.130  0.00  0.00    +0.252 C 
ATOM      8  O   UNL     1      -2.339   1.368   0.019  0.00  0.00    -0.270 OA
ATOM      9  H   UNL     1      -3.614  -1.418   0.404  0.00  0.00    +0.157 HD
ENDROOT
BRANCH   1  13
ATOM     10  C   UNL     1     -11.208   2.630   0.899  0.00  0.00    +0.000 A 
ATOM     11  C   UNL     1     -10.218   3.578   0.707  0.00  0.00    +0.001 A 
ATOM     12  C   UNL     1      -8.900   3.189   0.595  0.00  0.00    +0.010 A 
ATOM     13  C   UNL     1      -8.565   1.836   0.674  0.00  0.00    +0.009 A 
ATOM     14  C   UNL     1      -9.569   0.885   0.863  0.00  0.00    +0.010 A 
ATOM     15  C   UNL     1     -10.883   1.288   0.979  0.00  0.00    +0.001 A 
ENDBRANCH   1  13
BRANCH   7  16
ATOM     16  C   UNL     1      -1.147  -0.641   0.060  0.00  0.00    +0.067 A 
ATOM     17  C   UNL     1      -0.816  -1.512   1.100  0.00  0.00    +0.015 A 
ATOM     18  C   UNL     1       0.344  -2.256   1.028  0.00  0.00    +0.001 A 
ATOM     19  C   UNL     1       1.177  -2.141  -0.070  0.00  0.00    +0.002 A 
ATOM     20  C   UNL     1       0.851  -1.284  -1.107  0.00  0.00    +0.033 A 
ATOM     21  C   UNL     1      -0.302  -0.530  -1.045  0.00  0.00    +0.138 A 
BRANCH  21  22
ATOM     22  N   UNL     1      -0.646   0.391  -2.152  0.00  0.00    +0.057 N 
ATOM     23  O   UNL     1       0.144   0.574  -3.060  0.00  0.00    -0.126 OA
ATOM     24  O   UNL     1      -1.722   0.962  -2.157  0.00  0.00    -0.126 OA
ENDBRANCH  21  22
ENDBRANCH   7  16
TORSDOF 3
