REMARK  Name = ZINC09463429
REMARK  8 active torsions:
REMARK  status: ('A' for Active; 'I' for Inactive)
REMARK    1  A    between atoms: C_4  and  C_7
REMARK    2  A    between atoms: C_8  and  C_9
REMARK    3  A    between atoms: C_9  and  N_60
REMARK    4  A    between atoms: C_15  and  C_17
REMARK    5  A    between atoms: C_20  and  S_23
REMARK    6  A    between atoms: S_23  and  N_26
REMARK    7  A    between atoms: N_26  and  C_27
REMARK    8  A    between atoms: C_27  and  C_28
REMARK                            x       y       z     vdW  Elec       q    Type
REMARK                         _______ _______ _______ _____ _____    ______ ____
ROOT
ATOM      1  C   UNL     1       2.626   0.680   2.316  0.00  0.00    -0.059 C 
ATOM      2  C   UNL     1       2.275   0.942   0.847  0.00  0.00    +0.089 C 
ATOM      3  N   UNL     1       0.988   1.653   0.794  0.00  0.00    -0.301 N 
ATOM      4  C   UNL     1       0.826   2.861   1.617  0.00  0.00    +0.089 C 
ATOM      5  C   UNL     1       1.232   2.521   3.059  0.00  0.00    -0.059 C 
ATOM      6  C   UNL     1      -0.014   1.211   0.009  0.00  0.00    +0.246 C 
ATOM      7  O   UNL     1       0.161   0.253  -0.719  0.00  0.00    -0.270 OA
ATOM      8  N   UNL     1       2.604   1.966   3.046  0.00  0.00    +0.384 N 
ATOM      9  H   UNL     1       3.226   2.630   2.570  0.00  0.00    -0.081 HD
ENDROOT
BRANCH   6  10
ATOM     10  C   UNL     1      -1.325   1.896   0.027  0.00  0.00    +0.037 A 
ATOM     11  C   UNL     1      -1.392   3.284  -0.097  0.00  0.00    +0.015 A 
ATOM     12  C   UNL     1      -2.618   3.917  -0.083  0.00  0.00    +0.029 A 
ATOM     13  C   UNL     1      -3.779   3.178   0.064  0.00  0.00    +0.105 A 
ATOM     14  C   UNL     1      -3.719   1.802   0.193  0.00  0.00    +0.029 A 
ATOM     15  C   UNL     1      -2.499   1.157   0.175  0.00  0.00    +0.015 A 
BRANCH  13  16
ATOM     16  S   UNL     1      -5.340   3.994   0.087  0.00  0.00    +0.059 S 
ATOM     17  O   UNL     1      -5.165   5.227  -0.598  0.00  0.00    -0.153 OA
ATOM     18  O   UNL     1      -6.307   3.032  -0.312  0.00  0.00    -0.153 OA
BRANCH  16  19
ATOM     19  N   UNL     1      -5.672   4.372   1.664  0.00  0.00    -0.183 NA
ATOM     20  H   UNL     1      -6.426   3.959   2.114  0.00  0.00    +0.148 HD
BRANCH  19  21
ATOM     21  C   UNL     1      -4.827   5.331   2.381  0.00  0.00    +0.180 C 
BRANCH  21  22
ATOM     22  C   UNL     1      -5.529   5.778   3.637  0.00  0.00    +0.120 A 
ATOM     23  C   UNL     1      -5.432   5.191   4.844  0.00  0.00    +0.046 A 
ATOM     24  C   UNL     1      -6.250   5.933   5.727  0.00  0.00    +0.041 A 
ATOM     25  C   UNL     1      -6.798   6.929   5.007  0.00  0.00    +0.195 A 
ATOM     26  O   UNL     1      -6.353   6.834   3.744  0.00  0.00    -0.466 OA
ENDBRANCH  21  22
ENDBRANCH  19  21
ENDBRANCH  16  19
ENDBRANCH  13  16
ENDBRANCH   6  10
BRANCH   8  27
ATOM     27  C   UNL     1       3.081   1.769   4.430  0.00  0.00    -0.051 C 
BRANCH  27  29
ATOM     28  C   UNL     1       2.121   2.929   6.369  0.00  0.00    +0.002 C 
ATOM     29  C   UNL     1       2.799   3.013   5.232  0.00  0.00    -0.045 C 
BRANCH  28  33
ATOM     30  C   UNL     1       1.325   6.435   8.629  0.00  0.00    +0.000 A 
ATOM     31  C   UNL     1       0.876   5.207   9.082  0.00  0.00    +0.001 A 
ATOM     32  C   UNL     1       1.131   4.065   8.352  0.00  0.00    +0.008 A 
ATOM     33  C   UNL     1       1.844   4.149   7.155  0.00  0.00    -0.025 A 
ATOM     34  C   UNL     1       2.299   5.390   6.707  0.00  0.00    +0.008 A 
ATOM     35  C   UNL     1       2.032   6.526   7.444  0.00  0.00    +0.001 A 
ENDBRANCH  28  33
ENDBRANCH  27  29
ENDBRANCH   8  27
TORSDOF 8
