REMARK  Name = ZINC00917109
REMARK  7 active torsions:
REMARK  status: ('A' for Active; 'I' for Inactive)
REMARK    1  A    between atoms: C_1  and  C_2
REMARK    2  A    between atoms: C_2  and  O_3
REMARK    3  A    between atoms: O_3  and  C_4
REMARK    4  A    between atoms: C_12  and  N_29
REMARK    5  A    between atoms: C_13  and  C_17
REMARK    6  A    between atoms: N_19  and  C_20
REMARK    7  A    between atoms: C_26  and  C_28
REMARK                            x       y       z     vdW  Elec       q    Type
REMARK                         _______ _______ _______ _____ _____    ______ ____
ROOT
ATOM      1  C   UNL     1       2.518  -2.689  -0.035  0.00  0.00    +0.121 A 
ATOM      2  C   UNL     1       3.702  -1.943  -0.043  0.00  0.00    +0.048 A 
ATOM      3  C   UNL     1       3.673  -0.584  -0.036  0.00  0.00    +0.032 A 
ATOM      4  C   UNL     1       2.438   0.089  -0.021  0.00  0.00    +0.073 A 
ATOM      5  C   UNL     1       1.235  -0.664  -0.013  0.00  0.00    +0.005 A 
ATOM      6  C   UNL     1       1.302  -2.071  -0.021  0.00  0.00    +0.055 A 
ATOM      7  C   UNL     1       0.002  -0.004   0.002  0.00  0.00    +0.022 A 
ATOM      8  C   UNL     1      -0.017   1.402   0.010  0.00  0.00    +0.030 A 
ATOM      9  C   UNL     1      -1.174   2.288   0.031  0.00  0.00    +0.053 A 
ATOM     10  C   UNL     1      -0.958   3.647   0.033  0.00  0.00    +0.097 A 
ATOM     11  S   UNL     1       0.818   3.788   0.016  0.00  0.00    -0.062 S 
ATOM     12  C   UNL     1       1.242   2.062   0.001  0.00  0.00    +0.111 A 
ATOM     13  N   UNL     1       2.385   1.424  -0.013  0.00  0.00    -0.239 NA
ENDROOT
BRANCH  10  14
ATOM     14  C   UNL     1      -1.920   4.687   0.048  0.00  0.00    +0.253 C 
ATOM     15  O   UNL     1      -3.108   4.418   0.059  0.00  0.00    -0.270 OA
ATOM     16  N   UNL     1      -1.520   5.974   0.052  0.00  0.00    -0.308 N 
ATOM     17  H   UNL     1      -0.574   6.188   0.043  0.00  0.00    +0.149 HD
BRANCH  16  18
ATOM     18  C   UNL     1      -2.514   7.050   0.068  0.00  0.00    +0.076 C 
ATOM     19  C   UNL     1      -2.938   7.331   1.511  0.00  0.00    +0.022 C 
ATOM     20  C   UNL     1      -3.977   8.455   1.528  0.00  0.00    +0.002 C 
ATOM     21  C   UNL     1      -3.369   9.720   0.919  0.00  0.00    +0.000 C 
ATOM     22  C   UNL     1      -2.945   9.439  -0.524  0.00  0.00    +0.005 C 
ATOM     23  C   UNL     1      -1.907   8.316  -0.541  0.00  0.00    +0.006 C 
ATOM     24  C   UNL     1      -1.483   8.034  -1.984  0.00  0.00    +0.009 C 
ENDBRANCH  16  18
ENDBRANCH  10  14
BRANCH   9  25
ATOM     25  N   UNL     1      -2.462   1.774   0.046  0.00  0.00    -0.356 N 
ATOM     26  H   UNL     1      -2.601   0.814   0.042  0.00  0.00    +0.142 HD
ATOM     27  H   UNL     1      -3.224   2.375   0.060  0.00  0.00    +0.142 HD
ENDBRANCH   9  25
BRANCH   1  28
ATOM     28  O   UNL     1       2.581  -4.047  -0.043  0.00  0.00    -0.492 OA
BRANCH  28  30
ATOM     29  C   UNL     1       3.752  -6.161  -0.064  0.00  0.00    +0.048 C 
ATOM     30  C   UNL     1       3.882  -4.636  -0.058  0.00  0.00    +0.225 C 
ENDBRANCH  28  30
ENDBRANCH   1  28
TORSDOF 5
