REMARK  Name = ZINC44144959
REMARK  11 active torsions:
REMARK  status: ('A' for Active; 'I' for Inactive)
REMARK    1  A    between atoms: C_1  and  C_2
REMARK    2  A    between atoms: C_2  and  C_3
REMARK    3  A    between atoms: C_3  and  C_4
REMARK    4  A    between atoms: C_4  and  C_6
REMARK    5  A    between atoms: C_4  and  N_17
REMARK    6  A    between atoms: N_8  and  C_9
REMARK    7  A    between atoms: C_9  and  C_10
REMARK    8  A    between atoms: C_18  and  C_33
REMARK    9  A    between atoms: C_19  and  C_30
REMARK   10  A    between atoms: C_21  and  C_22
REMARK   11  A    between atoms: C_26  and  C_28
REMARK                            x       y       z     vdW  Elec       q    Type
REMARK                         _______ _______ _______ _____ _____    ______ ____
ROOT
ATOM      1  N   UNL     1      -2.783  -2.640  -0.023  0.00  0.00    -0.331 N 
ATOM      2  C   UNL     1      -3.699  -2.458   0.949  0.00  0.00    +0.029 A 
ATOM      3  C   UNL     1      -4.917  -2.905   0.484  0.00  0.00    +0.058 A 
ATOM      4  C   UNL     1      -4.708  -3.377  -0.838  0.00  0.00    +0.041 A 
ATOM      5  C   UNL     1      -3.393  -3.195  -1.121  0.00  0.00    +0.051 A 
ATOM      6  C   UNL     1      -3.436  -1.868   2.311  0.00  0.00    +0.064 C 
ENDROOT
BRANCH   5   7
ATOM      7  C   UNL     1      -2.727  -3.542  -2.396  0.00  0.00    -0.000 A 
ATOM      8  C   UNL     1      -1.378  -3.903  -2.406  0.00  0.00    +0.010 A 
ATOM      9  C   UNL     1      -0.755  -4.226  -3.595  0.00  0.00    +0.002 A 
ATOM     10  C   UNL     1      -1.460  -4.196  -4.782  0.00  0.00    +0.019 A 
ATOM     11  C   UNL     1      -2.810  -3.837  -4.786  0.00  0.00    +0.052 A 
ATOM     12  C   UNL     1      -3.446  -3.515  -3.588  0.00  0.00    +0.028 A 
BRANCH  11  13
ATOM     13  C   UNL     1      -3.540  -3.805  -6.018  0.00  0.00    +0.099 C 
ATOM     14  N   UNL     1      -4.119  -3.780  -6.995  0.00  0.00    -0.191 NA
ENDBRANCH  11  13
ENDBRANCH   5   7
BRANCH   3  15
ATOM     15  C   UNL     1      -6.194  -2.894   1.219  0.00  0.00    +0.243 C 
ATOM     16  O   UNL     1      -6.239  -2.460   2.354  0.00  0.00    -0.270 OA
ATOM     17  N   UNL     1      -7.312  -3.366   0.634  0.00  0.00    -0.325 N 
ATOM     18  H   UNL     1      -7.277  -3.713  -0.272  0.00  0.00    +0.145 HD
ATOM     19  H   UNL     1      -8.153  -3.360   1.118  0.00  0.00    +0.145 HD
ENDBRANCH   3  15
BRANCH   1  20
ATOM     20  C   UNL     1      -1.363  -2.293   0.074  0.00  0.00    +0.173 C 
BRANCH  20  21
ATOM     21  C   UNL     1      -0.698  -3.182   1.094  0.00  0.00    +0.236 C 
ATOM     22  O   UNL     1      -1.326  -4.075   1.622  0.00  0.00    -0.274 OA
ATOM     23  N   UNL     1       0.595  -2.983   1.419  0.00  0.00    -0.309 N 
ATOM     24  H   UNL     1       1.076  -2.225   1.052  0.00  0.00    +0.149 HD
BRANCH  23  25
ATOM     25  C   UNL     1       1.273  -3.913   2.326  0.00  0.00    +0.139 C 
BRANCH  25  26
ATOM     26  C   UNL     1       2.699  -3.470   2.525  0.00  0.00    -0.030 A 
ATOM     27  C   UNL     1       3.690  -3.930   1.677  0.00  0.00    +0.006 A 
ATOM     28  C   UNL     1       4.999  -3.524   1.859  0.00  0.00    +0.020 A 
ATOM     29  C   UNL     1       5.317  -2.658   2.889  0.00  0.00    +0.041 A 
ATOM     30  C   UNL     1       4.325  -2.199   3.738  0.00  0.00    +0.020 A 
ATOM     31  C   UNL     1       3.016  -2.601   3.551  0.00  0.00    +0.006 A 
ATOM     32 CL   UNL     1       6.961  -2.148   3.119  0.00  0.00    -0.084 Cl
ENDBRANCH  25  26
ENDBRANCH  23  25
ENDBRANCH  20  21
BRANCH  20  33
ATOM     33  C   UNL     1      -1.223  -0.831   0.503  0.00  0.00    +0.034 C 
BRANCH  33  35
ATOM     34  C   UNL     1      -1.757   1.531  -0.113  0.00  0.00    +0.004 C 
ATOM     35  C   UNL     1      -1.790   0.077  -0.590  0.00  0.00    -0.001 C 
ENDBRANCH  33  35
ENDBRANCH  20  33
ENDBRANCH   1  20
TORSDOF 9
