REMARK  Name = ZINC01567818
REMARK  15 active torsions:
REMARK  status: ('A' for Active; 'I' for Inactive)
REMARK    1  A    between atoms: C_1  and  C_2
REMARK    2  A    between atoms: C_2  and  C_3
REMARK    3  A    between atoms: C_2  and  C_4
REMARK    4  A    between atoms: C_2  and  N_5
REMARK    5  A    between atoms: C_6  and  O_8
REMARK    6  A    between atoms: O_8  and  C_9
REMARK    7  A    between atoms: C_9  and  C_10
REMARK    8  A    between atoms: C_13  and  C_24
REMARK    9  A    between atoms: C_14  and  C_15
REMARK   10  A    between atoms: C_15  and  O_16
REMARK   11  A    between atoms: O_16  and  C_17
REMARK   12  A    between atoms: N_19  and  C_20
REMARK   13  A    between atoms: C_20  and  C_21
REMARK   14  A    between atoms: C_20  and  C_22
REMARK   15  A    between atoms: C_20  and  C_23
REMARK                            x       y       z     vdW  Elec       q    Type
REMARK                         _______ _______ _______ _____ _____    ______ ____
ROOT
ATOM      1  C   UNL     1      -0.463   2.769   1.934  0.00  0.00    +0.017 A 
ATOM      2  C   UNL     1      -1.313   2.830   2.986  0.00  0.00    +0.026 A 
ATOM      3  N   UNL     1      -2.082   1.706   2.988  0.00  0.00    -0.343 N 
ATOM      4  C   UNL     1      -1.716   0.928   1.912  0.00  0.00    +0.056 A 
ATOM      5  C   UNL     1      -0.718   1.572   1.248  0.00  0.00    +0.022 A 
ATOM      6  C   UNL     1      -3.018   1.716   4.123  0.00  0.00    +0.122 C 
ATOM      7  C   UNL     1      -3.069   3.180   4.607  0.00  0.00    +0.028 C 
ATOM      8  C   UNL     1      -1.692   3.715   4.156  0.00  0.00    +0.055 C 
ENDROOT
BRANCH   4   9
ATOM      9  C   UNL     1      -2.305  -0.377   1.543  0.00  0.00    +0.000 A 
ATOM     10  C   UNL     1      -2.636  -0.646   0.214  0.00  0.00    +0.011 A 
ATOM     11  C   UNL     1      -3.184  -1.865  -0.125  0.00  0.00    +0.022 A 
ATOM     12  C   UNL     1      -3.408  -2.822   0.850  0.00  0.00    +0.059 A 
ATOM     13  C   UNL     1      -3.082  -2.562   2.171  0.00  0.00    +0.060 A 
ATOM     14  C   UNL     1      -2.527  -1.347   2.522  0.00  0.00    +0.031 A 
ATOM     15 CL   UNL     1      -3.365  -3.768   3.388  0.00  0.00    -0.082 Cl
ATOM     16 CL   UNL     1      -4.099  -4.354   0.416  0.00  0.00    -0.082 Cl
ENDBRANCH   4   9
BRANCH   1  17
ATOM     17  C   UNL     1       0.569   3.803   1.564  0.00  0.00    +0.271 C 
BRANCH  17  18
ATOM     18  O   UNL     1      -0.024   4.779   0.667  0.00  0.00    -0.446 OA
BRANCH  18  20
ATOM     19  N   UNL     1       0.283   6.717  -0.596  0.00  0.00    -0.276 N 
ATOM     20  C   UNL     1       0.771   5.778   0.239  0.00  0.00    +0.401 C 
ATOM     21  O   UNL     1       1.929   5.832   0.605  0.00  0.00    -0.226 OA
ATOM     22  H   UNL     1      -0.641   6.673  -0.888  0.00  0.00    +0.153 HD
BRANCH  19  24
ATOM     23  C   UNL     1       2.340   7.217  -1.821  0.00  0.00    +0.031 C 
ATOM     24  C   UNL     1       1.148   7.804  -1.061  0.00  0.00    +0.029 C 
ATOM     25  C   UNL     1       0.355   8.725  -1.990  0.00  0.00    +0.031 C 
ATOM     26  C   UNL     1       1.654   8.604   0.141  0.00  0.00    +0.031 C 
ENDBRANCH  19  24
ENDBRANCH  18  20
ENDBRANCH  17  18
ENDBRANCH   1  17
BRANCH   5  27
ATOM     27  C   UNL     1      -0.013   1.086   0.008  0.00  0.00    +0.271 C 
BRANCH  27  28
ATOM     28  O   UNL     1      -0.715   1.567  -1.168  0.00  0.00    -0.446 OA
BRANCH  28  29
ATOM     29  C   UNL     1      -0.210   1.218  -2.367  0.00  0.00    +0.401 C 
ATOM     30  O   UNL     1       0.790   0.531  -2.428  0.00  0.00    -0.226 OA
ATOM     31  N   UNL     1      -0.814   1.632  -3.498  0.00  0.00    -0.276 N 
ATOM     32  H   UNL     1      -1.612   2.180  -3.450  0.00  0.00    +0.153 HD
BRANCH  31  33
ATOM     33  C   UNL     1      -0.264   1.253  -4.803  0.00  0.00    +0.029 C 
ATOM     34  C   UNL     1      -0.251  -0.272  -4.927  0.00  0.00    +0.031 C 
ATOM     35  C   UNL     1      -1.132   1.847  -5.914  0.00  0.00    +0.031 C 
ATOM     36  C   UNL     1       1.164   1.787  -4.929  0.00  0.00    +0.031 C 
ENDBRANCH  31  33
ENDBRANCH  28  29
ENDBRANCH  27  28
ENDBRANCH   5  27
TORSDOF 9
