REMARK  Name = ZINC25586237
REMARK  8 active torsions:
REMARK  status: ('A' for Active; 'I' for Inactive)
REMARK    1  A    between atoms: C_6  and  N_7
REMARK    2  A    between atoms: C_8  and  C_10
REMARK    3  A    between atoms: C_10  and  N_11
REMARK    4  A    between atoms: C_17  and  C_19
REMARK    5  A    between atoms: C_19  and  S_20
REMARK    6  A    between atoms: S_20  and  C_21
REMARK    7  A    between atoms: C_24  and  C_27
REMARK    8  A    between atoms: C_27  and  C_28
REMARK                            x       y       z     vdW  Elec       q    Type
REMARK                         _______ _______ _______ _____ _____    ______ ____
ROOT
ATOM      1  N   UNL     1       1.394  -0.446  -0.371  0.00  0.00    +0.387 N 
ATOM      2  C   UNL     1       1.873  -0.072  -1.709  0.00  0.00    -0.059 C 
ATOM      3  C   UNL     1       3.365  -0.401  -1.824  0.00  0.00    +0.089 C 
ATOM      4  N   UNL     1       3.561  -1.813  -1.466  0.00  0.00    -0.304 N 
ATOM      5  C   UNL     1       2.988  -2.296  -0.200  0.00  0.00    +0.089 C 
ATOM      6  C   UNL     1       1.511  -1.893  -0.149  0.00  0.00    -0.059 C 
ATOM      7  C   UNL     1       4.248  -2.644  -2.276  0.00  0.00    +0.226 C 
ATOM      8  O   UNL     1       4.400  -3.806  -1.964  0.00  0.00    -0.275 OA
ATOM      9  H   UNL     1       2.035   0.059   0.367  0.00  0.00    -0.081 HD
ENDROOT
BRANCH   1  10
ATOM     10  C   UNL     1       0.013   0.009  -0.160  0.00  0.00    +0.019 C 
BRANCH  10  12
ATOM     11  N   UNL     1      -1.195   2.161   0.019  0.00  0.00    -0.287 N 
ATOM     12  C   UNL     1      -0.024   1.516  -0.154  0.00  0.00    +0.201 C 
ATOM     13  O   UNL     1       0.999   2.148  -0.310  0.00  0.00    -0.278 OA
ATOM     14  H   UNL     1      -2.134   1.591   0.072  0.00  0.00    +0.155 HD
BRANCH  11  20
ATOM     15  C   UNL     1      -0.159   4.220   0.743  0.00  0.00    +0.026 A 
ATOM     16  C   UNL     1      -0.179   5.597   0.848  0.00  0.00    +0.040 A 
ATOM     17  C   UNL     1      -1.256   6.315   0.357  0.00  0.00    +0.124 A 
ATOM     18  C   UNL     1      -2.313   5.654  -0.246  0.00  0.00    +0.040 A 
ATOM     19  C   UNL     1      -2.295   4.278  -0.359  0.00  0.00    +0.026 A 
ATOM     20  C   UNL     1      -1.215   3.556   0.133  0.00  0.00    +0.033 A 
ATOM     21  F   UNL     1      -1.276   7.661   0.466  0.00  0.00    -0.205 F 
ENDBRANCH  11  20
ENDBRANCH  10  12
ENDBRANCH   1  10
BRANCH   7  22
ATOM     22  C   UNL     1       4.826  -2.128  -3.568  0.00  0.00    +0.173 C 
BRANCH  22  23
ATOM     23  S   UNL     1       5.683  -3.472  -4.425  0.00  0.00    -0.077 S 
BRANCH  23  24
ATOM     24  C   UNL     1       6.244  -2.614  -5.857  0.00  0.00    +0.185 A 
ATOM     25  N   UNL     1       6.973  -3.139  -6.885  0.00  0.00    -0.206 NA
ATOM     26  H   UNL     1       5.502  -0.573  -5.572  0.00  0.00    +0.191 HD
ATOM     27  C   UNL     1       7.169  -2.110  -7.764  0.00  0.00    +0.152 A 
ATOM     28  N   UNL     1       6.584  -1.058  -7.266  0.00  0.00    -0.157 NA
ATOM     29  N   UNL     1       6.039  -1.348  -6.139  0.00  0.00    -0.254 N 
BRANCH  27  30
ATOM     30  C   UNL     1       7.922  -2.180  -9.068  0.00  0.00    +0.081 C 
BRANCH  30  31
ATOM     31  C   UNL     1       7.026  -1.681 -10.202  0.00  0.00    -0.004 C 
ATOM     32  C   UNL     1       5.851  -2.657 -10.417  0.00  0.00    +0.004 C 
ATOM     33  C   UNL     1       5.645  -2.671 -11.953  0.00  0.00    +0.000 C 
ATOM     34  C   UNL     1       7.095  -2.602 -12.494  0.00  0.00    +0.000 C 
ATOM     35  C   UNL     1       7.816  -1.645 -11.522  0.00  0.00    +0.004 C 
ENDBRANCH  30  31
ENDBRANCH  27  30
ENDBRANCH  23  24
ENDBRANCH  22  23
ENDBRANCH   7  22
TORSDOF 8
