REMARK  Name = ZINC04997095
REMARK  6 active torsions:
REMARK  status: ('A' for Active; 'I' for Inactive)
REMARK    1  A    between atoms: C_1  and  C_2
REMARK    2  A    between atoms: C_5  and  S_8
REMARK    3  A    between atoms: S_8  and  C_9
REMARK    4  A    between atoms: C_10  and  C_19
REMARK    5  A    between atoms: N_20  and  N_21
REMARK    6  A    between atoms: C_22  and  C_24
REMARK                            x       y       z     vdW  Elec       q    Type
REMARK                         _______ _______ _______ _____ _____    ______ ____
ROOT
ATOM      1  C   UNL     1      -4.782  -0.382   0.013  0.00  0.00    +0.111 A 
ATOM      2  C   UNL     1      -4.793   1.034   0.029  0.00  0.00    +0.027 A 
ATOM      3  C   UNL     1      -6.008   1.705   0.036  0.00  0.00    +0.022 A 
ATOM      4  C   UNL     1      -7.189   0.939   0.032  0.00  0.00    +0.001 A 
ATOM      5  C   UNL     1      -8.452   1.553   0.037  0.00  0.00    +0.010 A 
ATOM      6  C   UNL     1      -9.575   0.783   0.033  0.00  0.00    +0.001 A 
ATOM      7  C   UNL     1      -9.488  -0.607   0.022  0.00  0.00    +0.002 A 
ATOM      8  C   UNL     1      -8.279  -1.235   0.017  0.00  0.00    +0.028 A 
ATOM      9  C   UNL     1      -7.097  -0.475   0.021  0.00  0.00    +0.072 A 
ATOM     10  N   UNL     1      -5.900  -1.074   0.015  0.00  0.00    -0.240 NA
ENDROOT
BRANCH   2  11
ATOM     11  C   UNL     1      -3.528   1.788   0.033  0.00  0.00    +0.141 C 
ATOM     12  N   UNL     1      -2.395   1.154   0.027  0.00  0.00    -0.187 NA
BRANCH  12  13
ATOM     13  N   UNL     1      -1.191   1.871   0.031  0.00  0.00    -0.200 N 
ATOM     14  C   UNL     1      -0.015   1.214   0.025  0.00  0.00    +0.299 C 
ATOM     15  O   UNL     1       0.002  -0.004   0.016  0.00  0.00    -0.265 OA
ATOM     16  H   UNL     1      -1.204   2.841   0.038  0.00  0.00    +0.178 HD
BRANCH  14  17
ATOM     17  C   UNL     1       1.244   1.964   0.022  0.00  0.00    +0.191 A 
ATOM     18  C   UNL     1       2.500   1.425   0.011  0.00  0.00    +0.054 A 
ATOM     19  C   UNL     1       3.401   2.502   0.013  0.00  0.00    +0.042 A 
ATOM     20  C   UNL     1       2.666   3.636   0.026  0.00  0.00    +0.196 A 
ATOM     21  O   UNL     1       1.367   3.308   0.025  0.00  0.00    -0.458 OA
ENDBRANCH  14  17
ENDBRANCH  12  13
ENDBRANCH   2  11
BRANCH   1  22
ATOM     22  S   UNL     1      -3.239  -1.232  -0.003  0.00  0.00    -0.069 S 
BRANCH  22  27
ATOM     23  C   UNL     1      -5.178  -6.929   0.475  0.00  0.00    +0.044 C 
ATOM     24  C   UNL     1      -4.694  -5.506   0.356  0.00  0.00    -0.050 A 
ATOM     25  C   UNL     1      -4.433  -4.969  -0.891  0.00  0.00    +0.004 A 
ATOM     26  C   UNL     1      -3.989  -3.666  -1.005  0.00  0.00    +0.015 A 
ATOM     27  C   UNL     1      -3.805  -2.895   0.137  0.00  0.00    +0.014 A 
ATOM     28  C   UNL     1      -4.063  -3.440   1.388  0.00  0.00    +0.015 A 
ATOM     29  C   UNL     1      -4.512  -4.742   1.494  0.00  0.00    +0.004 A 
ENDBRANCH  22  27
ENDBRANCH   1  22
TORSDOF 5
