REMARK  Name = ZINC19626606
REMARK  12 active torsions:
REMARK  status: ('A' for Active; 'I' for Inactive)
REMARK    1  A    between atoms: C_1  and  C_2
REMARK    2  A    between atoms: C_2  and  C_3
REMARK    3  A    between atoms: C_3  and  C_4
REMARK    4  A    between atoms: C_4  and  N_5
REMARK    5  A    between atoms: C_6  and  N_35
REMARK    6  A    between atoms: C_7  and  N_14
REMARK    7  A    between atoms: N_14  and  C_15
REMARK    8  A    between atoms: C_15  and  C_16
REMARK    9  A    between atoms: C_16  and  C_17
REMARK   10  A    between atoms: C_18  and  C_20
REMARK   11  A    between atoms: C_20  and  N_21
REMARK   12  A    between atoms: C_30  and  C_32
REMARK                            x       y       z     vdW  Elec       q    Type
REMARK                         _______ _______ _______ _____ _____    ______ ____
ROOT
ATOM      1  N   UNL     1      -0.681   1.568   1.124  0.00  0.00    -0.263 N 
ATOM      2  C   UNL     1      -1.508   0.798   1.862  0.00  0.00    +0.242 C 
ATOM      3  O   UNL     1      -1.859   1.169   2.962  0.00  0.00    -0.273 OA
ENDROOT
BRANCH   1   6
ATOM      4  N   UNL     1      -0.401   4.943   2.548  0.00  0.00    -0.280 N 
ATOM      5  C   UNL     1      -0.958   3.807   2.010  0.00  0.00    +0.127 A 
ATOM      6  C   UNL     1      -0.139   2.749   1.672  0.00  0.00    +0.140 A 
ATOM      7  C   UNL     1       1.248   2.871   1.880  0.00  0.00    +0.277 A 
ATOM      8  O   UNL     1       1.996   1.954   1.587  0.00  0.00    -0.266 OA
ATOM      9  N   UNL     1       1.744   4.009   2.405  0.00  0.00    -0.273 N 
ATOM     10  H   UNL     1       2.827   4.112   2.571  0.00  0.00    +0.173 HD
ATOM     11  C   UNL     1       0.929   5.027   2.733  0.00  0.00    +0.331 A 
ATOM     12  O   UNL     1       1.403   6.042   3.206  0.00  0.00    -0.246 OA
BRANCH   5  13
ATOM     13  N   UNL     1      -2.316   3.723   1.815  0.00  0.00    -0.343 N 
ATOM     14  H   UNL     1      -2.755   2.811   1.384  0.00  0.00    +0.144 HD
ATOM     15  H   UNL     1      -2.964   4.569   2.090  0.00  0.00    +0.144 HD
ENDBRANCH   5  13
BRANCH   4  16
ATOM     16  C   UNL     1      -1.260   6.072   2.916  0.00  0.00    +0.128 C 
BRANCH  16  17
ATOM     17  C   UNL     1      -1.409   7.011   1.717  0.00  0.00    +0.021 C 
BRANCH  17  19
ATOM     18  C   UNL     1      -2.454   9.129   0.903  0.00  0.00    +0.004 C 
ATOM     19  C   UNL     1      -2.306   8.189   2.101  0.00  0.00    -0.002 C 
ENDBRANCH  17  19
ENDBRANCH  16  17
ENDBRANCH   4  16
ENDBRANCH   1   6
BRANCH   1  20
ATOM     20  C   UNL     1      -0.345   1.176  -0.248  0.00  0.00    +0.114 C 
BRANCH  20  21
ATOM     21  C   UNL     1      -1.377   1.764  -1.213  0.00  0.00    +0.016 C 
ATOM     22  C   UNL     1      -1.027   1.355  -2.645  0.00  0.00    +0.005 C 
ENDBRANCH  20  21
ENDBRANCH   1  20
BRANCH   2  23
ATOM     23  C   UNL     1      -1.995  -0.520   1.319  0.00  0.00    +0.243 C 
BRANCH  23  24
ATOM     24  N   UNL     1      -2.872  -1.159   2.303  0.00  0.00    -0.219 N 
ATOM     25  C   UNL     1      -4.193  -0.888   2.252  0.00  0.00    +0.275 A 
ATOM     26  O   UNL     1      -4.641  -0.132   1.410  0.00  0.00    -0.266 OA
ATOM     27  C   UNL     1      -5.078  -1.530   3.233  0.00  0.00    +0.050 A 
ATOM     28  C   UNL     1      -6.453  -1.320   3.262  0.00  0.00    +0.014 A 
ATOM     29  C   UNL     1      -7.214  -1.956   4.220  0.00  0.00    +0.001 A 
ATOM     30  C   UNL     1      -6.623  -2.801   5.150  0.00  0.00    +0.001 A 
ATOM     31  C   UNL     1      -5.262  -3.022   5.138  0.00  0.00    +0.011 A 
ATOM     32  C   UNL     1      -4.476  -2.390   4.181  0.00  0.00    +0.020 A 
ATOM     33  C   UNL     1      -3.018  -2.572   4.100  0.00  0.00    +0.153 A 
ATOM     34  N   UNL     1      -2.345  -1.940   3.168  0.00  0.00    -0.162 NA
BRANCH  33  35
ATOM     35  C   UNL     1      -2.321  -3.455   5.056  0.00  0.00    +0.262 C 
ATOM     36  O   UNL     1      -2.951  -4.037   5.917  0.00  0.00    -0.269 OA
ATOM     37  N   UNL     1      -0.985  -3.616   4.974  0.00  0.00    -0.324 N 
ATOM     38  H   UNL     1      -0.466  -4.274   5.686  0.00  0.00    +0.145 HD
ATOM     39  H   UNL     1      -0.414  -3.089   4.195  0.00  0.00    +0.145 HD
ENDBRANCH  33  35
ENDBRANCH  23  24
ENDBRANCH   2  23
TORSDOF 10
