REMARK  Name = ZINC12452315
REMARK  10 active torsions:
REMARK  status: ('A' for Active; 'I' for Inactive)
REMARK    1  A    between atoms: C_1  and  C_2
REMARK    2  A    between atoms: C_7  and  C_19
REMARK    3  A    between atoms: C_15  and  O_18
REMARK    4  A    between atoms: C_19  and  N_20
REMARK    5  A    between atoms: N_20  and  C_21
REMARK    6  A    between atoms: C_21  and  C_22
REMARK    7  A    between atoms: C_22  and  C_23
REMARK    8  A    between atoms: C_23  and  N_24
REMARK    9  A    between atoms: C_30  and  C_32
REMARK   10  A    between atoms: C_35  and  C_37
REMARK                            x       y       z     vdW  Elec       q    Type
REMARK                         _______ _______ _______ _____ _____    ______ ____
ROOT
ATOM      1  C   UNL     1     -12.788   4.679  -5.855  0.00  0.00    +0.044 C 
ATOM      2  C   UNL     1     -11.519   3.985  -5.431  0.00  0.00    -0.048 A 
ATOM      3  C   UNL     1     -10.307   4.360  -6.005  0.00  0.00    +0.004 A 
ATOM      4  C   UNL     1      -9.144   3.752  -5.641  0.00  0.00    +0.010 A 
ATOM      5  C   UNL     1      -9.166   2.733  -4.676  0.00  0.00    -0.001 A 
ATOM      6  C   UNL     1      -7.981   2.085  -4.269  0.00  0.00    +0.018 A 
ATOM      7  C   UNL     1      -8.072   1.102  -3.331  0.00  0.00    +0.008 A 
ATOM      8  C   UNL     1      -9.322   0.768  -2.789  0.00  0.00    +0.104 A 
ATOM      9  C   UNL     1     -10.397   2.350  -4.091  0.00  0.00    +0.048 A 
ATOM     10  C   UNL     1     -11.576   3.001  -4.491  0.00  0.00    +0.029 A 
ATOM     11  N   UNL     1      -9.399  -0.232  -1.831  0.00  0.00    -0.314 N 
ATOM     12  C   UNL     1     -10.640  -1.003  -1.973  0.00  0.00    +0.106 C 
ATOM     13  C   UNL     1     -10.624  -2.183  -0.999  0.00  0.00    +0.021 C 
ATOM     14  C   UNL     1     -10.491  -1.655   0.432  0.00  0.00    +0.034 C 
ATOM     15  C   UNL     1      -9.216  -0.815   0.542  0.00  0.00    +0.132 C 
ATOM     16  C   UNL     1      -9.273   0.325  -0.478  0.00  0.00    +0.137 C 
ATOM     17  N   UNL     1     -10.491   1.360  -3.137  0.00  0.00    -0.343 N 
ATOM     18  H   UNL     1     -11.388   1.088  -2.718  0.00  0.00    +0.167 HD
ENDROOT
BRANCH  15  19
ATOM     19  O   UNL     1      -9.113  -0.272   1.860  0.00  0.00    -0.390 OA
ATOM     20  H   UNL     1      -8.998  -0.939   2.551  0.00  0.00    +0.210 HD
ENDBRANCH  15  19
BRANCH   7  21
ATOM     21  C   UNL     1      -6.832   0.379  -2.872  0.00  0.00    +0.146 C 
BRANCH  21  22
ATOM     22  N   UNL     1      -5.684   0.830  -3.661  0.00  0.00    -0.293 N 
ATOM     23  C   UNL     1      -5.419   0.257  -4.852  0.00  0.00    +0.254 C 
ATOM     24  O   UNL     1      -4.409   0.559  -5.461  0.00  0.00    -0.269 OA
BRANCH  23  25
ATOM     25  C   UNL     1      -6.346  -0.729  -5.414  0.00  0.00    +0.074 A 
ATOM     26  C   UNL     1      -6.213  -1.502  -6.557  0.00  0.00    +0.021 A 
ATOM     27  C   UNL     1      -7.244  -2.357  -6.857  0.00  0.00    +0.011 A 
ATOM     28  C   UNL     1      -8.326  -2.405  -6.036  0.00  0.00    -0.013 A 
ATOM     29  S   UNL     1      -7.937  -1.253  -4.801  0.00  0.00    -0.089 S 
ATOM     30  C   UNL     1      -9.562  -3.258  -6.166  0.00  0.00    +0.051 C 
ENDBRANCH  23  25
BRANCH  22  31
ATOM     31  C   UNL     1      -4.823   1.903  -3.157  0.00  0.00    +0.110 C 
BRANCH  31  32
ATOM     32  C   UNL     1      -3.764   1.311  -2.225  0.00  0.00    +0.038 C 
BRANCH  32  33
ATOM     33  C   UNL     1      -2.865   2.432  -1.698  0.00  0.00    +0.109 C 
BRANCH  33  34
ATOM     34  N   UNL     1      -1.850   1.865  -0.806  0.00  0.00    -0.301 N 
ATOM     35  C   UNL     1      -2.021   1.698   0.642  0.00  0.00    +0.108 C 
ATOM     36  C   UNL     1      -0.594   1.493   1.206  0.00  0.00    +0.028 C 
ATOM     37  C   UNL     1       0.147   0.921  -0.025  0.00  0.00    +0.097 C 
ATOM     38  C   UNL     1      -0.643   1.432  -1.209  0.00  0.00    +0.216 C 
ATOM     39  O   UNL     1      -0.246   1.448  -2.355  0.00  0.00    -0.276 OA
ENDBRANCH  33  34
ENDBRANCH  32  33
ENDBRANCH  31  32
ENDBRANCH  22  31
ENDBRANCH  21  22
ENDBRANCH   7  21
TORSDOF 8
