REMARK  Name = ZINC36156026
REMARK  12 active torsions:
REMARK  status: ('A' for Active; 'I' for Inactive)
REMARK    1  A    between atoms: C_2  and  C_3
REMARK    2  A    between atoms: C_3  and  C_4
REMARK    3  A    between atoms: C_4  and  C_5
REMARK    4  A    between atoms: C_5  and  C_7
REMARK    5  A    between atoms: C_5  and  O_39
REMARK    6  A    between atoms: C_7  and  N_8
REMARK    7  A    between atoms: N_8  and  C_9
REMARK    8  A    between atoms: N_8  and  C_16
REMARK    9  A    between atoms: C_9  and  C_10
REMARK   10  A    between atoms: C_16  and  C_17
REMARK   11  A    between atoms: N_29  and  C_32
REMARK   12  A    between atoms: C_32  and  C_33
REMARK                            x       y       z     vdW  Elec       q    Type
REMARK                         _______ _______ _______ _____ _____    ______ ____
ROOT
ATOM      1  C   UNL     1      -5.110  -6.433  -3.109  0.00  0.00    +0.094 A 
ATOM      2  N   UNL     1      -5.289  -7.508  -3.918  0.00  0.00    -0.312 N 
ATOM      3  H   UNL     1      -4.599  -7.739  -4.560  0.00  0.00    +0.170 HD
ATOM      4  C   UNL     1      -6.402  -8.261  -3.848  0.00  0.00    +0.260 A 
ATOM      5  O   UNL     1      -6.547  -9.224  -4.581  0.00  0.00    -0.267 OA
ATOM      6  C   UNL     1      -7.416  -7.912  -2.896  0.00  0.00    +0.075 A 
ATOM      7  C   UNL     1      -8.693  -8.572  -2.643  0.00  0.00    -0.020 A 
ATOM      8  C   UNL     1      -9.480  -8.042  -1.681  0.00  0.00    +0.010 A 
ATOM      9  S   UNL     1      -8.575  -6.650  -1.065  0.00  0.00    -0.072 S 
ATOM     10  C   UNL     1      -7.142  -6.785  -2.103  0.00  0.00    +0.116 A 
ATOM     11  N   UNL     1      -6.013  -6.093  -2.228  0.00  0.00    -0.229 NA
ATOM     12  C   UNL     1     -10.825  -8.541  -1.252  0.00  0.00    +0.127 C 
ATOM     13  N   UNL     1     -11.316  -9.483  -2.275  0.00  0.00    -0.293 NA
ATOM     14  C   UNL     1     -10.281 -10.473  -2.607  0.00  0.00    +0.090 C 
ATOM     15  C   UNL     1      -9.157  -9.810  -3.407  0.00  0.00    +0.052 C 
ENDROOT
BRANCH   1  16
ATOM     16  C   UNL     1      -3.846  -5.621  -3.225  0.00  0.00    -0.003 C 
BRANCH  16  17
ATOM     17  N   UNL     1      -3.878  -4.522  -2.250  0.00  0.00    +0.389 N 
ATOM     18  H   UNL     1      -4.719  -3.980  -2.382  0.00  0.00    -0.081 HD
BRANCH  17  19
ATOM     19  C   UNL     1      -2.704  -3.661  -2.443  0.00  0.00    -0.046 C 
BRANCH  19  20
ATOM     20  C   UNL     1      -2.812  -2.439  -1.529  0.00  0.00    +0.098 C 
BRANCH  20  21
ATOM     21  O   UNL     1      -3.969  -1.679  -1.884  0.00  0.00    -0.394 OA
ATOM     22  H   UNL     1      -3.962  -1.355  -2.795  0.00  0.00    +0.210 HD
ENDBRANCH  20  21
BRANCH  20  23
ATOM     23  C   UNL     1      -1.562  -1.571  -1.689  0.00  0.00    +0.033 C 
BRANCH  23  24
ATOM     24  C   UNL     1      -1.612  -0.416  -0.687  0.00  0.00    +0.029 C 
BRANCH  24  26
ATOM     25  C   UNL     1      -0.501   1.726  -1.062  0.00  0.00    +0.004 C 
ATOM     26  C   UNL     1      -0.381   0.439  -0.845  0.00  0.00    -0.034 C 
ENDBRANCH  24  26
ENDBRANCH  23  24
ENDBRANCH  20  23
ENDBRANCH  19  20
ENDBRANCH  17  19
BRANCH  17  27
ATOM     27  C   UNL     1      -3.862  -5.075  -0.889  0.00  0.00    -0.042 C 
BRANCH  27  28
ATOM     28  C   UNL     1      -2.586  -5.848  -0.676  0.00  0.00    -0.064 A 
ATOM     29  C   UNL     1      -2.530  -7.191  -0.999  0.00  0.00    +0.002 A 
ATOM     30  C   UNL     1      -1.360  -7.901  -0.803  0.00  0.00    +0.000 A 
ATOM     31  C   UNL     1      -0.246  -7.267  -0.286  0.00  0.00    +0.000 A 
ATOM     32  C   UNL     1      -0.301  -5.924   0.035  0.00  0.00    +0.000 A 
ATOM     33  C   UNL     1      -1.470  -5.213  -0.164  0.00  0.00    +0.002 A 
ENDBRANCH  27  28
ENDBRANCH  17  27
ENDBRANCH  16  17
ENDBRANCH   1  16
BRANCH  13  34
ATOM     34  C   UNL     1     -12.553 -10.142  -1.834  0.00  0.00    +0.120 C 
BRANCH  34  35
ATOM     35  C   UNL     1     -13.656  -9.121  -1.728  0.00  0.00    -0.033 A 
ATOM     36  C   UNL     1     -13.860  -8.445  -0.540  0.00  0.00    +0.005 A 
ATOM     37  C   UNL     1     -14.871  -7.508  -0.443  0.00  0.00    +0.000 A 
ATOM     38  C   UNL     1     -15.679  -7.247  -1.534  0.00  0.00    +0.000 A 
ATOM     39  C   UNL     1     -15.475  -7.923  -2.723  0.00  0.00    +0.000 A 
ATOM     40  C   UNL     1     -14.460  -8.856  -2.821  0.00  0.00    +0.005 A 
ENDBRANCH  34  35
ENDBRANCH  13  34
TORSDOF 12
