REMARK  Name = ZINC39633540
REMARK  6 active torsions:
REMARK  status: ('A' for Active; 'I' for Inactive)
REMARK    1  A    between atoms: C_1  and  C_2
REMARK    2  A    between atoms: C_2  and  O_3
REMARK    3  A    between atoms: O_3  and  C_4
REMARK    4  A    between atoms: C_9  and  C_10
REMARK    5  A    between atoms: C_14  and  C_23
REMARK    6  A    between atoms: N_25  and  C_26
REMARK                            x       y       z     vdW  Elec       q    Type
REMARK                         _______ _______ _______ _____ _____    ______ ____
ROOT
ATOM      1  C   UNL     1      -4.136  -1.282   0.133  0.00  0.00    +0.250 C 
ATOM      2  O   UNL     1      -4.104  -0.073   0.253  0.00  0.00    -0.270 OA
ATOM      3  N   UNL     1      -5.319  -1.915   0.003  0.00  0.00    -0.296 N 
ATOM      4  C   UNL     1      -5.567  -3.375  -0.046  0.00  0.00    +0.121 C 
ATOM      5  C   UNL     1      -6.862  -3.579   0.772  0.00  0.00    +0.100 C 
ATOM      6  C   UNL     1      -7.579  -2.219   0.718  0.00  0.00    -0.004 C 
ATOM      7  C   UNL     1      -6.666  -1.307  -0.115  0.00  0.00    +0.115 C 
ATOM      8  C   UNL     1      -7.741  -1.651   2.124  0.00  0.00    -0.010 C 
ATOM      9  C   UNL     1      -8.507  -0.327   2.049  0.00  0.00    -0.082 C 
ATOM     10  N   UNL     1      -9.822  -0.554   1.436  0.00  0.00    +0.379 N 
ATOM     11  C   UNL     1      -9.656  -1.013   0.052  0.00  0.00    -0.082 C 
ATOM     12  C   UNL     1      -8.939  -2.365   0.043  0.00  0.00    -0.010 C 
ATOM     13  H   UNL     1     -10.320  -1.254   1.964  0.00  0.00    -0.086 HD
ATOM     14  H   UNL     1     -10.348   0.307   1.443  0.00  0.00    -0.086 HD
ENDROOT
BRANCH   1  20
ATOM     15  C   UNL     1      -1.793  -1.642   0.909  0.00  0.00    +0.133 A 
ATOM     16  C   UNL     1      -0.620  -2.381   0.901  0.00  0.00    +0.046 A 
ATOM     17  C   UNL     1      -0.523  -3.517   0.123  0.00  0.00    +0.004 A 
ATOM     18  C   UNL     1      -1.593  -3.928  -0.655  0.00  0.00    +0.001 A 
ATOM     19  C   UNL     1      -2.767  -3.205  -0.659  0.00  0.00    +0.017 A 
ATOM     20  C   UNL     1      -2.881  -2.057   0.128  0.00  0.00    +0.078 A 
BRANCH  15  21
ATOM     21  O   UNL     1      -1.890  -0.525   1.673  0.00  0.00    -0.491 OA
BRANCH  21  23
ATOM     22  C   UNL     1      -1.038   1.112   3.233  0.00  0.00    +0.048 C 
ATOM     23  C   UNL     1      -0.741  -0.164   2.442  0.00  0.00    +0.226 C 
ENDBRANCH  21  23
ENDBRANCH  15  21
ENDBRANCH   1  20
BRANCH   5  24
ATOM     24  C   UNL     1      -6.530  -3.943   2.196  0.00  0.00    +0.218 C 
ATOM     25  O   UNL     1      -5.508  -3.534   2.704  0.00  0.00    -0.275 OA
ATOM     26  N   UNL     1      -7.370  -4.723   2.905  0.00  0.00    -0.312 N 
ATOM     27  H   UNL     1      -8.188  -5.050   2.499  0.00  0.00    +0.149 HD
BRANCH  26  28
ATOM     28  C   UNL     1      -7.048  -5.077   4.290  0.00  0.00    +0.073 C 
ATOM     29  C   UNL     1      -6.068  -6.268   4.286  0.00  0.00    +0.022 C 
ATOM     30  C   UNL     1      -5.353  -6.303   5.610  0.00  0.00    +0.002 C 
ATOM     31  C   UNL     1      -6.038  -7.240   6.624  0.00  0.00    +0.000 C 
ATOM     32  C   UNL     1      -7.574  -7.123   6.602  0.00  0.00    +0.000 C 
ATOM     33  C   UNL     1      -8.042  -5.697   6.489  0.00  0.00    +0.002 C 
ATOM     34  C   UNL     1      -8.283  -5.377   5.000  0.00  0.00    +0.022 C 
ENDBRANCH  26  28
ENDBRANCH   5  24
TORSDOF 5
