REMARK  Name = ZINC39000812
REMARK  8 active torsions:
REMARK  status: ('A' for Active; 'I' for Inactive)
REMARK    1  A    between atoms: C_1  and  C_2
REMARK    2  A    between atoms: N_4  and  C_5
REMARK    3  A    between atoms: C_8  and  N_11
REMARK    4  A    between atoms: C_12  and  C_14
REMARK    5  A    between atoms: C_14  and  S_15
REMARK    6  A    between atoms: S_15  and  C_16
REMARK    7  A    between atoms: C_19  and  C_23
REMARK    8  A    between atoms: N_21  and  N_22
REMARK                            x       y       z     vdW  Elec       q    Type
REMARK                         _______ _______ _______ _____ _____    ______ ____
ROOT
ATOM      1  S   UNL     1      -3.323  -9.257  -0.183  0.00  0.00    -0.078 S 
ENDROOT
BRANCH   1   2
ATOM      2  C   UNL     1      -3.002 -10.989  -0.249  0.00  0.00    +0.189 C 
ATOM      3  N   UNL     1      -1.823 -11.508  -0.179  0.00  0.00    -0.161 NA
ATOM      4  N   UNL     1      -1.873 -12.905  -0.257  0.00  0.00    -0.243 N 
ATOM      5  C   UNL     1      -3.297 -13.258  -0.394  0.00  0.00    +0.222 C 
ATOM      6  N   UNL     1      -3.987 -11.957  -0.376  0.00  0.00    -0.223 N 
ATOM      7  H   UNL     1      -1.122 -13.518  -0.228  0.00  0.00    +0.170 HD
BRANCH   5   8
ATOM      8  C   UNL     1      -3.546 -13.988  -1.715  0.00  0.00    +0.197 C 
ATOM      9  C   UNL     1      -2.807 -15.311  -1.744  0.00  0.00    -0.017 C 
ATOM     10  C   UNL     1      -1.958 -15.203  -2.765  0.00  0.00    +0.065 C 
ATOM     11  C   UNL     1      -1.151 -16.482  -2.900  0.00  0.00    +0.057 C 
ATOM     12  C   UNL     1      -1.330 -17.215  -1.553  0.00  0.00    +0.011 C 
ATOM     13  C   UNL     1      -2.684 -16.651  -1.067  0.00  0.00    +0.035 C 
ATOM     14  N   UNL     1      -2.093 -13.983  -3.352  0.00  0.00    -0.158 NA
ATOM     15  N   UNL     1      -2.946 -13.250  -2.840  0.00  0.00    -0.176 NA
ENDBRANCH   5   8
BRANCH   6  16
ATOM     16  N   UNL     1      -5.333 -11.745  -0.469  0.00  0.00    -0.250 NA
ATOM     17  H   UNL     1      -5.548 -10.760  -0.435  0.00  0.00    +0.141 HD
ATOM     18  H   UNL     1      -5.709 -12.168  -1.305  0.00  0.00    +0.141 HD
ENDBRANCH   6  16
ENDBRANCH   1   2
BRANCH   1  19
ATOM     19  C   UNL     1      -1.678  -8.512  -0.017  0.00  0.00    +0.173 C 
BRANCH  19  21
ATOM     20  N   UNL     1      -0.710  -6.244   0.177  0.00  0.00    -0.285 N 
ATOM     21  C   UNL     1      -1.810  -7.012   0.052  0.00  0.00    +0.227 C 
ATOM     22  O   UNL     1      -2.906  -6.497  -0.006  0.00  0.00    -0.275 OA
ATOM     23  H   UNL     1       0.160  -6.657   0.291  0.00  0.00    +0.155 HD
BRANCH  20  27
ATOM     24  C   UNL     1      -1.047  -2.089   0.076  0.00  0.00    +0.033 A 
ATOM     25  C   UNL     1       0.068  -2.709  -0.474  0.00  0.00    +0.025 A 
ATOM     26  C   UNL     1       0.179  -4.084  -0.440  0.00  0.00    +0.025 A 
ATOM     27  C   UNL     1      -0.823  -4.848   0.143  0.00  0.00    +0.034 A 
ATOM     28  C   UNL     1      -1.938  -4.228   0.693  0.00  0.00    +0.025 A 
ATOM     29  C   UNL     1      -2.047  -2.853   0.664  0.00  0.00    +0.025 A 
BRANCH  24  33
ATOM     30  C   UNL     1      -1.766   1.468   1.081  0.00  0.00    +0.109 C 
ATOM     31  C   UNL     1      -1.737  -0.038   1.069  0.00  0.00    +0.214 C 
ATOM     32  O   UNL     1      -2.232  -0.662   1.984  0.00  0.00    -0.276 OA
ATOM     33  N   UNL     1      -1.161  -0.693   0.042  0.00  0.00    -0.286 N 
ATOM     34  H   UNL     1      -0.824  -0.198  -0.722  0.00  0.00    +0.155 HD
ENDBRANCH  24  33
ENDBRANCH  20  27
ENDBRANCH  19  21
ENDBRANCH   1  19
TORSDOF 7
