REMARK  Name = ZINC12864877
REMARK  10 active torsions:
REMARK  status: ('A' for Active; 'I' for Inactive)
REMARK    1  A    between atoms: C_1  and  C_2
REMARK    2  A    between atoms: C_2  and  C_3
REMARK    3  A    between atoms: C_3  and  C_4
REMARK    4  A    between atoms: C_4  and  C_5
REMARK    5  A    between atoms: C_5  and  C_30
REMARK    6  A    between atoms: N_8  and  C_12
REMARK    7  A    between atoms: C_12  and  C_13
REMARK    8  A    between atoms: N_15  and  C_16
REMARK    9  A    between atoms: N_15  and  C_22
REMARK   10  A    between atoms: C_16  and  C_17
REMARK                            x       y       z     vdW  Elec       q    Type
REMARK                         _______ _______ _______ _____ _____    ______ ____
ROOT
ATOM      1  C   UNL     1      -6.123   0.257   4.040  0.00  0.00    +0.138 C 
ATOM      2  C   UNL     1      -5.489   1.419   3.302  0.00  0.00    +0.251 C 
ATOM      3  O   UNL     1      -6.040   2.204   2.561  0.00  0.00    -0.272 OA
ATOM      4  N   UNL     1      -4.185   1.398   3.641  0.00  0.00    -0.215 N 
ATOM      5  C   UNL     1      -3.911   0.398   4.487  0.00  0.00    +0.310 C 
ATOM      6  O   UNL     1      -2.804   0.178   4.937  0.00  0.00    -0.252 OA
ATOM      7  N   UNL     1      -4.998  -0.336   4.784  0.00  0.00    -0.281 N 
ATOM      8  H   UNL     1      -5.035  -1.106   5.373  0.00  0.00    +0.152 HD
ENDROOT
BRANCH   1   9
ATOM      9  C   UNL     1      -6.704  -0.742   3.072  0.00  0.00    -0.015 A 
ATOM     10  C   UNL     1      -8.043  -0.679   2.735  0.00  0.00    +0.006 A 
ATOM     11  C   UNL     1      -8.574  -1.592   1.843  0.00  0.00    +0.000 A 
ATOM     12  C   UNL     1      -7.769  -2.574   1.296  0.00  0.00    +0.000 A 
ATOM     13  C   UNL     1      -6.431  -2.639   1.637  0.00  0.00    +0.000 A 
ATOM     14  C   UNL     1      -5.898  -1.723   2.525  0.00  0.00    +0.006 A 
ENDBRANCH   1   9
BRANCH   1  15
ATOM     15  C   UNL     1      -7.200   0.759   5.003  0.00  0.00    +0.040 C 
BRANCH  15  16
ATOM     16  C   UNL     1      -6.598   1.809   5.939  0.00  0.00    +0.003 C 
BRANCH  16  18
ATOM     17  C   UNL     1      -7.073   3.361   7.838  0.00  0.00    +0.004 C 
ATOM     18  C   UNL     1      -7.675   2.312   6.902  0.00  0.00    -0.003 C 
ENDBRANCH  16  18
ENDBRANCH  15  16
ENDBRANCH   1  15
BRANCH   4  19
ATOM     19  C   UNL     1      -3.191   2.355   3.148  0.00  0.00    +0.213 C 
BRANCH  19  20
ATOM     20  C   UNL     1      -2.572   1.828   1.879  0.00  0.00    +0.234 C 
ATOM     21  O   UNL     1      -2.939   0.767   1.421  0.00  0.00    -0.274 OA
ATOM     22  N   UNL     1      -1.612   2.536   1.253  0.00  0.00    -0.288 N 
BRANCH  22  23
ATOM     23  C   UNL     1      -1.094   3.765   1.860  0.00  0.00    +0.099 C 
ATOM     24  C   UNL     1       0.436   3.670   1.981  0.00  0.00    +0.047 C 
ATOM     25  C   UNL     1       0.983   5.083   2.329  0.00  0.00    +0.168 C 
ATOM     26  S   UNL     1      -0.069   6.129   1.237  0.00  0.00    -0.029 S 
ATOM     27  O   UNL     1       0.602   6.327  -0.000  0.00  0.00    -0.174 OA
ATOM     28  O   UNL     1      -0.524   7.255   1.974  0.00  0.00    -0.174 OA
ATOM     29  C   UNL     1      -1.478   4.976   0.975  0.00  0.00    +0.188 C 
ENDBRANCH  22  23
BRANCH  22  30
ATOM     30  C   UNL     1      -1.085   2.077  -0.035  0.00  0.00    +0.182 C 
BRANCH  30  31
ATOM     31  C   UNL     1       0.092   1.166   0.200  0.00  0.00    +0.122 A 
ATOM     32  C   UNL     1       0.035  -0.169   0.354  0.00  0.00    +0.046 A 
ATOM     33  C   UNL     1       1.363  -0.616   0.543  0.00  0.00    +0.041 A 
ATOM     34  C   UNL     1       2.152   0.472   0.493  0.00  0.00    +0.195 A 
ATOM     35  O   UNL     1       1.377   1.549   0.285  0.00  0.00    -0.466 OA
ENDBRANCH  30  31
ENDBRANCH  22  30
ENDBRANCH  19  20
ENDBRANCH   4  19
TORSDOF 9
