REMARK  Name = ZINC63486261
REMARK  9 active torsions:
REMARK  status: ('A' for Active; 'I' for Inactive)
REMARK    1  A    between atoms: C_1  and  C_2
REMARK    2  A    between atoms: C_13  and  C_15
REMARK    3  A    between atoms: C_15  and  C_16
REMARK    4  A    between atoms: C_16  and  C_17
REMARK    5  A    between atoms: N_19  and  C_20
REMARK    6  A    between atoms: C_20  and  C_21
REMARK    7  A    between atoms: C_21  and  C_22
REMARK    8  A    between atoms: C_25  and  O_31
REMARK    9  A    between atoms: O_31  and  C_32
REMARK                            x       y       z     vdW  Elec       q    Type
REMARK                         _______ _______ _______ _____ _____    ______ ____
ROOT
ATOM      1  C   UNL     1       2.021   0.300   1.455  0.00  0.00    +0.024 C 
ENDROOT
BRANCH   1  13
ATOM      2  C   UNL     1      -0.019   1.526   0.010  0.00  0.00    +0.013 C 
ATOM      3  C   UNL     1       0.002  -0.004   0.002  0.00  0.00    +0.033 C 
ATOM      4  C   UNL     1       0.705  -0.489  -1.242  0.00  0.00    -0.001 A 
ATOM      5  C   UNL     1       0.467   0.174  -2.418  0.00  0.00    +0.019 A 
ATOM      6  C   UNL     1       1.086  -0.239  -3.595  0.00  0.00    +0.024 A 
ATOM      7  C   UNL     1       1.962  -1.341  -3.579  0.00  0.00    +0.139 A 
ATOM      8  C   UNL     1       2.193  -2.001  -2.382  0.00  0.00    +0.093 A 
ATOM      9  C   UNL     1       1.569  -1.575  -1.218  0.00  0.00    +0.139 A 
ATOM     10  O   UNL     1       1.841  -2.248  -0.065  0.00  0.00    -0.425 OA
ATOM     11  C   UNL     1       1.083  -1.967   1.014  0.00  0.00    +0.316 C 
ATOM     12  O   UNL     1       0.698  -2.836   1.760  0.00  0.00    -0.250 OA
ATOM     13  C   UNL     1       0.740  -0.510   1.245  0.00  0.00    +0.106 C 
ATOM     14  O   UNL     1       2.412  -1.516  -4.839  0.00  0.00    -0.459 OA
ATOM     15  C   UNL     1       1.882  -0.603  -5.670  0.00  0.00    +0.109 A 
ATOM     16  C   UNL     1       1.064   0.213  -4.985  0.00  0.00    +0.001 A 
ATOM     17  C   UNL     1       0.292   1.360  -5.581  0.00  0.00    +0.039 C 
ATOM     18  C   UNL     1       0.889   1.685  -6.956  0.00  0.00    +0.005 C 
ATOM     19  C   UNL     1       1.030   0.392  -7.765  0.00  0.00    +0.008 C 
ATOM     20  C   UNL     1       2.136  -0.475  -7.155  0.00  0.00    +0.075 C 
ENDBRANCH   1  13
BRANCH   1  21
ATOM     21  C   UNL     1       2.686  -0.126   2.765  0.00  0.00    +0.096 C 
BRANCH  21  22
ATOM     22  C   UNL     1       3.947   0.671   2.971  0.00  0.00    +0.213 C 
ATOM     23  O   UNL     1       4.282   1.500   2.151  0.00  0.00    -0.276 OA
ATOM     24  N   UNL     1       4.704   0.465   4.066  0.00  0.00    -0.315 N 
ATOM     25  H   UNL     1       4.437  -0.198   4.723  0.00  0.00    +0.149 HD
BRANCH  24  26
ATOM     26  C   UNL     1       5.931   1.240   4.267  0.00  0.00    +0.108 C 
BRANCH  26  27
ATOM     27  C   UNL     1       6.596   0.814   5.577  0.00  0.00    +0.052 C 
BRANCH  27  28
ATOM     28  C   UNL     1       7.857   1.611   5.783  0.00  0.00    -0.040 C 
ATOM     29  C   UNL     1       7.994   2.744   6.509  0.00  0.00    +0.002 A 
ATOM     30  C   UNL     1       7.046   3.543   7.294  0.00  0.00    +0.055 A 
ATOM     31  C   UNL     1       7.480   4.658   7.929  0.00  0.00    +0.121 A 
ATOM     32  C   UNL     1       8.818   5.086   7.866  0.00  0.00    +0.047 A 
ATOM     33  C   UNL     1       9.762   4.418   7.169  0.00  0.00    +0.029 A 
ATOM     34  C   UNL     1       9.403   3.195   6.443  0.00  0.00    +0.043 A 
ATOM     35  N   UNL     1      10.109   2.375   5.706  0.00  0.00    -0.380 N 
ATOM     36  C   UNL     1       9.229   1.304   5.225  0.00  0.00    +0.144 C 
ATOM     37  H   UNL     1      11.056   2.459   5.514  0.00  0.00    +0.160 HD
BRANCH  31  38
ATOM     38  O   UNL     1       6.591   5.389   8.652  0.00  0.00    -0.495 OA
ATOM     39  C   UNL     1       7.091   6.557   9.306  0.00  0.00    +0.277 C 
ENDBRANCH  31  38
ENDBRANCH  27  28
ENDBRANCH  26  27
ENDBRANCH  24  26
ENDBRANCH  21  22
ENDBRANCH   1  21
TORSDOF 7
