REMARK  Name = ZINC40019043
REMARK  16 active torsions:
REMARK  status: ('A' for Active; 'I' for Inactive)
REMARK    1  A    between atoms: C_1  and  C_2
REMARK    2  A    between atoms: C_2  and  C_3
REMARK    3  A    between atoms: C_3  and  C_4
REMARK    4  A    between atoms: C_4  and  N_5
REMARK    5  A    between atoms: N_5  and  C_6
REMARK    6  A    between atoms: N_5  and  C_10
REMARK    7  A    between atoms: C_6  and  C_7
REMARK    8  A    between atoms: C_7  and  C_8
REMARK    9  A    between atoms: C_8  and  C_9
REMARK   10  A    between atoms: C_10  and  C_11
REMARK   11  A    between atoms: C_11  and  C_12
REMARK   12  A    between atoms: C_12  and  N_13
REMARK   13  A    between atoms: C_14  and  C_29
REMARK   14  A    between atoms: C_16  and  C_21
REMARK   15  A    between atoms: C_21  and  C_23
REMARK   16  A    between atoms: C_26  and  C_28
REMARK                            x       y       z     vdW  Elec       q    Type
REMARK                         _______ _______ _______ _____ _____    ______ ____
ROOT
ATOM      1  N   UNL     1      -5.190  -5.210   0.851  0.00  0.00    -0.284 N 
ATOM      2  C   UNL     1      -6.389  -5.362   1.684  0.00  0.00    +0.146 C 
ATOM      3  C   UNL     1      -7.411  -6.069   0.825  0.00  0.00    +0.079 C 
ATOM      4  C   UNL     1      -6.828  -6.287  -0.376  0.00  0.00    +0.249 C 
ATOM      5  C   UNL     1      -5.454  -5.747  -0.354  0.00  0.00    +0.288 C 
ATOM      6  O   UNL     1      -4.675  -5.784  -1.286  0.00  0.00    -0.266 OA
ATOM      7  O   UNL     1      -7.413  -6.899  -1.433  0.00  0.00    -0.282 OA
ENDROOT
BRANCH   2   8
ATOM      8  C   UNL     1      -6.072  -6.191   2.902  0.00  0.00    -0.008 A 
ATOM      9  C   UNL     1      -5.062  -7.134   2.853  0.00  0.00    +0.007 A 
ATOM     10  C   UNL     1      -4.771  -7.894   3.970  0.00  0.00    +0.000 A 
ATOM     11  C   UNL     1      -5.490  -7.711   5.137  0.00  0.00    +0.001 A 
ATOM     12  C   UNL     1      -6.499  -6.769   5.187  0.00  0.00    +0.015 A 
ATOM     13  C   UNL     1      -6.788  -6.005   4.071  0.00  0.00    +0.023 A 
ATOM     14 BR   UNL     1      -8.165  -4.710   4.140  0.00  0.00    -0.050 Br
ENDBRANCH   2   8
BRANCH   3  15
ATOM     15  C   UNL     1      -8.774  -6.446   1.217  0.00  0.00    +0.230 C 
ATOM     16  O   UNL     1      -8.954  -7.401   1.951  0.00  0.00    -0.283 OA
BRANCH  15  17
ATOM     17  C   UNL     1      -9.919  -5.673   0.725  0.00  0.00    +0.175 A 
ATOM     18  C   UNL     1     -11.236  -5.853   1.089  0.00  0.00    +0.053 A 
ATOM     19  C   UNL     1     -11.980  -4.900   0.379  0.00  0.00    +0.045 A 
ATOM     20  C   UNL     1     -11.107  -4.192  -0.374  0.00  0.00    +0.103 A 
ATOM     21  O   UNL     1      -9.870  -4.656  -0.160  0.00  0.00    -0.457 OA
ATOM     22  C   UNL     1     -11.469  -3.060  -1.301  0.00  0.00    +0.086 C 
ENDBRANCH  15  17
ENDBRANCH   3  15
BRANCH   1  23
ATOM     23  C   UNL     1      -3.932  -4.579   1.258  0.00  0.00    +0.107 C 
BRANCH  23  24
ATOM     24  C   UNL     1      -3.984  -3.084   0.937  0.00  0.00    +0.000 C 
BRANCH  24  25
ATOM     25  C   UNL     1      -2.670  -2.426   1.362  0.00  0.00    -0.077 C 
BRANCH  25  26
ATOM     26  N   UNL     1      -2.673  -1.016   0.950  0.00  0.00    +0.380 N 
ATOM     27  H   UNL     1      -2.859  -0.955  -0.040  0.00  0.00    -0.082 HD
BRANCH  26  28
ATOM     28  C   UNL     1      -3.715  -0.292   1.690  0.00  0.00    -0.079 C 
BRANCH  28  29
ATOM     29  C   UNL     1      -3.803   1.145   1.173  0.00  0.00    -0.019 C 
BRANCH  29  31
ATOM     30  C   UNL     1      -4.976   3.337   1.426  0.00  0.00    +0.004 C 
ATOM     31  C   UNL     1      -4.889   1.899   1.943  0.00  0.00    -0.005 C 
ENDBRANCH  29  31
ENDBRANCH  28  29
ENDBRANCH  26  28
BRANCH  26  32
ATOM     32  C   UNL     1      -1.362  -0.418   1.240  0.00  0.00    -0.079 C 
BRANCH  32  33
ATOM     33  C   UNL     1      -0.296  -1.077   0.362  0.00  0.00    -0.019 C 
BRANCH  33  34
ATOM     34  C   UNL     1       1.078  -0.503   0.712  0.00  0.00    -0.005 C 
ATOM     35  C   UNL     1       2.144  -1.162  -0.166  0.00  0.00    +0.004 C 
ENDBRANCH  33  34
ENDBRANCH  32  33
ENDBRANCH  26  32
ENDBRANCH  25  26
ENDBRANCH  24  25
ENDBRANCH  23  24
ENDBRANCH   1  23
TORSDOF 13
