REMARK  Name = ZINC40812917
REMARK  4 active torsions:
REMARK  status: ('A' for Active; 'I' for Inactive)
REMARK    1  A    between atoms: C_1  and  C_2
REMARK    2  A    between atoms: C_6  and  C_7
REMARK    3  A    between atoms: N_19  and  N_20
REMARK    4  A    between atoms: C_21  and  C_23
REMARK                            x       y       z     vdW  Elec       q    Type
REMARK                         _______ _______ _______ _____ _____    ______ ____
ROOT
ATOM      1  C   UNL     1      -0.018   1.503   0.010  0.00  0.00    +0.048 C 
ATOM      2  C   UNL     1       0.002  -0.004   0.002  0.00  0.00    +0.009 A 
ATOM      3  C   UNL     1       0.009  -0.838  -1.123  0.00  0.00    +0.042 A 
ATOM      4  C   UNL     1       0.027  -2.138  -0.672  0.00  0.00    +0.115 A 
ATOM      5  O   UNL     1       0.035  -2.112   0.658  0.00  0.00    -0.454 OA
ATOM      6  C   UNL     1       0.024  -0.831   1.091  0.00  0.00    +0.193 A 
ATOM      7  C   UNL     1       0.034  -3.327  -1.599  0.00  0.00    +0.075 C 
ATOM      8  C   UNL     1      -0.491  -2.903  -2.974  0.00  0.00    +0.014 C 
ATOM      9  C   UNL     1       0.279  -1.685  -3.494  0.00  0.00    +0.058 C 
ATOM     10  C   UNL     1       0.000  -0.512  -2.566  0.00  0.00    +0.070 C 
ATOM     11  N   UNL     1      -0.228   0.686  -3.007  0.00  0.00    -0.184 NA
ENDROOT
BRANCH   6  12
ATOM     12  C   UNL     1       0.032  -0.400   2.493  0.00  0.00    +0.285 C 
ATOM     13  O   UNL     1       0.018   0.786   2.765  0.00  0.00    -0.266 OA
ATOM     14  N   UNL     1       0.054  -1.318   3.480  0.00  0.00    -0.258 N 
ATOM     15  C   UNL     1       0.061  -0.910   4.807  0.00  0.00    +0.165 A 
ATOM     16  N   UNL     1       0.043   0.315   5.286  0.00  0.00    -0.233 NA
ATOM     17  C   UNL     1       0.053   0.539   6.588  0.00  0.00    +0.120 A 
ATOM     18  C   UNL     1       0.083  -0.546   7.399  0.00  0.00    +0.068 A 
ATOM     19  S   UNL     1       0.088  -1.863   6.194  0.00  0.00    -0.061 S 
ATOM     20  H   UNL     1       0.065  -2.263   3.263  0.00  0.00    +0.157 HD
ENDBRANCH   6  12
BRANCH  11  21
ATOM     21  N   UNL     1      -0.224   0.938  -4.386  0.00  0.00    -0.203 N 
ATOM     22  C   UNL     1      -0.461   2.183  -4.845  0.00  0.00    +0.264 C 
ATOM     23  O   UNL     1      -0.679   3.088  -4.062  0.00  0.00    -0.268 OA
ATOM     24  H   UNL     1      -0.050   0.216  -5.010  0.00  0.00    +0.178 HD
BRANCH  22  25
ATOM     25  C   UNL     1      -0.456   2.448  -6.298  0.00  0.00    +0.052 A 
ATOM     26  C   UNL     1      -0.212   1.410  -7.199  0.00  0.00    +0.014 A 
ATOM     27  C   UNL     1      -0.209   1.664  -8.555  0.00  0.00    +0.001 A 
ATOM     28  C   UNL     1      -0.447   2.945  -9.023  0.00  0.00    +0.001 A 
ATOM     29  C   UNL     1      -0.689   3.978  -8.137  0.00  0.00    +0.016 A 
ATOM     30  C   UNL     1      -0.702   3.737  -6.777  0.00  0.00    +0.030 A 
ATOM     31 BR   UNL     1      -1.041   5.149  -5.566  0.00  0.00    -0.050 Br
ENDBRANCH  22  25
ENDBRANCH  11  21
TORSDOF 3
