REMARK  Name = ZINC09405590
REMARK  11 active torsions:
REMARK  status: ('A' for Active; 'I' for Inactive)
REMARK    1  A    between atoms: C_1  and  C_2
REMARK    2  A    between atoms: C_2  and  C_3
REMARK    3  A    between atoms: C_3  and  C_5
REMARK    4  A    between atoms: C_3  and  N_60
REMARK    5  A    between atoms: C_6  and  C_7
REMARK    6  A    between atoms: C_6  and  N_60
REMARK    7  A    between atoms: C_7  and  N_8
REMARK    8  A    between atoms: C_9  and  C_11
REMARK    9  A    between atoms: N_14  and  C_16
REMARK   10  A    between atoms: C_27  and  C_28
REMARK   11  A    between atoms: C_27  and  N_60
REMARK                            x       y       z     vdW  Elec       q    Type
REMARK                         _______ _______ _______ _____ _____    ______ ____
ROOT
ATOM      1  N   UNL     1      -0.003  -0.026   2.490  0.00  0.00    -0.312 N 
ATOM      2  C   UNL     1      -0.589  -0.012   3.704  0.00  0.00    +0.264 C 
ATOM      3  O   UNL     1      -1.699   0.465   3.837  0.00  0.00    -0.268 OA
ATOM      4  H   UNL     1       0.883  -0.406   2.384  0.00  0.00    +0.149 HD
ENDROOT
BRANCH   2   5
ATOM      5  C   UNL     1       0.118  -0.575   4.872  0.00  0.00    +0.152 A 
ATOM      6  C   UNL     1      -0.357  -0.626   6.191  0.00  0.00    +0.032 A 
ATOM      7  C   UNL     1       0.621  -1.241   6.922  0.00  0.00    +0.076 A 
ATOM      8  N   UNL     1       1.637  -1.510   6.061  0.00  0.00    -0.266 N 
ATOM      9  N   UNL     1       1.322  -1.121   4.875  0.00  0.00    -0.166 NA
ATOM     10  C   UNL     1       2.905  -2.146   6.429  0.00  0.00    +0.173 C 
ATOM     11  C   UNL     1       0.552  -1.508   8.373  0.00  0.00    +0.025 A 
ATOM     12  C   UNL     1       1.710  -1.800   9.092  0.00  0.00    +0.012 A 
ATOM     13  C   UNL     1       1.636  -2.030  10.451  0.00  0.00    +0.001 A 
ATOM     14  C   UNL     1       0.414  -1.976  11.099  0.00  0.00    +0.002 A 
ATOM     15  C   UNL     1      -0.741  -1.709  10.387  0.00  0.00    +0.027 A 
ATOM     16  C   UNL     1      -0.681  -1.490   9.026  0.00  0.00    +0.098 A 
ATOM     17  S   UNL     1      -2.164  -1.216   8.112  0.00  0.00    +0.002 S 
ATOM     18  O   UNL     1      -2.525  -2.497   7.611  0.00  0.00    -0.169 OA
ATOM     19  O   UNL     1      -3.020  -0.520   9.007  0.00  0.00    -0.169 OA
ATOM     20  C   UNL     1      -1.665  -0.126   6.744  0.00  0.00    +0.211 C 
ENDBRANCH   2   5
BRANCH   1  21
ATOM     21  C   UNL     1      -0.704   0.532   1.332  0.00  0.00    +0.086 C 
BRANCH  21  22
ATOM     22  C   UNL     1       0.174   0.391   0.087  0.00  0.00    -0.059 C 
BRANCH  22  23
ATOM     23  N   UNL     1      -0.616   0.785  -1.099  0.00  0.00    +0.387 N 
ATOM     24  H   UNL     1      -1.537   0.335  -1.050  0.00  0.00    -0.081 HD
BRANCH  23  25
ATOM     25  C   UNL     1      -0.797   2.251  -1.121  0.00  0.00    -0.071 C 
ATOM     26  C   UNL     1      -2.091   2.592  -0.378  0.00  0.00    -0.013 C 
BRANCH  25  28
ATOM     27  C   UNL     1       1.654   2.715  -1.254  0.00  0.00    +0.002 C 
ATOM     28  C   UNL     1       0.382   2.945  -0.435  0.00  0.00    -0.019 C 
ENDBRANCH  25  28
ENDBRANCH  23  25
BRANCH  23  29
ATOM     29  C   UNL     1       0.070   0.342  -2.331  0.00  0.00    -0.003 C 
BRANCH  29  30
ATOM     30  C   UNL     1      -0.905   0.414  -3.479  0.00  0.00    +0.089 A 
ATOM     31  C   UNL     1      -1.021   1.432  -4.350  0.00  0.00    +0.042 A 
ATOM     32  C   UNL     1      -2.050   1.083  -5.254  0.00  0.00    +0.041 A 
ATOM     33  C   UNL     1      -2.502  -0.128  -4.881  0.00  0.00    +0.195 A 
ATOM     34  O   UNL     1      -1.800  -0.531  -3.809  0.00  0.00    -0.470 OA
ENDBRANCH  29  30
ENDBRANCH  23  29
ENDBRANCH  22  23
ENDBRANCH  21  22
ENDBRANCH   1  21
TORSDOF 8
