REMARK  Name = ZINC04010590
REMARK  3 active torsions:
REMARK  status: ('A' for Active; 'I' for Inactive)
REMARK    1  A    between atoms: C_3  and  C_10
REMARK    2  A    between atoms: C_5  and  N_7
REMARK    3  A    between atoms: N_12  and  C_13
REMARK                            x       y       z     vdW  Elec       q    Type
REMARK                         _______ _______ _______ _____ _____    ______ ____
ROOT
ATOM      1  C   UNL     1       3.657   2.160  -0.022  0.00  0.00    +0.245 C 
ATOM      2  O   UNL     1       4.716   1.564  -0.035  0.00  0.00    -0.270 OA
ATOM      3  N   UNL     1       3.642   3.508  -0.015  0.00  0.00    -0.306 N 
ATOM      4  H   UNL     1       2.797   3.984  -0.004  0.00  0.00    +0.150 HD
ENDROOT
BRANCH   3   5
ATOM      5  C   UNL     1       4.903   4.254  -0.023  0.00  0.00    +0.036 C 
ATOM      6  C   UNL     1       5.697   3.900  -1.282  0.00  0.00    +0.029 C 
ATOM      7  C   UNL     1       7.013   4.679  -1.291  0.00  0.00    -0.008 C 
ATOM      8  C   UNL     1       6.717   6.181  -1.281  0.00  0.00    +0.007 C 
ATOM      9  C   UNL     1       5.923   6.535  -0.022  0.00  0.00    -0.008 C 
ATOM     10  C   UNL     1       4.606   5.755  -0.013  0.00  0.00    +0.029 C 
ATOM     11  C   UNL     1       6.741   6.168   1.218  0.00  0.00    +0.007 C 
ATOM     12  C   UNL     1       7.037   4.667   1.207  0.00  0.00    -0.008 C 
ATOM     13  C   UNL     1       7.832   4.313  -0.051  0.00  0.00    +0.007 C 
ATOM     14  C   UNL     1       5.721   3.887   1.216  0.00  0.00    +0.029 C 
ENDBRANCH   3   5
BRANCH   1  17
ATOM     15  C   UNL     1      -0.017   1.379   0.010  0.00  0.00    +0.003 A 
ATOM     16  C   UNL     1       1.167   2.088   0.002  0.00  0.00    +0.013 A 
ATOM     17  C   UNL     1       2.385   1.407  -0.013  0.00  0.00    +0.039 A 
ATOM     18  C   UNL     1       2.397   0.011  -0.021  0.00  0.00    +0.045 A 
ATOM     19  C   UNL     1       1.206  -0.686  -0.013  0.00  0.00    +0.127 A 
ATOM     20  C   UNL     1       0.002  -0.004   0.002  0.00  0.00    +0.033 A 
BRANCH  19  21
ATOM     21  N   UNL     1       1.217  -2.166  -0.021  0.00  0.00    +0.056 N 
ATOM     22  O   UNL     1       2.268  -2.763  -0.034  0.00  0.00    -0.126 OA
ATOM     23  O   UNL     1       0.174  -2.778  -0.014  0.00  0.00    -0.126 OA
ENDBRANCH  19  21
ENDBRANCH   1  17
TORSDOF 3
