REMARK  Name = ZINC11716396
REMARK  9 active torsions:
REMARK  status: ('A' for Active; 'I' for Inactive)
REMARK    1  A    between atoms: C_1  and  N_2
REMARK    2  A    between atoms: N_2  and  C_3
REMARK    3  A    between atoms: N_2  and  S_4
REMARK    4  A    between atoms: S_4  and  C_7
REMARK    5  A    between atoms: C_10  and  C_12
REMARK    6  A    between atoms: C_12  and  N_54
REMARK    7  A    between atoms: C_13  and  C_15
REMARK    8  A    between atoms: C_13  and  C_21
REMARK    9  A    between atoms: C_13  and  N_54
REMARK                            x       y       z     vdW  Elec       q    Type
REMARK                         _______ _______ _______ _____ _____    ______ ____
ROOT
ATOM      1  C   UNL     1      -0.061   1.151  -2.358  0.00  0.00    +0.047 C 
ENDROOT
BRANCH   1   2
ATOM      2  C   UNL     1      -1.273   1.132  -3.254  0.00  0.00    +0.206 C 
ATOM      3  O   UNL     1      -2.330   1.569  -2.852  0.00  0.00    -0.277 OA
ATOM      4  N   UNL     1      -1.181   0.630  -4.501  0.00  0.00    -0.303 N 
ATOM      5  C   UNL     1       0.063   0.002  -4.965  0.00  0.00    +0.107 C 
ATOM      6  C   UNL     1      -0.267  -1.402  -5.496  0.00  0.00    +0.019 C 
ATOM      7  C   UNL     1      -1.353  -1.293  -6.568  0.00  0.00    +0.003 C 
ATOM      8  C   UNL     1      -2.623  -0.701  -5.952  0.00  0.00    +0.019 C 
ATOM      9  C   UNL     1      -2.322   0.706  -5.424  0.00  0.00    +0.107 C 
ENDBRANCH   1   2
BRANCH   1  10
ATOM     10  C   UNL     1       0.812   2.325  -2.719  0.00  0.00    -0.053 A 
ATOM     11  C   UNL     1       0.416   3.608  -2.390  0.00  0.00    +0.002 A 
ATOM     12  C   UNL     1       1.220   4.685  -2.717  0.00  0.00    +0.000 A 
ATOM     13  C   UNL     1       2.414   4.479  -3.382  0.00  0.00    +0.000 A 
ATOM     14  C   UNL     1       2.808   3.196  -3.715  0.00  0.00    +0.000 A 
ATOM     15  C   UNL     1       2.006   2.120  -3.384  0.00  0.00    +0.002 A 
ENDBRANCH   1  10
BRANCH   1  16
ATOM     16  N   UNL     1      -0.498   1.276  -0.955  0.00  0.00    +0.392 N 
ATOM     17  H   UNL     1      -0.643   2.267  -0.732  0.00  0.00    -0.084 HD
ATOM     18  H   UNL     1      -1.379   0.764  -0.828  0.00  0.00    -0.084 HD
BRANCH  16  19
ATOM     19  C   UNL     1       0.523   0.717  -0.049  0.00  0.00    -0.038 C 
BRANCH  19  23
ATOM     20  C   UNL     1      -0.576   1.526   3.912  0.00  0.00    +0.143 A 
ATOM     21  C   UNL     1      -1.001   0.336   3.421  0.00  0.00    +0.036 A 
ATOM     22  C   UNL     1      -0.680  -0.006   2.121  0.00  0.00    +0.011 A 
ATOM     23  C   UNL     1       0.051   0.858   1.375  0.00  0.00    -0.025 A 
ATOM     24  S   UNL     1       0.314   2.203   2.519  0.00  0.00    -0.075 S 
BRANCH  20  25
ATOM     25  S   UNL     1      -0.829   2.222   5.511  0.00  0.00    +0.067 S 
ATOM     26  O   UNL     1      -0.703   3.630   5.366  0.00  0.00    -0.152 OA
ATOM     27  O   UNL     1      -1.999   1.612   6.038  0.00  0.00    -0.152 OA
BRANCH  25  29
ATOM     28  C   UNL     1       1.651   2.539   6.543  0.00  0.00    +0.131 C 
ATOM     29  N   UNL     1       0.432   1.729   6.464  0.00  0.00    -0.182 NA
ATOM     30  C   UNL     1       0.330   0.483   7.229  0.00  0.00    +0.131 C 
ENDBRANCH  25  29
ENDBRANCH  20  25
ENDBRANCH  19  23
ENDBRANCH  16  19
ENDBRANCH   1  16
TORSDOF 7
