REMARK  Name = ZINC37676785
REMARK  4 active torsions:
REMARK  status: ('A' for Active; 'I' for Inactive)
REMARK    1  A    between atoms: C_1  and  C_2
REMARK    2  A    between atoms: N_5  and  C_7
REMARK    3  A    between atoms: C_12  and  N_13
REMARK    4  A    between atoms: C_15  and  C_17
REMARK                            x       y       z     vdW  Elec       q    Type
REMARK                         _______ _______ _______ _____ _____    ______ ____
ROOT
ATOM      1  C   UNL     1       0.021  -3.232   1.474  0.00  0.00    +0.088 A 
ATOM      2  C   UNL     1       0.123  -3.090   2.837  0.00  0.00    +0.058 A 
ATOM      3  C   UNL     1       0.174  -4.223   3.681  0.00  0.00    +0.081 A 
ATOM      4  C   UNL     1       0.115  -5.484   3.043  0.00  0.00    +0.041 A 
ATOM      5  C   UNL     1       0.014  -5.625   1.681  0.00  0.00    +0.042 A 
ATOM      6  C   UNL     1      -0.040  -4.495   0.877  0.00  0.00    +0.052 A 
ATOM      7  S   UNL     1       0.205  -6.605   4.419  0.00  0.00    -0.072 S 
ATOM      8  C   UNL     1       0.311  -5.370   5.707  0.00  0.00    +0.076 A 
ATOM      9  N   UNL     1       0.272  -4.256   5.028  0.00  0.00    -0.244 NA
ATOM     10  C   UNL     1       0.419  -5.566   7.197  0.00  0.00    +0.073 C 
ENDROOT
BRANCH   1  15
ATOM     11  C   UNL     1       1.067   1.202  -0.478  0.00  0.00    +0.047 C 
ATOM     12  C   UNL     1       0.422  -0.133  -0.205  0.00  0.00    -0.013 A 
ATOM     13  C   UNL     1      -0.671  -0.674  -0.889  0.00  0.00    +0.138 A 
ATOM     14  N   UNL     1      -0.942  -1.844  -0.368  0.00  0.00    -0.174 NA
ATOM     15  N   UNL     1      -0.027  -2.086   0.665  0.00  0.00    -0.238 N 
ATOM     16  C   UNL     1       0.804  -1.022   0.741  0.00  0.00    +0.118 A 
ENDBRANCH   1  15
BRANCH   6  17
ATOM     17  N   UNL     1      -0.149  -4.619  -0.512  0.00  0.00    -0.356 N 
ATOM     18  H   UNL     1      -0.089  -3.831  -1.075  0.00  0.00    +0.142 HD
ATOM     19  H   UNL     1      -0.285  -5.492  -0.912  0.00  0.00    +0.142 HD
ENDBRANCH   6  17
TORSDOF 2
