REMARK  Name = ZINC54384140
REMARK  10 active torsions:
REMARK  status: ('A' for Active; 'I' for Inactive)
REMARK    1  A    between atoms: C_1  and  C_2
REMARK    2  A    between atoms: C_5  and  C_28
REMARK    3  A    between atoms: N_8  and  C_10
REMARK    4  A    between atoms: C_10  and  C_11
REMARK    5  A    between atoms: C_10  and  C_12
REMARK    6  A    between atoms: C_10  and  C_13
REMARK    7  A    between atoms: C_13  and  N_14
REMARK    8  A    between atoms: N_17  and  C_18
REMARK    9  A    between atoms: C_21  and  N_24
REMARK   10  A    between atoms: C_25  and  C_27
REMARK                            x       y       z     vdW  Elec       q    Type
REMARK                         _______ _______ _______ _____ _____    ______ ____
ROOT
ATOM      1  N   UNL     1       2.010   1.647   3.457  0.00  0.00    -0.300 N 
ATOM      2  C   UNL     1       1.531   2.449   4.428  0.00  0.00    +0.304 C 
ATOM      3  O   UNL     1       1.219   1.979   5.505  0.00  0.00    -0.253 OA
ATOM      4  N   UNL     1       1.396   3.772   4.205  0.00  0.00    -0.269 N 
ATOM      5  H   UNL     1       2.259   2.022   2.597  0.00  0.00    +0.150 HD
ATOM      6  H   UNL     1       1.706   4.157   3.371  0.00  0.00    +0.156 HD
ENDROOT
BRANCH   4   7
ATOM      7  C   UNL     1       0.808   4.590   5.179  0.00  0.00    +0.035 A 
ATOM      8  C   UNL     1       0.012   5.662   4.796  0.00  0.00    +0.025 A 
ATOM      9  C   UNL     1      -0.567   6.468   5.755  0.00  0.00    +0.025 A 
ATOM     10  C   UNL     1      -0.354   6.207   7.103  0.00  0.00    +0.033 A 
ATOM     11  C   UNL     1       0.442   5.135   7.485  0.00  0.00    +0.025 A 
ATOM     12  C   UNL     1       1.016   4.325   6.526  0.00  0.00    +0.025 A 
BRANCH  10  13
ATOM     13  N   UNL     1      -0.941   7.026   8.076  0.00  0.00    -0.286 N 
ATOM     14  C   UNL     1      -2.156   7.568   7.857  0.00  0.00    +0.214 C 
ATOM     15  O   UNL     1      -2.778   7.277   6.858  0.00  0.00    -0.276 OA
ATOM     16  C   UNL     1      -2.740   8.534   8.855  0.00  0.00    +0.109 C 
ATOM     17  H   UNL     1      -0.474   7.203   8.907  0.00  0.00    +0.155 HD
ENDBRANCH  10  13
ENDBRANCH   4   7
BRANCH   1  18
ATOM     18  C   UNL     1       2.157   0.210   3.699  0.00  0.00    +0.093 C 
BRANCH  18  19
ATOM     19  C   UNL     1       2.828  -0.445   2.490  0.00  0.00    -0.055 C 
ATOM     20  C   UNL     1       2.911  -1.957   2.710  0.00  0.00    -0.008 C 
ATOM     21  C   UNL     1       4.238   0.123   2.319  0.00  0.00    -0.008 C 
BRANCH  19  27
ATOM     22  C   UNL     1      -0.292   1.091   0.100  0.00  0.00    +0.005 C 
ATOM     23  C   UNL     1      -0.142  -0.429   0.196  0.00  0.00    -0.031 C 
ATOM     24  C   UNL     1       0.541  -0.956  -1.069  0.00  0.00    +0.003 C 
ATOM     25  C   UNL     1       1.952  -0.368  -1.158  0.00  0.00    -0.031 C 
ATOM     26  C   UNL     1       2.729  -0.723   0.111  0.00  0.00    -0.075 C 
ATOM     27  N   UNL     1       2.039  -0.169   1.282  0.00  0.00    +0.384 N 
ATOM     28  C   UNL     1       0.711  -0.782   1.416  0.00  0.00    -0.075 C 
ATOM     29  C   UNL     1       2.672  -0.948  -2.378  0.00  0.00    +0.005 C 
ATOM     30  H   UNL     1       1.938   0.829   1.171  0.00  0.00    -0.081 HD
ENDBRANCH  19  27
ENDBRANCH  18  19
ENDBRANCH   1  18
TORSDOF 5
