REMARK  Name = ZINC39948867
REMARK  11 active torsions:
REMARK  status: ('A' for Active; 'I' for Inactive)
REMARK    1  A    between atoms: C_1  and  C_2
REMARK    2  A    between atoms: C_2  and  C_3
REMARK    3  A    between atoms: C_3  and  C_4
REMARK    4  A    between atoms: C_4  and  C_5
REMARK    5  A    between atoms: C_5  and  C_6
REMARK    6  A    between atoms: C_6  and  N_7
REMARK    7  A    between atoms: C_8  and  S_22
REMARK    8  A    between atoms: C_12  and  C_13
REMARK    9  A    between atoms: S_22  and  C_23
REMARK   10  A    between atoms: C_23  and  C_24
REMARK   11  A    between atoms: N_26  and  C_27
REMARK                            x       y       z     vdW  Elec       q    Type
REMARK                         _______ _______ _______ _____ _____    ______ ____
ROOT
ATOM      1  N   UNL     1       2.162  -4.523  -3.738  0.00  0.00    -0.286 N 
ATOM      2  C   UNL     1       1.547  -4.812  -5.044  0.00  0.00    +0.237 C 
ATOM      3  N   UNL     1       2.673  -5.247  -5.886  0.00  0.00    -0.237 N 
ATOM      4  N   UNL     1       3.816  -5.194  -5.080  0.00  0.00    -0.169 NA
ATOM      5  C   UNL     1       3.528  -4.782  -3.874  0.00  0.00    +0.147 C 
ATOM      6  H   UNL     1       2.631  -5.519  -6.817  0.00  0.00    +0.171 HD
ENDROOT
BRANCH   5   7
ATOM      7  C   UNL     1       4.470  -4.622  -2.846  0.00  0.00    +0.022 C 
ATOM      8  C   UNL     1       5.844  -4.856  -2.917  0.00  0.00    +0.006 A 
ATOM      9  C   UNL     1       6.683  -5.297  -3.963  0.00  0.00    +0.010 A 
ATOM     10  C   UNL     1       8.015  -5.439  -3.743  0.00  0.00    +0.001 A 
ATOM     11  C   UNL     1       8.585  -5.157  -2.499  0.00  0.00    +0.002 A 
ATOM     12  C   UNL     1       7.839  -4.730  -1.451  0.00  0.00    +0.026 A 
ATOM     13  C   UNL     1       6.439  -4.558  -1.605  0.00  0.00    +0.043 A 
ATOM     14  N   UNL     1       5.511  -4.161  -0.756  0.00  0.00    -0.380 N 
ATOM     15  C   UNL     1       4.210  -4.154  -1.432  0.00  0.00    +0.152 C 
ATOM     16  H   UNL     1       5.665  -3.910   0.168  0.00  0.00    +0.160 HD
ENDBRANCH   5   7
BRANCH   1  17
ATOM     17  C   UNL     1       1.476  -4.051  -2.532  0.00  0.00    +0.109 C 
BRANCH  17  18
ATOM     18  C   UNL     1       1.455  -2.521  -2.524  0.00  0.00    +0.019 C 
BRANCH  18  19
ATOM     19  C   UNL     1       0.739  -2.027  -1.265  0.00  0.00    +0.002 C 
BRANCH  19  20
ATOM     20  C   UNL     1       0.718  -0.497  -1.257  0.00  0.00    -0.000 C 
BRANCH  20  22
ATOM     21  C   UNL     1      -0.019   1.526   0.010  0.00  0.00    +0.004 C 
ATOM     22  C   UNL     1       0.002  -0.004   0.002  0.00  0.00    -0.003 C 
ENDBRANCH  20  22
ENDBRANCH  19  20
ENDBRANCH  18  19
ENDBRANCH  17  18
ENDBRANCH   1  17
BRANCH   2  23
ATOM     23  S   UNL     1       0.779  -3.318  -5.728  0.00  0.00    -0.109 S 
BRANCH  23  24
ATOM     24  C   UNL     1       2.156  -2.147  -5.879  0.00  0.00    +0.168 C 
BRANCH  24  25
ATOM     25  C   UNL     1       1.649  -0.845  -6.444  0.00  0.00    +0.223 C 
ATOM     26  O   UNL     1       0.474  -0.719  -6.718  0.00  0.00    -0.275 OA
ATOM     27  N   UNL     1       2.500   0.180  -6.645  0.00  0.00    -0.309 N 
ATOM     28  H   UNL     1       3.440   0.080  -6.426  0.00  0.00    +0.149 HD
BRANCH  27  29
ATOM     29  C   UNL     1       2.007   1.446  -7.194  0.00  0.00    +0.035 C 
ATOM     30  C   UNL     1       1.394   1.199  -8.573  0.00  0.00    +0.029 C 
ATOM     31  C   UNL     1       0.879   2.520  -9.147  0.00  0.00    -0.008 C 
ATOM     32  C   UNL     1       2.040   3.508  -9.274  0.00  0.00    +0.007 C 
ATOM     33  C   UNL     1       2.653   3.755  -7.894  0.00  0.00    -0.008 C 
ATOM     34  C   UNL     1       3.168   2.434  -7.321  0.00  0.00    +0.029 C 
ATOM     35  C   UNL     1       1.589   4.336  -6.960  0.00  0.00    +0.007 C 
ATOM     36  C   UNL     1       0.428   3.348  -6.833  0.00  0.00    -0.008 C 
ATOM     37  C   UNL     1      -0.185   3.101  -8.213  0.00  0.00    +0.007 C 
ATOM     38  C   UNL     1       0.943   2.027  -6.260  0.00  0.00    +0.029 C 
ENDBRANCH  27  29
ENDBRANCH  24  25
ENDBRANCH  23  24
ENDBRANCH   2  23
TORSDOF 10
