REMARK  Name = ZINC66535102
REMARK  11 active torsions:
REMARK  status: ('A' for Active; 'I' for Inactive)
REMARK    1  A    between atoms: C_1  and  C_2
REMARK    2  A    between atoms: C_2  and  C_3
REMARK    3  A    between atoms: C_2  and  C_4
REMARK    4  A    between atoms: C_6  and  C_9
REMARK    5  A    between atoms: C_9  and  C_10
REMARK    6  A    between atoms: C_10  and  C_11
REMARK    7  A    between atoms: C_11  and  C_12
REMARK    8  A    between atoms: C_12  and  O_14
REMARK    9  A    between atoms: O_14  and  C_15
REMARK   10  A    between atoms: C_24  and  O_26
REMARK   11  A    between atoms: O_26  and  C_27
REMARK                            x       y       z     vdW  Elec       q    Type
REMARK                         _______ _______ _______ _____ _____    ______ ____
ROOT
ATOM      1  C   UNL     1       3.719  -6.054  -3.660  0.00  0.00    +0.308 C 
ATOM      2  O   UNL     1       2.577  -6.381  -3.436  0.00  0.00    -0.251 OA
ENDROOT
BRANCH   1   3
ATOM      3  C   UNL     1       4.132  -4.613  -3.514  0.00  0.00    +0.121 C 
BRANCH   3   4
ATOM      4  C   UNL     1       2.927  -3.779  -3.074  0.00  0.00    +0.020 C 
BRANCH   4   5
ATOM      5  C   UNL     1       3.347  -2.315  -2.924  0.00  0.00    +0.099 C 
BRANCH   5   8
ATOM      6  C   UNL     1       0.707  -0.490  -1.238  0.00  0.00    +0.174 A 
ATOM      7  N   UNL     1       1.807  -1.252  -1.259  0.00  0.00    -0.196 NA
ATOM      8  C   UNL     1       2.160  -1.494  -2.491  0.00  0.00    +0.227 A 
ATOM      9  O   UNL     1       1.287  -0.887  -3.304  0.00  0.00    -0.338 OA
ATOM     10  N   UNL     1       0.343  -0.242  -2.463  0.00  0.00    -0.061 NA
BRANCH   6  12
ATOM     11  C   UNL     1      -0.019   1.526   0.010  0.00  0.00    +0.015 C 
ATOM     12  C   UNL     1       0.002  -0.004   0.002  0.00  0.00    +0.054 C 
ATOM     13  C   UNL     1      -1.433  -0.534   0.013  0.00  0.00    +0.015 C 
ENDBRANCH   6  12
ENDBRANCH   5   8
ENDBRANCH   4   5
ENDBRANCH   3   4
ENDBRANCH   1   3
BRANCH   1  14
ATOM     14  O   UNL     1       4.618  -6.975  -4.040  0.00  0.00    -0.457 OA
BRANCH  14  15
ATOM     15  C   UNL     1       4.157  -8.323  -4.159  0.00  0.00    +0.207 C 
ATOM     16  C   UNL     1       4.960  -9.036  -5.245  0.00  0.00    +0.050 C 
ATOM     17  C   UNL     1       4.605 -10.527  -5.208  0.00  0.00    +0.009 C 
ATOM     18  C   UNL     1       5.187 -11.130  -3.931  0.00  0.00    +0.036 C 
ATOM     19  C   UNL     1       4.788 -10.312  -2.730  0.00  0.00    -0.037 A 
ATOM     20  C   UNL     1       4.319  -9.022  -2.835  0.00  0.00    -0.004 A 
ATOM     21  C   UNL     1       3.974  -8.319  -1.687  0.00  0.00    +0.011 A 
ATOM     22  C   UNL     1       4.094  -8.903  -0.444  0.00  0.00    +0.046 A 
ATOM     23  C   UNL     1       4.563 -10.204  -0.337  0.00  0.00    +0.120 A 
ATOM     24  C   UNL     1       4.907 -10.903  -1.480  0.00  0.00    +0.049 A 
BRANCH  23  25
ATOM     25  O   UNL     1       4.683 -10.789   0.884  0.00  0.00    -0.495 OA
ATOM     26  C   UNL     1       4.307 -10.005   2.018  0.00  0.00    +0.277 C 
ENDBRANCH  23  25
ENDBRANCH  14  15
ENDBRANCH   1  14
TORSDOF 8
