REMARK  Name = ZINC05516238
REMARK  2 active torsions:
REMARK  status: ('A' for Active; 'I' for Inactive)
REMARK    1  A    between atoms: C_5  and  C_7
REMARK    2  A    between atoms: C_24  and  C_26
REMARK                            x       y       z     vdW  Elec       q    Type
REMARK                         _______ _______ _______ _____ _____    ______ ____
ROOT
ATOM      1  C   UNL     1       1.228  -2.186  -0.022  0.00  0.00    +0.237 C 
ATOM      2  C   UNL     1       1.231  -2.674  -1.441  0.00  0.00    +0.028 C 
ATOM      3  C   UNL     1       0.070  -2.912  -2.088  0.00  0.00    +0.083 C 
ATOM      4  C   UNL     1      -1.191  -2.683  -1.340  0.00  0.00    +0.042 A 
ATOM      5  C   UNL     1      -2.413  -2.582  -1.990  0.00  0.00    +0.013 A 
ATOM      6  C   UNL     1      -3.562  -2.366  -1.253  0.00  0.00    +0.001 A 
ATOM      7  C   UNL     1      -3.495  -2.251   0.124  0.00  0.00    +0.004 A 
ATOM      8  C   UNL     1      -2.282  -2.352   0.779  0.00  0.00    +0.046 A 
ATOM      9  C   UNL     1      -1.123  -2.569   0.055  0.00  0.00    +0.131 A 
ATOM     10  O   UNL     1       0.078  -2.678   0.669  0.00  0.00    -0.479 OA
ATOM     11  N   UNL     1       0.057  -3.345  -3.372  0.00  0.00    -0.216 NA
ATOM     12  C   UNL     1       1.137  -3.577  -4.085  0.00  0.00    +0.209 C 
ATOM     13  N   UNL     1       1.308  -4.014  -5.372  0.00  0.00    -0.275 N 
ATOM     14  C   UNL     1       2.657  -4.090  -5.623  0.00  0.00    +0.208 C 
ATOM     15  N   UNL     1       3.310  -3.725  -4.567  0.00  0.00    -0.169 NA
ATOM     16  N   UNL     1       2.388  -3.391  -3.573  0.00  0.00    -0.182 N 
ATOM     17  C   UNL     1       2.523  -2.915  -2.189  0.00  0.00    +0.164 C 
ATOM     18  H   UNL     1       0.600  -4.233  -5.998  0.00  0.00    +0.156 HD
ENDROOT
BRANCH   1  23
ATOM     19  C   UNL     1      -0.011   1.377   0.115  0.00  0.00    +0.001 A 
ATOM     20  C   UNL     1       1.171   2.087   0.002  0.00  0.00    +0.003 A 
ATOM     21  C   UNL     1       2.372   1.414  -0.118  0.00  0.00    +0.039 A 
ATOM     22  C   UNL     1       2.392   0.030  -0.126  0.00  0.00    +0.130 A 
ATOM     23  C   UNL     1       1.208  -0.679  -0.013  0.00  0.00    +0.032 A 
ATOM     24  C   UNL     1       0.008  -0.005   0.107  0.00  0.00    +0.010 A 
ATOM     25  F   UNL     1       3.565  -0.629  -0.245  0.00  0.00    -0.205 F 
ENDBRANCH   1  23
BRANCH  17  26
ATOM     26  C   UNL     1       3.329  -3.929  -1.419  0.00  0.00    -0.003 A 
ATOM     27  C   UNL     1       4.365  -3.521  -0.592  0.00  0.00    +0.009 A 
ATOM     28  C   UNL     1       5.079  -4.489   0.097  0.00  0.00    +0.020 A 
ATOM     29  C   UNL     1       4.738  -5.819  -0.063  0.00  0.00    +0.111 A 
ATOM     30  N   UNL     1       3.747  -6.170  -0.859  0.00  0.00    -0.263 NA
ATOM     31  C   UNL     1       3.042  -5.277  -1.524  0.00  0.00    +0.116 A 
ENDBRANCH  17  26
TORSDOF 2
