REMARK  Name = ZINC35394857
REMARK  13 active torsions:
REMARK  status: ('A' for Active; 'I' for Inactive)
REMARK    1  A    between atoms: C_1  and  N_2
REMARK    2  A    between atoms: N_2  and  C_3
REMARK    3  A    between atoms: N_2  and  C_4
REMARK    4  A    between atoms: C_7  and  C_10
REMARK    5  A    between atoms: C_10  and  N_11
REMARK    6  A    between atoms: N_11  and  C_12
REMARK    7  A    between atoms: C_12  and  C_13
REMARK    8  A    between atoms: C_13  and  C_14
REMARK    9  A    between atoms: C_24  and  C_26
REMARK   10  A    between atoms: C_26  and  N_27
REMARK   11  A    between atoms: N_27  and  C_28
REMARK   12  A    between atoms: C_28  and  C_29
REMARK   13  A    between atoms: C_34  and  C_36
REMARK                            x       y       z     vdW  Elec       q    Type
REMARK                         _______ _______ _______ _____ _____    ______ ____
ROOT
ATOM      1  N   UNL     1      -2.267  -2.791  -6.026  0.00  0.00    -0.296 N 
ATOM      2  C   UNL     1      -2.592  -3.968  -5.457  0.00  0.00    +0.233 C 
ATOM      3  O   UNL     1      -1.774  -4.568  -4.793  0.00  0.00    -0.274 OA
ENDROOT
BRANCH   1   4
ATOM      4  C   UNL     1      -0.923  -2.236  -5.842  0.00  0.00    +0.143 C 
BRANCH   4   8
ATOM      5  C   UNL     1      -0.868   0.246  -2.363  0.00  0.00    +0.029 A 
ATOM      6  C   UNL     1      -0.577  -1.108  -2.257  0.00  0.00    +0.023 A 
ATOM      7  C   UNL     1      -0.596  -1.907  -3.383  0.00  0.00    +0.007 A 
ATOM      8  C   UNL     1      -0.904  -1.361  -4.615  0.00  0.00    -0.030 A 
ATOM      9  C   UNL     1      -1.195  -0.013  -4.725  0.00  0.00    +0.007 A 
ATOM     10  C   UNL     1      -1.183   0.791  -3.602  0.00  0.00    +0.023 A 
BRANCH   5  12
ATOM     11  C   UNL     1      -1.164   2.484  -1.339  0.00  0.00    +0.129 C 
ATOM     12  N   UNL     1      -0.851   1.058  -1.226  0.00  0.00    -0.336 N 
ATOM     13  C   UNL     1      -0.518   0.482   0.079  0.00  0.00    +0.129 C 
ENDBRANCH   5  12
ENDBRANCH   4   8
ENDBRANCH   1   4
BRANCH   1  14
ATOM     14  C   UNL     1      -3.256  -2.066  -6.827  0.00  0.00    +0.113 C 
BRANCH  14  15
ATOM     15  C   UNL     1      -3.151  -2.509  -8.288  0.00  0.00    +0.056 C 
BRANCH  15  16
ATOM     16  C   UNL     1      -4.169  -1.763  -9.113  0.00  0.00    -0.021 A 
ATOM     17  C   UNL     1      -5.400  -2.188  -9.438  0.00  0.00    +0.087 A 
ATOM     18  N   UNL     1      -6.035  -1.243 -10.196  0.00  0.00    -0.360 N 
ATOM     19  H   UNL     1      -6.935  -1.325 -10.550  0.00  0.00    +0.165 HD
ATOM     20  C   UNL     1      -5.207  -0.159 -10.382  0.00  0.00    +0.047 A 
ATOM     21  C   UNL     1      -4.004  -0.434  -9.707  0.00  0.00    +0.003 A 
ATOM     22  C   UNL     1      -2.969   0.502  -9.718  0.00  0.00    +0.010 A 
ATOM     23  C   UNL     1      -3.130   1.684 -10.384  0.00  0.00    +0.001 A 
ATOM     24  C   UNL     1      -4.317   1.963 -11.049  0.00  0.00    +0.002 A 
ATOM     25  C   UNL     1      -5.348   1.049 -11.058  0.00  0.00    +0.026 A 
ENDBRANCH  15  16
ENDBRANCH  14  15
ENDBRANCH   1  14
BRANCH   2  26
ATOM     26  C   UNL     1      -3.974  -4.539  -5.645  0.00  0.00    +0.204 C 
BRANCH  26  27
ATOM     27  N   UNL     1      -4.077  -5.816  -4.933  0.00  0.00    -0.279 N 
ATOM     28  C   UNL     1      -3.674  -6.955  -5.530  0.00  0.00    +0.283 C 
ATOM     29  O   UNL     1      -3.849  -8.025  -4.979  0.00  0.00    -0.267 OA
BRANCH  28  30
ATOM     30  C   UNL     1      -3.024  -6.904  -6.845  0.00  0.00    +0.189 A 
ATOM     31  C   UNL     1      -2.664  -7.980  -7.604  0.00  0.00    +0.054 A 
ATOM     32  C   UNL     1      -2.080  -7.470  -8.774  0.00  0.00    +0.042 A 
ATOM     33  C   UNL     1      -2.110  -6.123  -8.679  0.00  0.00    +0.196 A 
ATOM     34  O   UNL     1      -2.684  -5.785  -7.518  0.00  0.00    -0.458 OA
ENDBRANCH  28  30
BRANCH  27  35
ATOM     35  C   UNL     1      -4.617  -5.854  -3.572  0.00  0.00    +0.183 C 
BRANCH  35  36
ATOM     36  C   UNL     1      -6.114  -6.010  -3.630  0.00  0.00    +0.122 A 
ATOM     37  C   UNL     1      -6.784  -7.176  -3.641  0.00  0.00    +0.046 A 
ATOM     38  C   UNL     1      -8.160  -6.859  -3.701  0.00  0.00    +0.041 A 
ATOM     39  C   UNL     1      -8.249  -5.516  -3.723  0.00  0.00    +0.195 A 
ATOM     40  O   UNL     1      -7.008  -5.008  -3.674  0.00  0.00    -0.466 OA
ENDBRANCH  35  36
ENDBRANCH  27  35
ENDBRANCH  26  27
ENDBRANCH   2  26
TORSDOF 11
