REMARK  Name = ZINC31193538
REMARK  11 active torsions:
REMARK  status: ('A' for Active; 'I' for Inactive)
REMARK    1  A    between atoms: C_1  and  C_2
REMARK    2  A    between atoms: C_2  and  N_3
REMARK    3  A    between atoms: N_3  and  C_4
REMARK    4  A    between atoms: N_3  and  C_6
REMARK    5  A    between atoms: C_4  and  C_5
REMARK    6  A    between atoms: C_6  and  C_8
REMARK    7  A    between atoms: C_6  and  C_29
REMARK    8  A    between atoms: C_8  and  N_9
REMARK    9  A    between atoms: N_15  and  S_18
REMARK   10  A    between atoms: S_18  and  C_21
REMARK   11  A    between atoms: C_26  and  C_27
REMARK                            x       y       z     vdW  Elec       q    Type
REMARK                         _______ _______ _______ _____ _____    ______ ____
ROOT
ATOM      1  N   UNL     1      -3.206  -2.111  -1.035  0.00  0.00    -0.300 N 
ATOM      2  C   UNL     1      -4.541  -2.278  -0.954  0.00  0.00    +0.302 C 
ATOM      3  O   UNL     1      -5.045  -2.648   0.088  0.00  0.00    -0.253 OA
ATOM      4  N   UNL     1      -5.316  -2.036  -2.030  0.00  0.00    -0.283 N 
ATOM      5  C   UNL     1      -4.713  -1.706  -3.328  0.00  0.00    +0.126 C 
ATOM      6  C   UNL     1      -5.239  -2.693  -4.378  0.00  0.00    +0.128 C 
ATOM      7  N   UNL     1      -6.703  -2.754  -4.273  0.00  0.00    -0.174 NA
ATOM      8  C   UNL     1      -7.307  -3.084  -2.974  0.00  0.00    +0.128 C 
ATOM      9  C   UNL     1      -6.781  -2.103  -1.926  0.00  0.00    +0.126 C 
ATOM     10  H   UNL     1      -2.811  -1.745  -1.841  0.00  0.00    +0.150 HD
ENDROOT
BRANCH   7  11
ATOM     11  S   UNL     1      -7.656  -2.456  -5.594  0.00  0.00    +0.062 S 
ATOM     12  O   UNL     1      -8.921  -2.040  -5.097  0.00  0.00    -0.153 OA
ATOM     13  O   UNL     1      -6.885  -1.655  -6.479  0.00  0.00    -0.153 OA
BRANCH  11  14
ATOM     14  C   UNL     1      -7.916  -3.997  -6.407  0.00  0.00    +0.123 A 
ATOM     15  C   UNL     1      -9.185  -4.535  -6.480  0.00  0.00    +0.030 A 
ATOM     16  C   UNL     1      -9.391  -5.745  -7.118  0.00  0.00    +0.002 A 
ATOM     17  C   UNL     1      -8.328  -6.425  -7.686  0.00  0.00    +0.001 A 
ATOM     18  C   UNL     1      -7.054  -5.899  -7.620  0.00  0.00    +0.021 A 
ATOM     19  C   UNL     1      -6.840  -4.674  -6.984  0.00  0.00    +0.078 A 
BRANCH  19  20
ATOM     20  C   UNL     1      -5.522  -4.119  -6.917  0.00  0.00    +0.101 C 
ATOM     21  N   UNL     1      -4.476  -3.679  -6.864  0.00  0.00    -0.191 NA
ENDBRANCH  19  20
ENDBRANCH  11  14
ENDBRANCH   7  11
BRANCH   1  22
ATOM     22  C   UNL     1      -2.352  -2.481   0.096  0.00  0.00    +0.095 C 
BRANCH  22  23
ATOM     23  C   UNL     1      -0.907  -2.075  -0.201  0.00  0.00    -0.020 C 
BRANCH  23  24
ATOM     24  C   UNL     1      -0.042  -2.387   0.993  0.00  0.00    -0.052 A 
ATOM     25  C   UNL     1       1.130  -3.104   0.841  0.00  0.00    +0.009 A 
ATOM     26  C   UNL     1       1.886  -3.368   1.935  0.00  0.00    +0.045 A 
ATOM     27  S   UNL     1       0.938  -2.591   3.234  0.00  0.00    -0.105 S 
ATOM     28  C   UNL     1      -0.397  -1.963   2.230  0.00  0.00    +0.047 A 
ENDBRANCH  23  24
BRANCH  23  29
ATOM     29  N   UNL     1      -0.852  -0.634  -0.483  0.00  0.00    +0.385 N 
ATOM     30  H   UNL     1      -1.470  -0.417  -1.250  0.00  0.00    -0.081 HD
BRANCH  29  32
ATOM     31  C   UNL     1      -1.396   1.599   0.362  0.00  0.00    -0.017 C 
ATOM     32  C   UNL     1      -1.270   0.115   0.710  0.00  0.00    -0.081 C 
ENDBRANCH  29  32
BRANCH  29  33
ATOM     33  C   UNL     1       0.522  -0.258  -0.840  0.00  0.00    -0.081 C 
ATOM     34  C   UNL     1       0.914  -0.943  -2.151  0.00  0.00    -0.017 C 
ENDBRANCH  29  33
ENDBRANCH  23  29
ENDBRANCH  22  23
ENDBRANCH   1  22
TORSDOF 9
