REMARK  Name = ZINC00690199
REMARK  7 active torsions:
REMARK  status: ('A' for Active; 'I' for Inactive)
REMARK    1  A    between atoms: C_5  and  N_7
REMARK    2  A    between atoms: C_13  and  C_15
REMARK    3  A    between atoms: C_15  and  C_16
REMARK    4  A    between atoms: C_22  and  C_24
REMARK    5  A    between atoms: C_24  and  N_25
REMARK    6  A    between atoms: N_25  and  C_26
REMARK    7  A    between atoms: C_29  and  C_31
REMARK                            x       y       z     vdW  Elec       q    Type
REMARK                         _______ _______ _______ _____ _____    ______ ____
ROOT
ATOM      1  C   UNL     1       0.132  -8.133  -1.080  0.00  0.00    +0.059 A 
ATOM      2  C   UNL     1      -0.802  -8.962  -1.607  0.00  0.00    +0.072 A 
ATOM      3  S   UNL     1      -0.257 -10.533  -0.955  0.00  0.00    -0.060 S 
ATOM      4  C   UNL     1       1.079  -9.977  -0.096  0.00  0.00    +0.165 A 
ATOM      5  N   UNL     1       1.067  -8.682  -0.328  0.00  0.00    -0.229 NA
ATOM      6  N   UNL     1       1.980 -10.709   0.669  0.00  0.00    -0.263 N 
ATOM      7  C   UNL     1       1.834 -12.043   0.789  0.00  0.00    +0.236 C 
ATOM      8  O   UNL     1       0.917 -12.606   0.229  0.00  0.00    -0.274 OA
ATOM      9  H   UNL     1       2.714 -10.259   1.117  0.00  0.00    +0.157 HD
ENDROOT
BRANCH   1  10
ATOM     10  C   UNL     1       0.107  -6.649  -1.347  0.00  0.00    +0.152 C 
BRANCH  10  17
ATOM     11  N   UNL     1       1.236  -2.079  -0.021  0.00  0.00    -0.325 N 
ATOM     12  C   UNL     1       1.254  -2.834   1.239  0.00  0.00    +0.124 C 
ATOM     13  C   UNL     1       0.076  -3.815   1.240  0.00  0.00    +0.126 C 
ATOM     14  N   UNL     1       0.081  -4.556  -0.030  0.00  0.00    -0.298 N 
ATOM     15  C   UNL     1       0.063  -3.801  -1.290  0.00  0.00    +0.126 C 
ATOM     16  C   UNL     1       1.236  -2.820  -1.291  0.00  0.00    +0.124 C 
ATOM     17  C   UNL     1       0.102  -5.904  -0.037  0.00  0.00    +0.221 C 
ATOM     18  O   UNL     1       0.117  -6.516   1.009  0.00  0.00    -0.275 OA
BRANCH  11  23
ATOM     19  C   UNL     1      -0.017   1.377   0.010  0.00  0.00    +0.002 A 
ATOM     20  C   UNL     1       1.170   2.087   0.002  0.00  0.00    +0.003 A 
ATOM     21  C   UNL     1       2.380   1.418  -0.013  0.00  0.00    +0.040 A 
ATOM     22  C   UNL     1       2.406   0.035  -0.021  0.00  0.00    +0.144 A 
ATOM     23  C   UNL     1       1.214  -0.681  -0.013  0.00  0.00    +0.065 A 
ATOM     24  C   UNL     1       0.002  -0.004   0.002  0.00  0.00    +0.026 A 
ATOM     25  F   UNL     1       3.588  -0.619  -0.036  0.00  0.00    -0.204 F 
ENDBRANCH  11  23
ENDBRANCH  10  17
ENDBRANCH   1  10
BRANCH   7  26
ATOM     26  C   UNL     1       2.810 -12.837   1.618  0.00  0.00    +0.204 C 
BRANCH  26  27
ATOM     27  N   UNL     1       2.437 -14.253   1.589  0.00  0.00    -0.289 N 
ATOM     28  C   UNL     1       1.594 -14.747   2.517  0.00  0.00    +0.219 C 
ATOM     29  O   UNL     1       1.144 -14.019   3.377  0.00  0.00    -0.275 OA
BRANCH  28  30
ATOM     30  C   UNL     1       1.210 -16.204   2.488  0.00  0.00    +0.075 C 
ATOM     31  C   UNL     1       0.525 -16.524   1.158  0.00  0.00    +0.013 C 
ATOM     32  C   UNL     1       0.135 -18.003   1.127  0.00  0.00    +0.001 C 
ATOM     33  C   UNL     1      -0.825 -18.302   2.281  0.00  0.00    +0.000 C 
ATOM     34  C   UNL     1      -0.139 -17.982   3.611  0.00  0.00    +0.001 C 
ATOM     35  C   UNL     1       0.250 -16.503   3.641  0.00  0.00    +0.013 C 
ENDBRANCH  28  30
BRANCH  27  36
ATOM     36  C   UNL     1       2.981 -15.133   0.551  0.00  0.00    +0.077 C 
ATOM     37  C   UNL     1       4.083 -14.568  -0.347  0.00  0.00    +0.024 C 
ATOM     38  C   UNL     1       2.675 -14.780  -0.905  0.00  0.00    +0.024 C 
ENDBRANCH  27  36
ENDBRANCH  26  27
ENDBRANCH   7  26
TORSDOF 7
