REMARK  Name = ZINC35972236
REMARK  12 active torsions:
REMARK  status: ('A' for Active; 'I' for Inactive)
REMARK    1  A    between atoms: C_1  and  C_2
REMARK    2  A    between atoms: C_2  and  C_3
REMARK    3  A    between atoms: C_2  and  C_4
REMARK    4  A    between atoms: C_5  and  C_18
REMARK    5  A    between atoms: C_6  and  N_15
REMARK    6  A    between atoms: N_7  and  C_9
REMARK    7  A    between atoms: N_15  and  C_16
REMARK    8  A    between atoms: N_15  and  C_17
REMARK    9  A    between atoms: C_18  and  N_19
REMARK   10  A    between atoms: N_19  and  C_20
REMARK   11  A    between atoms: C_20  and  C_21
REMARK   12  A    between atoms: C_27  and  C_29
REMARK                            x       y       z     vdW  Elec       q    Type
REMARK                         _______ _______ _______ _____ _____    ______ ____
ROOT
ATOM      1  C   UNL     1      -1.620  -0.286  -0.934  0.00  0.00    +0.044 A 
ATOM      2  C   UNL     1      -1.976  -1.444  -1.630  0.00  0.00    +0.030 A 
ATOM      3  C   UNL     1      -3.217  -1.818  -1.213  0.00  0.00    +0.127 A 
ATOM      4  N   UNL     1      -3.623  -0.914  -0.280  0.00  0.00    -0.241 N 
ATOM      5  N   UNL     1      -2.599   0.029  -0.124  0.00  0.00    -0.295 N 
ATOM      6  H   UNL     1      -2.614   0.788   0.480  0.00  0.00    +0.187 HD
ENDROOT
BRANCH   4   7
ATOM      7  C   UNL     1      -4.845  -0.928   0.406  0.00  0.00    +0.065 A 
ATOM      8  C   UNL     1      -6.030  -1.133  -0.288  0.00  0.00    +0.028 A 
ATOM      9  C   UNL     1      -7.233  -1.146   0.390  0.00  0.00    +0.002 A 
ATOM     10  C   UNL     1      -7.258  -0.955   1.760  0.00  0.00    +0.000 A 
ATOM     11  C   UNL     1      -6.079  -0.750   2.454  0.00  0.00    +0.002 A 
ATOM     12  C   UNL     1      -4.873  -0.742   1.781  0.00  0.00    +0.028 A 
ENDBRANCH   4   7
BRANCH   1  14
ATOM     13  C   UNL     1      -0.619   1.903  -1.534  0.00  0.00    +0.014 C 
ATOM     14  C   UNL     1      -0.325   0.470  -1.084  0.00  0.00    +0.031 C 
ATOM     15  C   UNL     1       0.409   0.497   0.258  0.00  0.00    +0.014 C 
ENDBRANCH   1  14
BRANCH   3  16
ATOM     16  N   UNL     1      -3.938  -2.922  -1.659  0.00  0.00    -0.321 N 
ATOM     17  C   UNL     1      -3.915  -4.170  -0.893  0.00  0.00    +0.130 C 
ATOM     18  C   UNL     1      -4.720  -2.835  -2.895  0.00  0.00    +0.130 C 
ENDBRANCH   3  16
BRANCH   2  19
ATOM     19  C   UNL     1      -1.135  -2.153  -2.660  0.00  0.00    +0.148 C 
BRANCH  19  20
ATOM     20  N   UNL     1      -0.398  -3.247  -2.021  0.00  0.00    -0.294 N 
ATOM     21  C   UNL     1       0.775  -3.000  -1.407  0.00  0.00    +0.219 C 
ATOM     22  O   UNL     1       1.222  -1.873  -1.383  0.00  0.00    -0.275 OA
BRANCH  21  23
ATOM     23  C   UNL     1       1.533  -4.125  -0.749  0.00  0.00    +0.075 C 
ATOM     24  C   UNL     1       1.033  -4.459   0.666  0.00  0.00    +0.013 C 
ATOM     25  C   UNL     1       2.509  -4.637   1.060  0.00  0.00    +0.001 C 
ATOM     26  C   UNL     1       2.851  -3.680  -0.093  0.00  0.00    +0.013 C 
ENDBRANCH  21  23
BRANCH  20  27
ATOM     27  C   UNL     1      -0.938  -4.608  -2.050  0.00  0.00    +0.139 C 
BRANCH  27  28
ATOM     28  C   UNL     1      -0.527  -5.293  -3.355  0.00  0.00    +0.136 C 
ATOM     29  C   UNL     1      -1.191  -6.683  -3.449  0.00  0.00    +0.035 C 
ATOM     30  C   UNL     1      -0.059  -7.548  -4.069  0.00  0.00    +0.031 C 
ATOM     31  C   UNL     1       1.193  -6.891  -3.434  0.00  0.00    +0.160 C 
ATOM     32  O   UNL     1       0.892  -5.486  -3.376  0.00  0.00    -0.375 OA
ENDBRANCH  27  28
ENDBRANCH  20  27
ENDBRANCH  19  20
ENDBRANCH   2  19
TORSDOF 8
