REMARK  Name = ZINC26272516
REMARK  8 active torsions:
REMARK  status: ('A' for Active; 'I' for Inactive)
REMARK    1  A    between atoms: C_1  and  C_2
REMARK    2  A    between atoms: C_2  and  C_4
REMARK    3  A    between atoms: C_2  and  O_20
REMARK    4  A    between atoms: N_6  and  C_7
REMARK    5  A    between atoms: C_10  and  N_17
REMARK    6  A    between atoms: C_12  and  C_13
REMARK    7  A    between atoms: O_20  and  C_21
REMARK    8  A    between atoms: C_21  and  C_23
REMARK                            x       y       z     vdW  Elec       q    Type
REMARK                         _______ _______ _______ _____ _____    ______ ____
ROOT
ATOM      1  C   UNL     1       4.062  -2.748   1.375  0.00  0.00    +0.062 C 
ATOM      2  C   UNL     1       4.024  -2.232  -0.065  0.00  0.00    +0.259 C 
ENDROOT
BRANCH   2   3
ATOM      3  C   UNL     1       5.284  -2.645  -0.780  0.00  0.00    +0.258 C 
ATOM      4  O   UNL     1       6.070  -1.803  -1.159  0.00  0.00    -0.271 OA
ATOM      5  N   UNL     1       5.538  -3.951  -0.999  0.00  0.00    -0.282 N 
ATOM      6  H   UNL     1       4.872  -4.719  -0.577  0.00  0.00    +0.155 HD
BRANCH   5   7
ATOM      7  C   UNL     1       6.647  -4.329  -1.763  0.00  0.00    +0.045 A 
ATOM      8  C   UNL     1       7.179  -3.453  -2.700  0.00  0.00    +0.026 A 
ATOM      9  C   UNL     1       8.274  -3.829  -3.452  0.00  0.00    +0.034 A 
ATOM     10  C   UNL     1       8.842  -5.078  -3.272  0.00  0.00    +0.127 A 
ATOM     11  C   UNL     1       8.315  -5.952  -2.341  0.00  0.00    +0.047 A 
ATOM     12  C   UNL     1       7.223  -5.580  -1.581  0.00  0.00    +0.078 A 
BRANCH  12  13
ATOM     13  C   UNL     1       6.652  -6.532  -0.562  0.00  0.00    +0.419 C 
ATOM     14  F   UNL     1       7.396  -7.717  -0.564  0.00  0.00    -0.166 F 
ATOM     15  F   UNL     1       6.711  -5.946   0.707  0.00  0.00    -0.166 F 
ATOM     16  F   UNL     1       5.321  -6.816  -0.883  0.00  0.00    -0.166 F 
ENDBRANCH  12  13
BRANCH  10  17
ATOM     17  N   UNL     1      10.016  -5.478  -4.080  0.00  0.00    +0.056 N 
ATOM     18  O   UNL     1      10.482  -4.708  -4.901  0.00  0.00    -0.126 OA
ATOM     19  O   UNL     1      10.517  -6.577  -3.923  0.00  0.00    -0.126 OA
ENDBRANCH  10  17
ENDBRANCH   5   7
ENDBRANCH   2   3
BRANCH   2  20
ATOM     20  O   UNL     1       3.924  -0.784  -0.057  0.00  0.00    -0.449 OA
BRANCH  20  21
ATOM     21  C   UNL     1       2.684  -0.256  -0.052  0.00  0.00    +0.340 C 
ATOM     22  O   UNL     1       1.712  -0.986  -0.053  0.00  0.00    -0.245 OA
BRANCH  21  23
ATOM     23  C   UNL     1       2.506   1.206  -0.044  0.00  0.00    +0.067 A 
ATOM     24  C   UNL     1       3.602   2.066  -0.042  0.00  0.00    +0.016 A 
ATOM     25  C   UNL     1       3.453   3.448  -0.034  0.00  0.00    +0.005 A 
ATOM     26  C   UNL     1       2.218   4.027  -0.028  0.00  0.00    -0.039 A 
ATOM     27  C   UNL     1       1.094   3.208  -0.031  0.00  0.00    -0.011 A 
ATOM     28  C   UNL     1       1.173   1.805  -0.038  0.00  0.00    -0.003 A 
ATOM     29  C   UNL     1      -0.021   1.076  -0.040  0.00  0.00    +0.009 A 
ATOM     30  C   UNL     1      -1.207   1.756  -0.040  0.00  0.00    +0.001 A 
ATOM     31  C   UNL     1      -1.265   3.151  -0.026  0.00  0.00    +0.004 A 
ATOM     32  C   UNL     1      -0.120   3.888  -0.024  0.00  0.00    -0.039 A 
ATOM     33  C   UNL     1       0.190   5.365  -0.016  0.00  0.00    +0.040 C 
ATOM     34  C   UNL     1       1.731   5.458  -0.018  0.00  0.00    +0.040 C 
ENDBRANCH  21  23
ENDBRANCH  20  21
ENDBRANCH   2  20
TORSDOF 7
