REMARK  Name = ZINC12131802
REMARK  6 active torsions:
REMARK  status: ('A' for Active; 'I' for Inactive)
REMARK    1  A    between atoms: C_4  and  C_7
REMARK    2  A    between atoms: C_18  and  C_19
REMARK    3  A    between atoms: C_18  and  N_68
REMARK    4  A    between atoms: C_19  and  C_20
REMARK    5  A    between atoms: N_22  and  C_23
REMARK    6  A    between atoms: C_23  and  C_24
REMARK                            x       y       z     vdW  Elec       q    Type
REMARK                         _______ _______ _______ _____ _____    ______ ____
ROOT
ATOM      1  C   UNL     1      -2.571  -2.730   0.012  0.00  0.00    -0.069 C 
ENDROOT
BRANCH   1  12
ATOM      2  C   UNL     1      -3.875  -6.211  -0.621  0.00  0.00    +0.187 C 
ATOM      3  C   UNL     1      -3.880  -4.739  -0.271  0.00  0.00    -0.028 C 
ATOM      4  C   UNL     1      -1.976  -4.724   1.247  0.00  0.00    -0.039 C 
ATOM      5  C   UNL     1      -1.313  -6.056   0.955  0.00  0.00    -0.022 A 
ATOM      6  C   UNL     1       0.059  -6.178   1.027  0.00  0.00    +0.005 A 
ATOM      7  C   UNL     1       0.652  -7.404   0.777  0.00  0.00    +0.000 A 
ATOM      8  C   UNL     1      -0.129  -8.500   0.458  0.00  0.00    +0.004 A 
ATOM      9  C   UNL     1      -1.503  -8.375   0.379  0.00  0.00    +0.046 A 
ATOM     10  C   UNL     1      -2.096  -7.144   0.621  0.00  0.00    +0.123 A 
ATOM     11  O   UNL     1      -3.444  -6.998   0.497  0.00  0.00    -0.486 OA
ATOM     12  N   UNL     1      -2.525  -4.201  -0.027  0.00  0.00    +0.385 N 
ATOM     13  H   UNL     1      -1.910  -4.494  -0.795  0.00  0.00    -0.081 HD
BRANCH   2  17
ATOM     14  C   UNL     1      -7.822  -7.403  -1.739  0.00  0.00    +0.000 A 
ATOM     15  C   UNL     1      -6.886  -7.111  -2.713  0.00  0.00    +0.000 A 
ATOM     16  C   UNL     1      -5.609  -6.725  -2.352  0.00  0.00    +0.007 A 
ATOM     17  C   UNL     1      -5.268  -6.632  -1.015  0.00  0.00    -0.009 A 
ATOM     18  C   UNL     1      -6.202  -6.929  -0.041  0.00  0.00    +0.007 A 
ATOM     19  C   UNL     1      -7.481  -7.310  -0.403  0.00  0.00    +0.000 A 
ENDBRANCH   2  17
ENDBRANCH   1  12
BRANCH   1  20
ATOM     20  C   UNL     1      -1.135  -2.201   0.001  0.00  0.00    +0.077 C 
BRANCH  20  21
ATOM     21  C   UNL     1      -1.156  -0.694   0.009  0.00  0.00    +0.211 C 
ATOM     22  O   UNL     1      -2.214  -0.102   0.023  0.00  0.00    -0.276 OA
ATOM     23  N   UNL     1       0.002  -0.004   0.002  0.00  0.00    -0.315 N 
ATOM     24  H   UNL     1       0.849  -0.478  -0.009  0.00  0.00    +0.149 HD
BRANCH  23  25
ATOM     25  C   UNL     1      -0.018   1.461   0.010  0.00  0.00    +0.109 C 
BRANCH  25  26
ATOM     26  C   UNL     1       1.418   1.990  -0.001  0.00  0.00    +0.024 C 
ATOM     27  C   UNL     1       1.401   3.516   0.133  0.00  0.00    +0.008 C 
ATOM     28  C   UNL     1       2.837   4.042   0.061  0.00  0.00    +0.019 C 
ATOM     29  C   UNL     1       3.472   3.599  -1.259  0.00  0.00    +0.108 C 
ATOM     30  N   UNL     1       3.465   2.133  -1.339  0.00  0.00    -0.299 N 
ATOM     31  C   UNL     1       2.094   1.607  -1.319  0.00  0.00    +0.113 C 
ATOM     32  C   UNL     1       4.148   1.694  -2.459  0.00  0.00    +0.218 A 
ATOM     33  N   UNL     1       5.158   0.849  -2.311  0.00  0.00    -0.223 NA
ATOM     34  C   UNL     1       5.829   0.406  -3.361  0.00  0.00    +0.116 A 
ATOM     35  C   UNL     1       5.471   0.845  -4.626  0.00  0.00    +0.039 A 
ATOM     36  C   UNL     1       4.413   1.732  -4.745  0.00  0.00    +0.116 A 
ATOM     37  N   UNL     1       3.781   2.132  -3.654  0.00  0.00    -0.223 NA
ENDBRANCH  25  26
ENDBRANCH  23  25
ENDBRANCH  20  21
ENDBRANCH   1  20
TORSDOF 6
