REMARK  Name = ZINC65265792
REMARK  5 active torsions:
REMARK  status: ('A' for Active; 'I' for Inactive)
REMARK    1  A    between atoms: C_1  and  O_2
REMARK    2  A    between atoms: O_2  and  C_3
REMARK    3  A    between atoms: C_3  and  C_4
REMARK    4  A    between atoms: C_4  and  N_5
REMARK    5  A    between atoms: C_21  and  C_23
REMARK                            x       y       z     vdW  Elec       q    Type
REMARK                         _______ _______ _______ _____ _____    ______ ____
ROOT
ATOM      1  N   UNL     1      -0.776  -2.556  -1.119  0.00  0.00    -0.373 N 
ATOM      2  C   UNL     1      -1.044  -3.820  -1.057  0.00  0.00    +0.095 C 
ATOM      3  N   UNL     1      -0.054  -4.762  -0.913  0.00  0.00    -0.303 N 
ATOM      4  C   UNL     1       0.319  -5.154   0.369  0.00  0.00    +0.037 A 
ATOM      5  C   UNL     1       1.663  -5.262   0.698  0.00  0.00    +0.023 A 
ATOM      6  C   UNL     1       2.038  -5.666   1.964  0.00  0.00    +0.002 A 
ATOM      7  C   UNL     1       1.062  -5.962   2.898  0.00  0.00    +0.000 A 
ATOM      8  C   UNL     1      -0.272  -5.849   2.574  0.00  0.00    +0.007 A 
ATOM      9  C   UNL     1      -0.668  -5.436   1.305  0.00  0.00    -0.012 A 
ATOM     10  C   UNL     1      -2.150  -5.310   1.062  0.00  0.00    +0.119 C 
ATOM     11  N   UNL     1      -2.519  -5.571  -0.337  0.00  0.00    -0.299 NA
ATOM     12  C   UNL     1      -2.442  -4.329  -1.132  0.00  0.00    +0.091 C 
ATOM     13  C   UNL     1      -2.883  -4.594  -2.582  0.00  0.00    +0.050 C 
ATOM     14  C   UNL     1      -4.421  -4.466  -2.501  0.00  0.00    +0.110 C 
ATOM     15  N   UNL     1      -4.732  -3.682  -1.296  0.00  0.00    -0.295 N 
ATOM     16  C   UNL     1      -3.467  -3.299  -0.638  0.00  0.00    +0.137 C 
ATOM     17  C   UNL     1      -5.969  -3.365  -0.863  0.00  0.00    +0.253 C 
ATOM     18  O   UNL     1      -6.109  -2.708   0.152  0.00  0.00    -0.269 OA
ATOM     19  H   UNL     1      -1.495  -1.912  -1.217  0.00  0.00    +0.161 HD
ATOM     20  H   UNL     1      -1.940  -6.295  -0.735  0.00  0.00    +0.123 HD
ATOM     21  H   UNL     1       0.377  -5.147  -1.692  0.00  0.00    +0.153 HD
ENDROOT
BRANCH  17  22
ATOM     22  C   UNL     1      -7.144  -3.812  -1.615  0.00  0.00    +0.075 A 
ATOM     23  C   UNL     1      -8.487  -3.592  -1.348  0.00  0.00    +0.022 A 
ATOM     24  C   UNL     1      -9.372  -4.143  -2.243  0.00  0.00    +0.028 A 
ATOM     25  C   UNL     1      -8.888  -4.845  -3.300  0.00  0.00    +0.079 A 
ATOM     26  S   UNL     1      -7.220  -4.773  -3.114  0.00  0.00    -0.072 S 
ATOM     27 CL   UNL     1      -9.788  -5.632  -4.559  0.00  0.00    -0.076 Cl
ENDBRANCH  17  22
BRANCH   1  28
ATOM     28  C   UNL     1       0.613  -2.097  -1.041  0.00  0.00    +0.141 C 
BRANCH  28  29
ATOM     29  C   UNL     1       0.652  -0.570  -1.138  0.00  0.00    +0.180 C 
BRANCH  29  31
ATOM     30  C   UNL     1      -0.017   1.425   0.010  0.00  0.00    +0.194 C 
ATOM     31  O   UNL     1       0.002  -0.004   0.002  0.00  0.00    -0.381 OA
ENDBRANCH  29  31
ENDBRANCH  28  29
ENDBRANCH   1  28
TORSDOF 4
