REMARK  Name = ZINC39482708
REMARK  10 active torsions:
REMARK  status: ('A' for Active; 'I' for Inactive)
REMARK    1  A    between atoms: C_1  and  O_2
REMARK    2  A    between atoms: O_2  and  C_3
REMARK    3  A    between atoms: N_6  and  C_10
REMARK    4  A    between atoms: C_12  and  S_27
REMARK    5  A    between atoms: C_15  and  N_16
REMARK    6  A    between atoms: N_16  and  S_17
REMARK    7  A    between atoms: S_17  and  C_20
REMARK    8  A    between atoms: C_25  and  O_26
REMARK    9  A    between atoms: S_27  and  O_30
REMARK   10  A    between atoms: O_30  and  C_31
REMARK                            x       y       z     vdW  Elec       q    Type
REMARK                         _______ _______ _______ _____ _____    ______ ____
ROOT
ATOM      1  C   UNL     1       2.260  -3.654   2.781  0.00  0.00    +0.054 A 
ATOM      2  C   UNL     1       3.366  -3.004   3.308  0.00  0.00    +0.055 A 
ATOM      3  C   UNL     1       4.588  -3.650   3.358  0.00  0.00    +0.130 A 
ATOM      4  C   UNL     1       4.710  -4.944   2.885  0.00  0.00    +0.032 A 
ATOM      5  C   UNL     1       3.612  -5.598   2.358  0.00  0.00    +0.028 A 
ATOM      6  C   UNL     1       2.382  -4.960   2.308  0.00  0.00    +0.069 A 
ENDROOT
BRANCH   1   9
ATOM      7  C   UNL     1       0.176  -0.825   2.028  0.00  0.00    +0.203 C 
ATOM      8  C   UNL     1       0.635  -2.208   1.553  0.00  0.00    +0.153 C 
ATOM      9  N   UNL     1       1.022  -3.002   2.729  0.00  0.00    -0.323 N 
ATOM     10  C   UNL     1       0.073  -3.092   3.850  0.00  0.00    +0.120 C 
ATOM     11  C   UNL     1      -0.363  -1.675   4.235  0.00  0.00    +0.102 C 
ATOM     12  N   UNL     1      -0.873  -0.982   3.044  0.00  0.00    -0.289 NA
ATOM     13  H   UNL     1      -1.276  -0.090   3.288  0.00  0.00    +0.124 HD
BRANCH   7  15
ATOM     14  C   UNL     1      -0.482   1.313   1.167  0.00  0.00    +0.196 C 
ATOM     15  O   UNL     1      -0.340  -0.087   0.919  0.00  0.00    -0.363 OA
ENDBRANCH   7  15
ENDBRANCH   1   9
BRANCH   3  16
ATOM     16  S   UNL     1       5.992  -2.823   4.027  0.00  0.00    +0.151 S 
ATOM     17  O   UNL     1       7.137  -3.445   3.461  0.00  0.00    -0.131 OA
ATOM     18  O   UNL     1       5.741  -1.430   3.900  0.00  0.00    -0.131 OA
BRANCH  16  19
ATOM     19  O   UNL     1       6.024  -3.125   5.518  0.00  0.00    -0.342 OA
BRANCH  19  20
ATOM     20  C   UNL     1       6.442  -4.383   5.818  0.00  0.00    +0.157 A 
ATOM     21  C   UNL     1       5.523  -5.417   5.911  0.00  0.00    +0.048 A 
ATOM     22  C   UNL     1       5.950  -6.695   6.216  0.00  0.00    +0.004 A 
ATOM     23  C   UNL     1       7.294  -6.943   6.428  0.00  0.00    +0.000 A 
ATOM     24  C   UNL     1       8.213  -5.914   6.336  0.00  0.00    +0.004 A 
ATOM     25  C   UNL     1       7.791  -4.636   6.026  0.00  0.00    +0.048 A 
ENDBRANCH  19  20
ENDBRANCH  16  19
ENDBRANCH   3  16
BRANCH   6  26
ATOM     26  N   UNL     1       1.268  -5.623   1.780  0.00  0.00    -0.214 N 
ATOM     27  H   UNL     1       0.602  -5.128   1.278  0.00  0.00    +0.174 HD
BRANCH  26  28
ATOM     28  S   UNL     1       1.087  -7.253   2.013  0.00  0.00    +0.076 S 
ATOM     29  O   UNL     1       1.353  -7.499   3.387  0.00  0.00    -0.150 OA
ATOM     30  O   UNL     1      -0.141  -7.617   1.398  0.00  0.00    -0.150 OA
BRANCH  28  31
ATOM     31  C   UNL     1       2.364  -8.054   1.101  0.00  0.00    +0.150 A 
ATOM     32  C   UNL     1       3.325  -8.794   1.762  0.00  0.00    +0.032 A 
ATOM     33  C   UNL     1       4.328  -9.423   1.047  0.00  0.00    +0.002 A 
ATOM     34  C   UNL     1       4.371  -9.313  -0.331  0.00  0.00    +0.004 A 
ATOM     35  C   UNL     1       3.412  -8.575  -0.996  0.00  0.00    +0.047 A 
ATOM     36  C   UNL     1       2.401  -7.947  -0.281  0.00  0.00    +0.143 A 
BRANCH  36  37
ATOM     37  O   UNL     1       1.453  -7.225  -0.934  0.00  0.00    -0.505 OA
ATOM     38  H   UNL     1       1.690  -6.297  -1.071  0.00  0.00    +0.292 HD
ENDBRANCH  36  37
ENDBRANCH  28  31
ENDBRANCH  26  28
ENDBRANCH   6  26
TORSDOF 9
