REMARK  Name = ZINC40137857
REMARK  11 active torsions:
REMARK  status: ('A' for Active; 'I' for Inactive)
REMARK    1  A    between atoms: C_1  and  C_2
REMARK    2  A    between atoms: N_9  and  N_10
REMARK    3  A    between atoms: C_11  and  C_13
REMARK    4  A    between atoms: C_15  and  N_22
REMARK    5  A    between atoms: C_17  and  N_19
REMARK    6  A    between atoms: N_27  and  C_28
REMARK    7  A    between atoms: C_28  and  C_29
REMARK    8  A    between atoms: C_29  and  O_30
REMARK    9  A    between atoms: O_30  and  C_31
REMARK   10  A    between atoms: C_34  and  O_37
REMARK   11  A    between atoms: O_37  and  C_38
REMARK                            x       y       z     vdW  Elec       q    Type
REMARK                         _______ _______ _______ _____ _____    ______ ____
ROOT
ATOM      1  C   UNL     1      -0.018   1.503   0.010  0.00  0.00    +0.044 C 
ATOM      2  C   UNL     1       0.002  -0.004   0.002  0.00  0.00    -0.050 A 
ATOM      3  C   UNL     1       0.006  -0.689  -1.201  0.00  0.00    +0.005 A 
ATOM      4  C   UNL     1       0.024  -2.069  -1.225  0.00  0.00    +0.024 A 
ATOM      5  C   UNL     1       0.040  -2.787  -0.034  0.00  0.00    +0.046 A 
ATOM      6  C   UNL     1       0.037  -2.090   1.181  0.00  0.00    +0.029 A 
ATOM      7  C   UNL     1       0.023  -0.700   1.194  0.00  0.00    +0.015 A 
ATOM      8  C   UNL     1       0.056  -3.115   2.251  0.00  0.00    +0.153 C 
ATOM      9  N   UNL     1       0.059  -2.916   3.547  0.00  0.00    -0.174 NA
ATOM     10  C   UNL     1       0.070  -4.409   1.540  0.00  0.00    +0.271 C 
ATOM     11  O   UNL     1       0.087  -5.510   2.056  0.00  0.00    -0.268 OA
ATOM     12  N   UNL     1       0.060  -4.154   0.220  0.00  0.00    -0.262 N 
ENDROOT
BRANCH   9  13
ATOM     13  N   UNL     1       0.079  -4.009   4.423  0.00  0.00    -0.202 N 
ATOM     14  C   UNL     1       0.082  -3.804   5.755  0.00  0.00    +0.263 C 
ATOM     15  O   UNL     1       0.068  -2.672   6.197  0.00  0.00    -0.268 OA
ATOM     16  H   UNL     1       0.090  -4.913   4.071  0.00  0.00    +0.178 HD
BRANCH  14  17
ATOM     17  C   UNL     1       0.102  -4.957   6.679  0.00  0.00    +0.043 A 
ATOM     18  C   UNL     1       0.124  -6.259   6.176  0.00  0.00    +0.046 A 
ATOM     19  C   UNL     1       0.144  -7.331   7.045  0.00  0.00    +0.129 A 
ATOM     20  C   UNL     1       0.142  -7.117   8.412  0.00  0.00    +0.065 A 
ATOM     21  C   UNL     1       0.120  -5.829   8.917  0.00  0.00    +0.129 A 
ATOM     22  C   UNL     1       0.106  -4.749   8.060  0.00  0.00    +0.046 A 
BRANCH  21  23
ATOM     23  N   UNL     1       0.118  -5.611  10.381  0.00  0.00    +0.057 N 
ATOM     24  O   UNL     1       0.135  -6.557  11.134  0.00  0.00    -0.126 OA
ATOM     25  O   UNL     1       0.099  -4.486  10.825  0.00  0.00    -0.126 OA
ENDBRANCH  21  23
BRANCH  19  26
ATOM     26  N   UNL     1       0.166  -8.712   6.513  0.00  0.00    +0.057 N 
ATOM     27  O   UNL     1       0.168  -8.900   5.319  0.00  0.00    -0.126 OA
ATOM     28  O   UNL     1       0.183  -9.652   7.273  0.00  0.00    -0.126 OA
ENDBRANCH  19  26
ENDBRANCH  14  17
ENDBRANCH   9  13
BRANCH  12  29
ATOM     29  C   UNL     1       0.069  -5.186  -0.820  0.00  0.00    +0.155 C 
BRANCH  29  30
ATOM     30  C   UNL     1       1.514  -5.526  -1.189  0.00  0.00    +0.248 C 
BRANCH  30  31
ATOM     31  O   UNL     1       2.167  -6.117  -0.063  0.00  0.00    -0.490 OA
BRANCH  31  32
ATOM     32  C   UNL     1       3.467  -6.481  -0.224  0.00  0.00    +0.121 A 
ATOM     33  C   UNL     1       4.102  -6.267  -1.439  0.00  0.00    +0.049 A 
ATOM     34  C   UNL     1       5.423  -6.636  -1.603  0.00  0.00    +0.049 A 
ATOM     35  C   UNL     1       6.115  -7.221  -0.552  0.00  0.00    +0.120 A 
ATOM     36  C   UNL     1       5.481  -7.434   0.663  0.00  0.00    +0.049 A 
ATOM     37  C   UNL     1       4.161  -7.061   0.828  0.00  0.00    +0.049 A 
BRANCH  35  38
ATOM     38  O   UNL     1       7.415  -7.585  -0.714  0.00  0.00    -0.495 OA
ATOM     39  C   UNL     1       8.066  -8.181   0.410  0.00  0.00    +0.277 C 
ENDBRANCH  35  38
ENDBRANCH  31  32
ENDBRANCH  30  31
ENDBRANCH  29  30
ENDBRANCH  12  29
TORSDOF 9
