REMARK  Name = ZINC18115797
REMARK  6 active torsions:
REMARK  status: ('A' for Active; 'I' for Inactive)
REMARK    1  A    between atoms: C_1  and  C_2
REMARK    2  A    between atoms: C_2  and  C_23
REMARK    3  A    between atoms: N_3  and  N_4
REMARK    4  A    between atoms: C_5  and  S_7
REMARK    5  A    between atoms: S_7  and  C_8
REMARK    6  A    between atoms: N_13  and  C_16
REMARK                            x       y       z     vdW  Elec       q    Type
REMARK                         _______ _______ _______ _____ _____    ______ ____
ROOT
ATOM      1  S   UNL     1      -0.062   0.566   5.295  0.00  0.00    -0.078 S 
ENDROOT
BRANCH   1   2
ATOM      2  C   UNL     1      -0.000  -0.959   6.276  0.00  0.00    +0.149 C 
ATOM      3  C   UNL     1       0.231  -0.636   7.766  0.00  0.00    +0.120 C 
ATOM      4  C   UNL     1      -1.008  -1.181   8.444  0.00  0.00    +0.228 C 
ATOM      5  O   UNL     1      -1.235  -1.135   9.633  0.00  0.00    -0.275 OA
ATOM      6  N   UNL     1      -1.813  -1.721   7.520  0.00  0.00    -0.209 N 
ATOM      7  C   UNL     1      -1.344  -1.654   6.264  0.00  0.00    +0.240 C 
ATOM      8  O   UNL     1      -1.906  -2.080   5.278  0.00  0.00    -0.274 OA
BRANCH   6   9
ATOM      9  C   UNL     1      -3.044  -2.311   7.839  0.00  0.00    +0.045 A 
ATOM     10  C   UNL     1      -3.219  -3.680   7.688  0.00  0.00    +0.024 A 
ATOM     11  C   UNL     1      -4.433  -4.260   8.002  0.00  0.00    +0.003 A 
ATOM     12  C   UNL     1      -5.473  -3.478   8.469  0.00  0.00    +0.020 A 
ATOM     13  C   UNL     1      -5.303  -2.113   8.621  0.00  0.00    +0.043 A 
ATOM     14  C   UNL     1      -4.088  -1.529   8.312  0.00  0.00    +0.044 A 
ATOM     15 CL   UNL     1      -6.612  -1.135   9.206  0.00  0.00    -0.083 Cl
ENDBRANCH   6   9
ENDBRANCH   1   2
BRANCH   1  17
ATOM     16  N   UNL     1      -0.326   0.905   2.604  0.00  0.00    -0.217 N 
ATOM     17  C   UNL     1      -0.244  -0.002   3.637  0.00  0.00    +0.146 C 
ATOM     18  N   UNL     1      -0.301  -1.281   3.388  0.00  0.00    -0.380 N 
ATOM     19  H   UNL     1      -0.283   1.856   2.790  0.00  0.00    +0.176 HD
ATOM     20  H   UNL     1      -0.243  -1.920   4.115  0.00  0.00    +0.158 HD
ATOM     21  H   UNL     1      -0.401  -1.594   2.475  0.00  0.00    +0.158 HD
BRANCH  16  24
ATOM     22  C   UNL     1      -0.482   2.788   0.598  0.00  0.00    +0.068 C 
ATOM     23  C   UNL     1      -0.548   1.310   0.311  0.00  0.00    +0.070 C 
ATOM     24  N   UNL     1      -0.470   0.454   1.286  0.00  0.00    -0.185 NA
BRANCH  23  25
ATOM     25  C   UNL     1      -0.699   0.837  -1.070  0.00  0.00    +0.035 A 
ATOM     26  C   UNL     1      -0.785  -0.460  -1.544  0.00  0.00    +0.017 A 
ATOM     27  C   UNL     1      -0.926  -0.653  -2.899  0.00  0.00    +0.008 A 
ATOM     28  C   UNL     1      -0.976   0.426  -3.723  0.00  0.00    +0.046 A 
ATOM     29  S   UNL     1      -0.829   1.786  -2.577  0.00  0.00    -0.095 S 
ENDBRANCH  23  25
ENDBRANCH  16  24
ENDBRANCH   1  17
TORSDOF 5
