REMARK  Name = ZINC08662132
REMARK  7 active torsions:
REMARK  status: ('A' for Active; 'I' for Inactive)
REMARK    1  A    between atoms: C_1  and  C_2
REMARK    2  A    between atoms: C_7  and  N_12
REMARK    3  A    between atoms: C_9  and  C_11
REMARK    4  A    between atoms: C_13  and  C_15
REMARK    5  A    between atoms: C_24  and  S_27
REMARK    6  A    between atoms: S_27  and  N_30
REMARK    7  A    between atoms: C_35  and  C_37
REMARK                            x       y       z     vdW  Elec       q    Type
REMARK                         _______ _______ _______ _____ _____    ______ ____
ROOT
ATOM      1  C   UNL     1       1.105   1.467  -0.513  0.00  0.00    +0.051 A 
ATOM      2  C   UNL     1      -0.211   1.121  -0.628  0.00  0.00    +0.083 A 
ATOM      3  C   UNL     1      -1.241   2.055  -0.178  0.00  0.00    +0.250 A 
ATOM      4  O   UNL     1      -2.416   1.747  -0.281  0.00  0.00    -0.268 OA
ATOM      5  N   UNL     1      -0.913   3.247   0.348  0.00  0.00    -0.322 N 
ATOM      6  H   UNL     1      -1.616   3.850   0.636  0.00  0.00    +0.169 HD
ATOM      7  C   UNL     1       0.404   3.633   0.482  0.00  0.00    +0.050 A 
ATOM      8  C   UNL     1       1.439   2.777   0.066  0.00  0.00    +0.012 A 
ATOM      9  C   UNL     1       2.771   3.177   0.206  0.00  0.00    +0.039 A 
ATOM     10  C   UNL     1       3.061   4.397   0.746  0.00  0.00    +0.106 A 
ATOM     11  C   UNL     1       2.043   5.246   1.159  0.00  0.00    +0.030 A 
ATOM     12  C   UNL     1       0.723   4.873   1.030  0.00  0.00    +0.028 A 
ENDROOT
BRANCH   1  14
ATOM     13  N   UNL     1       1.861  -0.709  -1.356  0.00  0.00    -0.308 N 
ATOM     14  C   UNL     1       2.174   0.541  -0.961  0.00  0.00    +0.245 C 
ATOM     15  O   UNL     1       3.331   0.910  -0.973  0.00  0.00    -0.270 OA
ATOM     16  H   UNL     1       0.932  -0.982  -1.411  0.00  0.00    +0.149 HD
BRANCH  13  22
ATOM     17  C   UNL     1       2.957  -4.708  -4.048  0.00  0.00    +0.008 C 
ATOM     18  C   UNL     1       3.496  -3.676  -3.055  0.00  0.00    -0.009 C 
ATOM     19  C   UNL     1       3.976  -4.388  -1.790  0.00  0.00    +0.003 C 
ATOM     20  C   UNL     1       4.515  -3.356  -0.797  0.00  0.00    +0.002 C 
ATOM     21  C   UNL     1       3.405  -2.367  -0.436  0.00  0.00    +0.022 C 
ATOM     22  C   UNL     1       2.924  -1.655  -1.702  0.00  0.00    +0.076 C 
ATOM     23  C   UNL     1       2.385  -2.687  -2.694  0.00  0.00    +0.009 C 
ATOM     24  C   UNL     1       1.216  -3.443  -2.059  0.00  0.00    +0.009 C 
ENDBRANCH  13  22
ENDBRANCH   1  14
BRANCH  10  25
ATOM     25  S   UNL     1       4.742   4.898   0.922  0.00  0.00    +0.061 S 
ATOM     26  O   UNL     1       4.748   5.984   1.838  0.00  0.00    -0.153 OA
ATOM     27  O   UNL     1       5.498   3.715   1.138  0.00  0.00    -0.153 OA
BRANCH  25  28
ATOM     28  N   UNL     1       5.225   5.509  -0.540  0.00  0.00    -0.174 NA
ATOM     29  C   UNL     1       6.030   4.695  -1.462  0.00  0.00    +0.110 C 
ATOM     30  C   UNL     1       7.290   5.480  -1.841  0.00  0.00    +0.017 C 
ATOM     31  C   UNL     1       6.886   6.847  -2.398  0.00  0.00    +0.003 C 
ATOM     32  C   UNL     1       6.131   7.634  -1.324  0.00  0.00    +0.020 C 
ATOM     33  C   UNL     1       4.854   6.872  -0.942  0.00  0.00    +0.077 C 
ATOM     34  C   UNL     1       4.162   7.580   0.225  0.00  0.00    +0.026 C 
ENDBRANCH  25  28
ENDBRANCH  10  25
TORSDOF 4
