REMARK  Name = ZINC48354924
REMARK  10 active torsions:
REMARK  status: ('A' for Active; 'I' for Inactive)
REMARK    1  A    between atoms: C_1  and  C_2
REMARK    2  A    between atoms: C_2  and  C_3
REMARK    3  A    between atoms: C_2  and  C_4
REMARK    4  A    between atoms: C_2  and  C_5
REMARK    5  A    between atoms: C_8  and  C_10
REMARK    6  A    between atoms: C_10  and  S_11
REMARK    7  A    between atoms: S_11  and  C_12
REMARK    8  A    between atoms: C_15  and  C_18
REMARK    9  A    between atoms: C_18  and  O_19
REMARK   10  A    between atoms: O_19  and  C_20
REMARK                            x       y       z     vdW  Elec       q    Type
REMARK                         _______ _______ _______ _____ _____    ______ ____
ROOT
ATOM      1  C   UNL     1       1.190  -4.819  -5.598  0.00  0.00    +0.185 A 
ATOM      2  N   UNL     1       0.780  -4.254  -6.715  0.00  0.00    -0.202 NA
ATOM      3  H   UNL     1       1.714  -6.799  -5.223  0.00  0.00    +0.191 HD
ATOM      4  C   UNL     1       0.718  -5.168  -7.684  0.00  0.00    +0.189 A 
ATOM      5  N   UNL     1       1.086  -6.325  -7.205  0.00  0.00    -0.153 NA
ATOM      6  N   UNL     1       1.404  -6.128  -5.852  0.00  0.00    -0.253 N 
ENDROOT
BRANCH   1   7
ATOM      7  S   UNL     1       1.424  -4.009  -4.051  0.00  0.00    -0.077 S 
BRANCH   7   8
ATOM      8  C   UNL     1       0.974  -2.284  -4.386  0.00  0.00    +0.173 C 
BRANCH   8  12
ATOM      9  C   UNL     1       0.707  -0.490  -1.238  0.00  0.00    +0.131 A 
ATOM     10  C   UNL     1       1.979  -0.232  -1.585  0.00  0.00    +0.156 A 
ATOM     11  N   UNL     1       2.215  -0.849  -2.757  0.00  0.00    -0.221 NA
ATOM     12  C   UNL     1       1.132  -1.470  -3.128  0.00  0.00    +0.206 A 
ATOM     13  O   UNL     1       0.183  -1.270  -2.203  0.00  0.00    -0.443 OA
BRANCH   9  15
ATOM     14  C   UNL     1      -0.019   1.526   0.010  0.00  0.00    +0.019 C 
ATOM     15  C   UNL     1       0.002  -0.004   0.002  0.00  0.00    +0.022 C 
ATOM     16  C   UNL     1       0.742  -0.511   1.242  0.00  0.00    +0.019 C 
ATOM     17  C   UNL     1      -1.433  -0.534   0.013  0.00  0.00    +0.019 C 
ENDBRANCH   9  15
ENDBRANCH   8  12
ENDBRANCH   7   8
ENDBRANCH   1   7
BRANCH   4  18
ATOM     18  C   UNL     1       0.291  -4.906  -9.106  0.00  0.00    +0.306 C 
BRANCH  18  19
ATOM     19  O   UNL     1       1.434  -4.555  -9.889  0.00  0.00    -0.484 OA
BRANCH  19  20
ATOM     20  C   UNL     1       1.222  -4.286 -11.204  0.00  0.00    +0.121 A 
ATOM     21  C   UNL     1      -0.061  -4.352 -11.728  0.00  0.00    +0.047 A 
ATOM     22  C   UNL     1      -0.275  -4.078 -13.065  0.00  0.00    +0.023 A 
ATOM     23  C   UNL     1       0.789  -3.738 -13.881  0.00  0.00    +0.041 A 
ATOM     24  C   UNL     1       2.069  -3.671 -13.361  0.00  0.00    +0.023 A 
ATOM     25  C   UNL     1       2.286  -3.938 -12.023  0.00  0.00    +0.047 A 
ATOM     26 CL   UNL     1       0.518  -3.394 -15.561  0.00  0.00    -0.084 Cl
ENDBRANCH  19  20
ENDBRANCH  18  19
ENDBRANCH   4  18
TORSDOF 7
