REMARK  Name = ZINC01838784
REMARK  9 active torsions:
REMARK  status: ('A' for Active; 'I' for Inactive)
REMARK    1  A    between atoms: C_1  and  C_2
REMARK    2  A    between atoms: C_5  and  S_8
REMARK    3  A    between atoms: S_8  and  N_11
REMARK    4  A    between atoms: C_13  and  C_29
REMARK    5  A    between atoms: N_17  and  S_19
REMARK    6  A    between atoms: S_19  and  C_22
REMARK    7  A    between atoms: C_25  and  C_28
REMARK    8  A    between atoms: C_29  and  C_31
REMARK    9  A    between atoms: C_34  and  N_37
REMARK                            x       y       z     vdW  Elec       q    Type
REMARK                         _______ _______ _______ _____ _____    ______ ____
ROOT
ATOM      1  N   UNL     1      -1.166   3.704   0.066  0.00  0.00    -0.192 NA
ATOM      2  C   UNL     1      -0.700   3.214   1.372  0.00  0.00    +0.121 C 
ATOM      3  C   UNL     1      -0.554   1.691   1.292  0.00  0.00    +0.048 C 
ATOM      4  C   UNL     1       0.313   1.331   0.081  0.00  0.00    -0.058 C 
ATOM      5  C   UNL     1      -0.430   3.293  -1.137  0.00  0.00    +0.036 C 
ATOM      6  C   UNL     1      -1.626   1.198  -1.370  0.00  0.00    +0.036 C 
ATOM      7  N   UNL     1      -2.468   1.426  -0.192  0.00  0.00    -0.192 NA
ATOM      8  C   UNL     1      -1.938   1.054   1.128  0.00  0.00    +0.121 C 
ATOM      9  N   UNL     1      -0.298   1.820  -1.175  0.00  0.00    +0.399 N 
ATOM     10  H   UNL     1       0.308   1.560  -1.962  0.00  0.00    -0.078 HD
ENDROOT
BRANCH   1  11
ATOM     11  S   UNL     1      -2.489   4.694  -0.046  0.00  0.00    +0.059 S 
ATOM     12  O   UNL     1      -2.919   4.646  -1.399  0.00  0.00    -0.153 OA
ATOM     13  O   UNL     1      -3.343   4.355   1.038  0.00  0.00    -0.153 OA
BRANCH  11  18
ATOM     14  C   UNL     1      -0.586  10.331   0.958  0.00  0.00    +0.044 C 
ATOM     15  C   UNL     1      -1.062   8.924   0.707  0.00  0.00    -0.050 A 
ATOM     16  C   UNL     1      -1.174   8.452  -0.588  0.00  0.00    +0.005 A 
ATOM     17  C   UNL     1      -1.610   7.161  -0.818  0.00  0.00    +0.029 A 
ATOM     18  C   UNL     1      -1.933   6.340   0.247  0.00  0.00    +0.105 A 
ATOM     19  C   UNL     1      -1.827   6.814   1.542  0.00  0.00    +0.029 A 
ATOM     20  C   UNL     1      -1.387   8.104   1.772  0.00  0.00    +0.005 A 
ENDBRANCH  11  18
ENDBRANCH   1  11
BRANCH   7  21
ATOM     21  S   UNL     1      -3.980   2.085  -0.344  0.00  0.00    +0.059 S 
ATOM     22  O   UNL     1      -4.333   2.591   0.935  0.00  0.00    -0.153 OA
ATOM     23  O   UNL     1      -3.951   2.904  -1.506  0.00  0.00    -0.153 OA
BRANCH  21  24
ATOM     24  C   UNL     1      -5.092   0.763  -0.688  0.00  0.00    +0.105 A 
ATOM     25  C   UNL     1      -5.271   0.330  -1.988  0.00  0.00    +0.029 A 
ATOM     26  C   UNL     1      -6.140  -0.711  -2.257  0.00  0.00    +0.005 A 
ATOM     27  C   UNL     1      -6.838  -1.312  -1.227  0.00  0.00    -0.050 A 
ATOM     28  C   UNL     1      -6.664  -0.876   0.073  0.00  0.00    +0.005 A 
ATOM     29  C   UNL     1      -5.791   0.162   0.343  0.00  0.00    +0.029 A 
ATOM     30  C   UNL     1      -7.789  -2.444  -1.520  0.00  0.00    +0.044 C 
ENDBRANCH  21  24
ENDBRANCH   7  21
BRANCH   3  31
ATOM     31  C   UNL     1       0.100   1.181   2.550  0.00  0.00    +0.170 C 
ATOM     32  O   UNL     1       0.426   1.958   3.421  0.00  0.00    -0.291 OA
BRANCH  31  33
ATOM     33  C   UNL     1       0.343  -0.260   2.721  0.00  0.00    +0.018 A 
ATOM     34  C   UNL     1      -0.028  -1.160   1.717  0.00  0.00    +0.013 A 
ATOM     35  C   UNL     1       0.206  -2.508   1.883  0.00  0.00    +0.033 A 
ATOM     36  C   UNL     1       0.799  -2.974   3.044  0.00  0.00    +0.126 A 
ATOM     37  C   UNL     1       1.164  -2.090   4.045  0.00  0.00    +0.033 A 
ATOM     38  C   UNL     1       0.940  -0.738   3.892  0.00  0.00    +0.013 A 
BRANCH  36  39
ATOM     39  N   UNL     1       1.042  -4.423   3.216  0.00  0.00    +0.056 N 
ATOM     40  O   UNL     1       1.563  -4.836   4.237  0.00  0.00    -0.126 OA
ATOM     41  O   UNL     1       0.722  -5.203   2.338  0.00  0.00    -0.126 OA
ENDBRANCH  36  39
ENDBRANCH  31  33
ENDBRANCH   3  31
TORSDOF 7
