REMARK  Name = ZINC06600922
REMARK  11 active torsions:
REMARK  status: ('A' for Active; 'I' for Inactive)
REMARK    1  A    between atoms: C_1  and  C_2
REMARK    2  A    between atoms: C_2  and  O_3
REMARK    3  A    between atoms: O_3  and  C_4
REMARK    4  A    between atoms: C_7  and  N_10
REMARK    5  A    between atoms: N_10  and  C_11
REMARK    6  A    between atoms: C_11  and  C_12
REMARK    7  A    between atoms: N_14  and  C_15
REMARK    8  A    between atoms: C_15  and  C_16
REMARK    9  A    between atoms: C_22  and  C_24
REMARK   10  A    between atoms: C_25  and  N_32
REMARK   11  A    between atoms: C_26  and  C_29
REMARK                            x       y       z     vdW  Elec       q    Type
REMARK                         _______ _______ _______ _____ _____    ______ ____
ROOT
ATOM      1  N   UNL     1      -1.328   3.513  -0.004  0.00  0.00    -0.258 N 
ATOM      2  C   UNL     1      -1.133   4.105   1.191  0.00  0.00    +0.261 C 
ATOM      3  O   UNL     1      -0.847   5.287   1.245  0.00  0.00    -0.269 OA
ENDROOT
BRANCH   1   7
ATOM      4  C   UNL     1      -0.558   5.615  -3.522  0.00  0.00    +0.121 A 
ATOM      5  C   UNL     1      -0.207   6.162  -2.297  0.00  0.00    +0.047 A 
ATOM      6  C   UNL     1      -0.462   5.466  -1.131  0.00  0.00    +0.027 A 
ATOM      7  C   UNL     1      -1.069   4.219  -1.186  0.00  0.00    +0.037 A 
ATOM      8  C   UNL     1      -1.415   3.669  -2.413  0.00  0.00    +0.027 A 
ATOM      9  C   UNL     1      -1.166   4.369  -3.577  0.00  0.00    +0.047 A 
BRANCH   4  10
ATOM     10  O   UNL     1      -0.308   6.300  -4.669  0.00  0.00    -0.492 OA
BRANCH  10  12
ATOM     11  C   UNL     1      -0.337   6.591  -7.068  0.00  0.00    +0.048 C 
ATOM     12  C   UNL     1      -0.696   5.677  -5.895  0.00  0.00    +0.225 C 
ENDBRANCH  10  12
ENDBRANCH   4  10
ENDBRANCH   1   7
BRANCH   2  13
ATOM     13  C   UNL     1      -1.265   3.327   2.424  0.00  0.00    +0.116 A 
ATOM     14  C   UNL     1      -1.236   3.760   3.751  0.00  0.00    +0.076 A 
ATOM     15  C   UNL     1      -1.399   2.712   4.658  0.00  0.00    +0.155 A 
ATOM     16  N   UNL     1      -1.547   1.487   4.205  0.00  0.00    -0.203 NA
ATOM     17  S   UNL     1      -1.497   1.574   2.632  0.00  0.00    +0.019 S 
BRANCH  15  18
ATOM     18  C   UNL     1      -1.401   2.976   6.108  0.00  0.00    +0.262 C 
ATOM     19  O   UNL     1      -1.264   4.112   6.520  0.00  0.00    -0.269 OA
ATOM     20  N   UNL     1      -1.555   1.958   6.978  0.00  0.00    -0.324 N 
ATOM     21  H   UNL     1      -1.664   1.052   6.650  0.00  0.00    +0.145 HD
ATOM     22  H   UNL     1      -1.556   2.132   7.933  0.00  0.00    +0.145 HD
ENDBRANCH  15  18
BRANCH  14  23
ATOM     23  N   UNL     1      -1.066   5.086   4.126  0.00  0.00    -0.355 N 
ATOM     24  H   UNL     1      -0.959   5.772   3.449  0.00  0.00    +0.142 HD
ATOM     25  H   UNL     1      -1.055   5.326   5.066  0.00  0.00    +0.142 HD
ENDBRANCH  14  23
ENDBRANCH   2  13
BRANCH   1  26
ATOM     26  C   UNL     1      -1.810   2.131  -0.067  0.00  0.00    +0.209 C 
BRANCH  26  27
ATOM     27  C   UNL     1      -0.635   1.188  -0.029  0.00  0.00    +0.231 C 
ATOM     28  O   UNL     1       0.493   1.626   0.039  0.00  0.00    -0.274 OA
ATOM     29  N   UNL     1      -0.839  -0.144  -0.075  0.00  0.00    -0.312 N 
ATOM     30  H   UNL     1      -1.742  -0.495  -0.129  0.00  0.00    +0.149 HD
BRANCH  29  31
ATOM     31  C   UNL     1       0.303  -1.061  -0.044  0.00  0.00    +0.135 C 
BRANCH  31  32
ATOM     32  C   UNL     1      -0.201  -2.505  -0.108  0.00  0.00    +0.135 C 
ATOM     33  C   UNL     1       0.976  -3.492   0.049  0.00  0.00    +0.035 C 
ATOM     34  C   UNL     1       0.624  -4.652  -0.909  0.00  0.00    +0.031 C 
ATOM     35  C   UNL     1      -0.724  -4.228  -1.532  0.00  0.00    +0.160 C 
ATOM     36  O   UNL     1      -0.749  -2.788  -1.414  0.00  0.00    -0.375 OA
ENDBRANCH  31  32
ENDBRANCH  29  31
ENDBRANCH  26  27
ENDBRANCH   1  26
TORSDOF 10
