REMARK  Name = ZINC63376041
REMARK  8 active torsions:
REMARK  status: ('A' for Active; 'I' for Inactive)
REMARK    1  A    between atoms: C_1  and  C_2
REMARK    2  A    between atoms: C_2  and  C_3
REMARK    3  A    between atoms: C_3  and  C_5
REMARK    4  A    between atoms: C_3  and  N_6
REMARK    5  A    between atoms: C_7  and  C_9
REMARK    6  A    between atoms: C_12  and  N_15
REMARK    7  A    between atoms: C_31  and  C_36
REMARK    8  A    between atoms: C_39  and  C_42
REMARK                            x       y       z     vdW  Elec       q    Type
REMARK                         _______ _______ _______ _____ _____    ______ ____
ROOT
ATOM      1  N   UNL     1      -2.288   1.216   8.309  0.00  0.00    -0.193 N 
ATOM      2  C   UNL     1      -1.758   1.304   9.547  0.00  0.00    +0.248 C 
ATOM      3  O   UNL     1      -0.632   1.008   9.884  0.00  0.00    -0.273 OA
ATOM      4  C   UNL     1      -2.861   1.850  10.426  0.00  0.00    +0.169 C 
ATOM      5  C   UNL     1      -3.161   0.862  11.567  0.00  0.00    +0.065 C 
ATOM      6  C   UNL     1      -4.578   1.141  12.011  0.00  0.00    -0.034 C 
ATOM      7  C   UNL     1      -5.070   1.419  13.214  0.00  0.00    -0.001 A 
ATOM      8  C   UNL     1      -4.440   1.456  14.543  0.00  0.00    +0.010 A 
ATOM      9  C   UNL     1      -5.248   1.803  15.580  0.00  0.00    +0.001 A 
ATOM     10  C   UNL     1      -6.604   2.112  15.428  0.00  0.00    +0.002 A 
ATOM     11  C   UNL     1      -7.267   2.095  14.245  0.00  0.00    +0.026 A 
ATOM     12  C   UNL     1      -6.524   1.738  13.082  0.00  0.00    +0.043 A 
ATOM     13  N   UNL     1      -6.903   1.624  11.844  0.00  0.00    -0.375 N 
ATOM     14  C   UNL     1      -5.760   1.168  11.050  0.00  0.00    +0.131 C 
ATOM     15  C   UNL     1      -5.410   2.168   9.938  0.00  0.00    +0.135 C 
ATOM     16  N   UNL     1      -4.025   1.900   9.518  0.00  0.00    -0.264 N 
ATOM     17  C   UNL     1      -3.575   1.592   8.295  0.00  0.00    +0.317 C 
ATOM     18  O   UNL     1      -4.254   1.645   7.288  0.00  0.00    -0.252 OA
ATOM     19  H   UNL     1      -7.792   1.810  11.503  0.00  0.00    +0.160 HD
ENDROOT
BRANCH  15  20
ATOM     20  C   UNL     1      -6.348   1.990   8.772  0.00  0.00    -0.025 A 
ATOM     21  C   UNL     1      -6.438   0.765   8.138  0.00  0.00    +0.006 A 
ATOM     22  C   UNL     1      -7.298   0.602   7.069  0.00  0.00    +0.004 A 
ATOM     23  C   UNL     1      -8.069   1.664   6.633  0.00  0.00    -0.050 A 
ATOM     24  C   UNL     1      -7.979   2.889   7.268  0.00  0.00    +0.004 A 
ATOM     25  C   UNL     1      -7.122   3.050   8.340  0.00  0.00    +0.006 A 
ATOM     26  C   UNL     1      -9.006   1.486   5.466  0.00  0.00    +0.044 C 
ENDBRANCH  15  20
BRANCH   1  30
ATOM     27  C   UNL     1      -0.182  -0.056   4.944  0.00  0.00    +0.037 A 
ATOM     28  C   UNL     1      -1.554   0.196   4.858  0.00  0.00    +0.015 A 
ATOM     29  C   UNL     1      -2.246   0.616   5.972  0.00  0.00    +0.025 A 
ATOM     30  C   UNL     1      -1.582   0.789   7.181  0.00  0.00    +0.045 A 
ATOM     31  C   UNL     1      -0.217   0.540   7.271  0.00  0.00    +0.025 A 
ATOM     32  C   UNL     1       0.481   0.114   6.162  0.00  0.00    +0.015 A 
BRANCH  27  34
ATOM     33  N   UNL     1      -0.077  -0.671   2.579  0.00  0.00    -0.309 N 
ATOM     34  C   UNL     1       0.564  -0.507   3.753  0.00  0.00    +0.244 C 
ATOM     35  O   UNL     1       1.757  -0.731   3.830  0.00  0.00    -0.270 OA
ATOM     36  H   UNL     1      -1.028  -0.492   2.516  0.00  0.00    +0.149 HD
BRANCH  33  37
ATOM     37  C   UNL     1       0.663  -1.118   1.396  0.00  0.00    +0.070 C 
ATOM     38  C   UNL     1       0.748  -2.646   1.395  0.00  0.00    +0.028 C 
BRANCH  37  40
ATOM     39  C   UNL     1      -0.035   0.882   0.071  0.00  0.00    +0.005 C 
ATOM     40  C   UNL     1      -0.060  -0.647   0.133  0.00  0.00    +0.018 C 
ENDBRANCH  37  40
ENDBRANCH  33  37
ENDBRANCH  27  34
ENDBRANCH   1  30
TORSDOF 5
