REMARK  Name = ZINC21865033
REMARK  11 active torsions:
REMARK  status: ('A' for Active; 'I' for Inactive)
REMARK    1  A    between atoms: C_1  and  C_2
REMARK    2  A    between atoms: C_2  and  O_3
REMARK    3  A    between atoms: O_3  and  C_4
REMARK    4  A    between atoms: C_4  and  C_5
REMARK    5  A    between atoms: C_5  and  C_6
REMARK    6  A    between atoms: C_6  and  N_7
REMARK    7  A    between atoms: C_13  and  C_30
REMARK    8  A    between atoms: C_16  and  C_17
REMARK    9  A    between atoms: C_16  and  C_18
REMARK   10  A    between atoms: N_20  and  C_21
REMARK   11  A    between atoms: C_27  and  C_29
REMARK                            x       y       z     vdW  Elec       q    Type
REMARK                         _______ _______ _______ _____ _____    ______ ____
ROOT
ATOM      1  N   UNL     1      -0.810   5.588  -0.261  0.00  0.00    -0.281 N 
ATOM      2  C   UNL     1      -1.528   4.457  -0.064  0.00  0.00    +0.264 C 
ATOM      3  O   UNL     1      -2.741   4.477   0.035  0.00  0.00    -0.268 OA
ATOM      4  C   UNL     1      -0.766   3.208   0.024  0.00  0.00    +0.105 A 
ATOM      5  C   UNL     1      -1.184   1.905   0.027  0.00  0.00    +0.033 A 
ATOM      6  C   UNL     1      -0.045   1.104   0.111  0.00  0.00    +0.032 A 
ATOM      7  C   UNL     1       1.060   1.940   0.150  0.00  0.00    +0.085 A 
ATOM      8  N   UNL     1       0.622   3.223   0.105  0.00  0.00    -0.331 N 
ATOM      9  C   UNL     1       1.376   4.479   0.145  0.00  0.00    +0.157 C 
ATOM     10  C   UNL     1       0.603   5.552  -0.620  0.00  0.00    +0.128 C 
ATOM     11  C   UNL     1       0.725   5.276  -2.120  0.00  0.00    +0.043 C 
ENDROOT
BRANCH   7  12
ATOM     12  C   UNL     1       2.463   1.511   0.227  0.00  0.00    +0.151 A 
ATOM     13  C   UNL     1       2.911   0.224   0.181  0.00  0.00    +0.051 A 
ATOM     14  C   UNL     1       4.313   0.279   0.285  0.00  0.00    +0.042 A 
ATOM     15  C   UNL     1       4.651   1.580   0.397  0.00  0.00    +0.196 A 
ATOM     16  O   UNL     1       3.532   2.321   0.361  0.00  0.00    -0.461 OA
ENDBRANCH   7  12
BRANCH  10  17
ATOM     17  C   UNL     1       1.215   6.897  -0.324  0.00  0.00    +0.238 C 
ATOM     18  O   UNL     1       1.825   7.071   0.709  0.00  0.00    -0.273 OA
ATOM     19  N   UNL     1       1.083   7.907  -1.207  0.00  0.00    -0.310 N 
ATOM     20  H   UNL     1       0.452   7.778  -2.099  0.00  0.00    +0.149 HD
BRANCH  19  21
ATOM     21  C   UNL     1       1.781   9.175  -0.980  0.00  0.00    +0.076 C 
ATOM     22  C   UNL     1       3.238   9.043  -1.426  0.00  0.00    +0.022 C 
ATOM     23  C   UNL     1       3.966  10.367  -1.188  0.00  0.00    +0.002 C 
ATOM     24  C   UNL     1       3.285  11.476  -1.993  0.00  0.00    +0.000 C 
ATOM     25  C   UNL     1       1.827  11.608  -1.547  0.00  0.00    +0.005 C 
ATOM     26  C   UNL     1       1.099  10.283  -1.785  0.00  0.00    +0.006 C 
ATOM     27  C   UNL     1      -0.358  10.415  -1.338  0.00  0.00    +0.009 C 
ENDBRANCH  19  21
ENDBRANCH  10  17
BRANCH   1  28
ATOM     28  C   UNL     1      -1.472   6.886  -0.108  0.00  0.00    +0.111 C 
BRANCH  28  29
ATOM     29  C   UNL     1      -1.460   7.295   1.366  0.00  0.00    +0.047 C 
BRANCH  29  30
ATOM     30  C   UNL     1      -2.261   8.586   1.544  0.00  0.00    +0.161 C 
BRANCH  30  31
ATOM     31  O   UNL     1      -2.154   9.031   2.898  0.00  0.00    -0.380 OA
BRANCH  31  33
ATOM     32  C   UNL     1      -2.673  10.633   4.631  0.00  0.00    +0.034 C 
ATOM     33  C   UNL     1      -2.958  10.172   3.200  0.00  0.00    +0.156 C 
ENDBRANCH  31  33
ENDBRANCH  30  31
ENDBRANCH  29  30
ENDBRANCH  28  29
ENDBRANCH   1  28
TORSDOF 8
