REMARK  Name = ZINC39597906
REMARK  9 active torsions:
REMARK  status: ('A' for Active; 'I' for Inactive)
REMARK    1  A    between atoms: C_1  and  C_2
REMARK    2  A    between atoms: C_2  and  C_3
REMARK    3  A    between atoms: C_3  and  C_5
REMARK    4  A    between atoms: C_3  and  C_6
REMARK    5  A    between atoms: C_6  and  C_7
REMARK    6  A    between atoms: C_11  and  C_20
REMARK    7  A    between atoms: N_22  and  C_23
REMARK    8  A    between atoms: C_23  and  C_24
REMARK    9  A    between atoms: C_24  and  C_25
REMARK                            x       y       z     vdW  Elec       q    Type
REMARK                         _______ _______ _______ _____ _____    ______ ____
ROOT
ATOM      1  C   UNL     1      -2.986  -2.594   0.242  0.00  0.00    +0.216 C 
ATOM      2  O   UNL     1      -3.931  -1.836   0.301  0.00  0.00    -0.276 OA
ATOM      3  N   UNL     1      -3.176  -3.920   0.393  0.00  0.00    -0.300 N 
ATOM      4  C   UNL     1      -2.155  -4.993   0.360  0.00  0.00    +0.121 C 
ATOM      5  C   UNL     1      -2.586  -5.977   1.470  0.00  0.00    +0.100 C 
ATOM      6  C   UNL     1      -4.095  -5.738   1.642  0.00  0.00    -0.004 C 
ATOM      7  C   UNL     1      -4.453  -4.633   0.637  0.00  0.00    +0.115 C 
ATOM      8  C   UNL     1      -4.872  -7.013   1.326  0.00  0.00    -0.010 C 
ATOM      9  C   UNL     1      -6.365  -6.766   1.560  0.00  0.00    -0.082 C 
ATOM     10  N   UNL     1      -6.585  -6.369   2.956  0.00  0.00    +0.379 N 
ATOM     11  C   UNL     1      -5.910  -5.094   3.226  0.00  0.00    -0.082 C 
ATOM     12  C   UNL     1      -4.398  -5.269   3.062  0.00  0.00    -0.010 C 
ATOM     13  H   UNL     1      -7.574  -6.267   3.123  0.00  0.00    -0.086 HD
ATOM     14  H   UNL     1      -6.214  -7.080   3.569  0.00  0.00    -0.086 HD
ENDROOT
BRANCH   5  15
ATOM     15  C   UNL     1      -2.323  -7.399   1.043  0.00  0.00    +0.218 C 
ATOM     16  O   UNL     1      -2.379  -7.699  -0.130  0.00  0.00    -0.275 OA
ATOM     17  N   UNL     1      -2.025  -8.335   1.966  0.00  0.00    -0.315 N 
ATOM     18  H   UNL     1      -1.981  -8.094   2.904  0.00  0.00    +0.149 HD
BRANCH  17  19
ATOM     19  C   UNL     1      -1.770  -9.717   1.551  0.00  0.00    +0.109 C 
BRANCH  19  20
ATOM     20  C   UNL     1      -1.458 -10.570   2.782  0.00  0.00    +0.056 C 
BRANCH  20  21
ATOM     21  C   UNL     1      -1.195 -11.991   2.355  0.00  0.00    -0.021 A 
ATOM     22  C   UNL     1       0.082 -12.540   1.893  0.00  0.00    +0.003 A 
ATOM     23  C   UNL     1       1.357 -12.004   1.707  0.00  0.00    +0.010 A 
ATOM     24  C   UNL     1       2.368 -12.802   1.249  0.00  0.00    +0.001 A 
ATOM     25  C   UNL     1       2.136 -14.141   0.968  0.00  0.00    +0.002 A 
ATOM     26  C   UNL     1       0.885 -14.690   1.145  0.00  0.00    +0.026 A 
ATOM     27  C   UNL     1      -0.158 -13.897   1.610  0.00  0.00    +0.047 A 
ATOM     28  N   UNL     1      -1.485 -14.140   1.884  0.00  0.00    -0.360 N 
ATOM     29  C   UNL     1      -2.086 -12.995   2.332  0.00  0.00    +0.087 A 
ATOM     30  H   UNL     1      -1.928 -14.997   1.778  0.00  0.00    +0.165 HD
ENDBRANCH  20  21
ENDBRANCH  19  20
ENDBRANCH  17  19
ENDBRANCH   5  15
BRANCH   1  31
ATOM     31  C   UNL     1      -1.600  -2.054  -0.000  0.00  0.00    +0.099 C 
BRANCH  31  32
ATOM     32  C   UNL     1      -1.663  -0.532  -0.135  0.00  0.00    -0.006 C 
ATOM     33  C   UNL     1      -2.465  -0.163  -1.385  0.00  0.00    +0.008 C 
BRANCH  32  35
ATOM     34  C   UNL     1      -0.298   1.557  -0.266  0.00  0.00    +0.004 C 
ATOM     35  C   UNL     1      -0.244   0.028  -0.257  0.00  0.00    +0.000 C 
ENDBRANCH  32  35
ENDBRANCH  31  32
ENDBRANCH   1  31
TORSDOF 7
