REMARK  Name = ZINC01819431
REMARK  8 active torsions:
REMARK  status: ('A' for Active; 'I' for Inactive)
REMARK    1  A    between atoms: C_1  and  C_2
REMARK    2  A    between atoms: C_6  and  N_8
REMARK    3  A    between atoms: C_20  and  S_21
REMARK    4  A    between atoms: S_21  and  C_22
REMARK    5  A    between atoms: C_22  and  C_24
REMARK    6  A    between atoms: C_22  and  C_25
REMARK    7  A    between atoms: N_27  and  C_28
REMARK    8  A    between atoms: C_28  and  C_29
REMARK                            x       y       z     vdW  Elec       q    Type
REMARK                         _______ _______ _______ _____ _____    ______ ____
ROOT
ATOM      1  N   UNL     1       0.050  -2.798   2.393  0.00  0.00    -0.245 N 
ATOM      2  C   UNL     1       0.144  -2.123   3.551  0.00  0.00    +0.268 A 
ATOM      3  O   UNL     1       0.214  -0.907   3.546  0.00  0.00    -0.266 OA
ATOM      4  C   UNL     1       0.160  -2.864   4.833  0.00  0.00    +0.075 A 
ATOM      5  C   UNL     1       0.258  -2.318   6.187  0.00  0.00    -0.023 A 
ATOM      6  C   UNL     1       0.249  -3.239   7.172  0.00  0.00    -0.004 A 
ATOM      7  S   UNL     1       0.113  -4.789   6.332  0.00  0.00    -0.074 S 
ATOM      8  C   UNL     1       0.073  -4.248   4.750  0.00  0.00    +0.102 A 
ATOM      9  N   UNL     1      -0.021  -4.898   3.537  0.00  0.00    -0.249 N 
ATOM     10  C   UNL     1      -0.037  -4.181   2.369  0.00  0.00    +0.245 A 
ATOM     11  N   UNL     1      -0.137  -5.031   1.374  0.00  0.00    -0.109 NA
ATOM     12  N   UNL     1      -0.193  -6.323   1.910  0.00  0.00    -0.120 NA
ATOM     13  C   UNL     1      -0.115  -6.226   3.215  0.00  0.00    +0.199 A 
ATOM     14  C   UNL     1       0.338  -2.984   8.645  0.00  0.00    +0.043 C 
ATOM     15  C   UNL     1       0.821  -1.541   8.855  0.00  0.00    +0.005 C 
ATOM     16  C   UNL     1      -0.004  -0.608   7.963  0.00  0.00    +0.005 C 
ATOM     17  C   UNL     1       0.363  -0.831   6.494  0.00  0.00    +0.037 C 
ENDROOT
BRANCH   1  23
ATOM     18  C   UNL     1       2.501  -0.798  -1.371  0.00  0.00    +0.044 C 
ATOM     19  C   UNL     1       1.209  -1.106  -0.660  0.00  0.00    -0.048 A 
ATOM     20  C   UNL     1       0.006  -0.688  -1.200  0.00  0.00    +0.003 A 
ATOM     21  C   UNL     1      -1.181  -0.968  -0.550  0.00  0.00    +0.002 A 
ATOM     22  C   UNL     1      -1.170  -1.667   0.641  0.00  0.00    +0.026 A 
ATOM     23  C   UNL     1       0.035  -2.089   1.186  0.00  0.00    +0.053 A 
ATOM     24  C   UNL     1       1.227  -1.811   0.528  0.00  0.00    +0.029 A 
ENDBRANCH   1  23
BRANCH  13  25
ATOM     25  S   UNL     1      -0.143  -7.568   4.356  0.00  0.00    -0.073 S 
BRANCH  25  26
ATOM     26  C   UNL     1      -0.278  -9.038   3.302  0.00  0.00    +0.137 C 
ATOM     27  C   UNL     1      -1.621  -9.018   2.568  0.00  0.00    +0.029 C 
BRANCH  26  28
ATOM     28  C   UNL     1      -0.190 -10.277   4.154  0.00  0.00    +0.226 C 
ATOM     29  O   UNL     1      -0.500 -10.231   5.325  0.00  0.00    -0.275 OA
ATOM     30  N   UNL     1       0.235 -11.437   3.614  0.00  0.00    -0.310 N 
ATOM     31  H   UNL     1       0.483 -11.474   2.678  0.00  0.00    +0.149 HD
BRANCH  30  32
ATOM     32  C   UNL     1       0.321 -12.643   4.443  0.00  0.00    +0.139 C 
BRANCH  32  33
ATOM     33  C   UNL     1       0.818 -13.793   3.606  0.00  0.00    -0.030 A 
ATOM     34  C   UNL     1      -0.081 -14.596   2.930  0.00  0.00    +0.005 A 
ATOM     35  C   UNL     1       0.375 -15.651   2.163  0.00  0.00    +0.000 A 
ATOM     36  C   UNL     1       1.731 -15.903   2.071  0.00  0.00    +0.000 A 
ATOM     37  C   UNL     1       2.631 -15.100   2.747  0.00  0.00    +0.000 A 
ATOM     38  C   UNL     1       2.175 -14.042   3.510  0.00  0.00    +0.005 A 
ENDBRANCH  32  33
ENDBRANCH  30  32
ENDBRANCH  26  28
ENDBRANCH  25  26
ENDBRANCH  13  25
TORSDOF 6
