REMARK  Name = ZINC44714092
REMARK  12 active torsions:
REMARK  status: ('A' for Active; 'I' for Inactive)
REMARK    1  A    between atoms: C_1  and  C_2
REMARK    2  A    between atoms: C_4  and  C_11
REMARK    3  A    between atoms: N_5  and  C_7
REMARK    4  A    between atoms: C_7  and  C_8
REMARK    5  A    between atoms: C_7  and  C_9
REMARK    6  A    between atoms: C_7  and  C_10
REMARK    7  A    between atoms: C_15  and  C_24
REMARK    8  A    between atoms: N_26  and  C_27
REMARK    9  A    between atoms: C_27  and  C_29
REMARK   10  A    between atoms: C_27  and  C_30
REMARK   11  A    between atoms: C_31  and  C_37
REMARK   12  A    between atoms: C_35  and  C_36
REMARK                            x       y       z     vdW  Elec       q    Type
REMARK                         _______ _______ _______ _____ _____    ______ ____
ROOT
ATOM      1  C   UNL     1      -0.609  -2.797  -1.047  0.00  0.00    +0.265 C 
ATOM      2  O   UNL     1      -0.586  -2.857  -2.262  0.00  0.00    -0.268 OA
ATOM      3  N   UNL     1      -0.501  -3.923  -0.315  0.00  0.00    -0.295 N 
ATOM      4  C   UNL     1      -0.641  -4.068   1.153  0.00  0.00    +0.121 C 
ATOM      5  C   UNL     1      -1.403  -5.398   1.343  0.00  0.00    +0.100 C 
ATOM      6  C   UNL     1      -1.119  -6.200   0.062  0.00  0.00    -0.004 C 
ATOM      7  C   UNL     1      -0.221  -5.297  -0.796  0.00  0.00    +0.115 C 
ATOM      8  C   UNL     1      -0.393  -7.498   0.402  0.00  0.00    -0.010 C 
ATOM      9  C   UNL     1      -0.173  -8.305  -0.881  0.00  0.00    -0.082 C 
ATOM     10  N   UNL     1      -1.468  -8.595  -1.508  0.00  0.00    +0.379 N 
ATOM     11  C   UNL     1      -2.118  -7.343  -1.916  0.00  0.00    -0.082 C 
ATOM     12  C   UNL     1      -2.421  -6.496  -0.676  0.00  0.00    -0.010 C 
ATOM     13  H   UNL     1      -1.325  -9.177  -2.319  0.00  0.00    -0.086 HD
ATOM     14  H   UNL     1      -2.058  -9.079  -0.849  0.00  0.00    -0.086 HD
ENDROOT
BRANCH   1  18
ATOM     15  C   UNL     1      -0.852   0.907   2.409  0.00  0.00    +0.067 C 
ATOM     16  C   UNL     1      -0.864   0.132   1.117  0.00  0.00    +0.061 A 
ATOM     17  C   UNL     1      -0.647  -1.241   0.979  0.00  0.00    +0.057 A 
ATOM     18  C   UNL     1      -0.756  -1.494  -0.378  0.00  0.00    +0.124 A 
ATOM     19  N   UNL     1      -1.026  -0.294  -0.970  0.00  0.00    -0.254 N 
ATOM     20  N   UNL     1      -1.087   0.625  -0.075  0.00  0.00    -0.175 NA
BRANCH  19  21
ATOM     21  C   UNL     1      -1.223  -0.087  -2.407  0.00  0.00    +0.056 C 
ATOM     22  C   UNL     1      -2.329  -1.016  -2.910  0.00  0.00    +0.036 C 
ATOM     23  C   UNL     1      -1.623   1.368  -2.663  0.00  0.00    +0.036 C 
ATOM     24  C   UNL     1       0.079  -0.395  -3.150  0.00  0.00    +0.036 C 
ENDBRANCH  19  21
ENDBRANCH   1  18
BRANCH   5  25
ATOM     25  C   UNL     1      -2.881  -5.140   1.486  0.00  0.00    +0.219 C 
ATOM     26  O   UNL     1      -3.399  -4.228   0.876  0.00  0.00    -0.275 OA
ATOM     27  N   UNL     1      -3.628  -5.921   2.291  0.00  0.00    -0.308 N 
ATOM     28  H   UNL     1      -3.203  -6.604   2.834  0.00  0.00    +0.149 HD
BRANCH  27  29
ATOM     29  C   UNL     1      -5.080  -5.741   2.346  0.00  0.00    +0.104 C 
ATOM     30  C   UNL     1      -5.743  -6.604   1.270  0.00  0.00    +0.033 C 
BRANCH  29  31
ATOM     31  C   UNL     1      -5.587  -6.155   3.703  0.00  0.00    +0.015 A 
ATOM     32  C   UNL     1      -6.444  -5.454   4.481  0.00  0.00    +0.038 A 
ATOM     33  N   UNL     1      -6.647  -6.161   5.612  0.00  0.00    -0.281 N 
ATOM     34  H   UNL     1      -7.217  -5.902   6.353  0.00  0.00    +0.189 HD
ATOM     35  N   UNL     1      -5.889  -7.336   5.527  0.00  0.00    -0.179 NA
ATOM     36  C   UNL     1      -5.259  -7.334   4.380  0.00  0.00    +0.065 A 
ATOM     37  C   UNL     1      -4.335  -8.414   3.877  0.00  0.00    +0.068 C 
ATOM     38  C   UNL     1      -7.063  -4.121   4.144  0.00  0.00    +0.065 C 
ENDBRANCH  29  31
ENDBRANCH  27  29
ENDBRANCH   5  25
TORSDOF 5
