REMARK  Name = ZINC19972853
REMARK  11 active torsions:
REMARK  status: ('A' for Active; 'I' for Inactive)
REMARK    1  A    between atoms: C_1  and  C_2
REMARK    2  A    between atoms: C_9  and  C_14
REMARK    3  A    between atoms: C_14  and  C_16
REMARK    4  A    between atoms: C_14  and  N_26
REMARK    5  A    between atoms: N_20  and  C_21
REMARK    6  A    between atoms: N_26  and  C_27
REMARK    7  A    between atoms: N_26  and  C_36
REMARK    8  A    between atoms: C_27  and  C_28
REMARK    9  A    between atoms: C_31  and  O_34
REMARK   10  A    between atoms: O_34  and  C_35
REMARK   11  A    between atoms: C_36  and  C_37
REMARK                            x       y       z     vdW  Elec       q    Type
REMARK                         _______ _______ _______ _____ _____    ______ ____
ROOT
ATOM      1  C   UNL     1      -5.025   0.937   0.667  0.00  0.00    +0.163 C 
ENDROOT
BRANCH   1  10
ATOM      2  C   UNL     1       2.036  -0.755   2.369  0.00  0.00    +0.044 C 
ATOM      3  C   UNL     1       0.926   0.253   2.217  0.00  0.00    -0.050 A 
ATOM      4  C   UNL     1       1.172   1.592   2.487  0.00  0.00    +0.005 A 
ATOM      5  C   UNL     1       0.172   2.531   2.356  0.00  0.00    +0.026 A 
ATOM      6  C   UNL     1      -1.098   2.135   1.948  0.00  0.00    +0.049 A 
ATOM      7  C   UNL     1      -1.341   0.776   1.670  0.00  0.00    -0.001 A 
ATOM      8  C   UNL     1      -0.312  -0.160   1.815  0.00  0.00    +0.013 A 
ATOM      9  C   UNL     1      -2.679   0.370   1.236  0.00  0.00    +0.021 A 
ATOM     10  C   UNL     1      -3.637   1.322   1.112  0.00  0.00    +0.042 A 
ATOM     11  C   UNL     1      -3.339   2.671   1.398  0.00  0.00    +0.254 A 
ATOM     12  O   UNL     1      -4.215   3.511   1.280  0.00  0.00    -0.268 OA
ATOM     13  N   UNL     1      -2.117   3.053   1.808  0.00  0.00    -0.322 N 
ATOM     14  H   UNL     1      -1.935   4.114   2.032  0.00  0.00    +0.169 HD
ENDBRANCH   1  10
BRANCH   1  15
ATOM     15  C   UNL     1      -6.001   1.198   1.785  0.00  0.00    +0.173 A 
ATOM     16  N   UNL     1      -6.655   2.312   2.010  0.00  0.00    -0.111 NA
ATOM     17  N   UNL     1      -7.389   2.139   3.054  0.00  0.00    -0.023 NA
ATOM     18  N   UNL     1      -7.216   0.946   3.506  0.00  0.00    -0.044 NA
ATOM     19  N   UNL     1      -6.367   0.335   2.751  0.00  0.00    -0.224 N 
BRANCH  19  20
ATOM     20  C   UNL     1      -5.891  -1.041   2.914  0.00  0.00    +0.111 C 
ATOM     21  C   UNL     1      -7.087  -2.015   2.940  0.00  0.00    +0.027 C 
ATOM     22  C   UNL     1      -6.680  -3.087   3.982  0.00  0.00    +0.002 C 
ATOM     23  C   UNL     1      -5.952  -2.253   5.066  0.00  0.00    +0.002 C 
ATOM     24  C   UNL     1      -5.169  -1.193   4.264  0.00  0.00    +0.027 C 
ENDBRANCH  19  20
ENDBRANCH   1  15
BRANCH   1  25
ATOM     25  N   UNL     1      -5.401   1.735  -0.507  0.00  0.00    -0.277 NA
BRANCH  25  26
ATOM     26  C   UNL     1      -6.726   1.343  -1.008  0.00  0.00    +0.121 C 
BRANCH  26  27
ATOM     27  C   UNL     1      -6.700  -0.108  -1.414  0.00  0.00    -0.033 A 
ATOM     28  C   UNL     1      -6.362  -0.457  -2.708  0.00  0.00    +0.008 A 
ATOM     29  C   UNL     1      -6.332  -1.786  -3.082  0.00  0.00    +0.046 A 
ATOM     30  C   UNL     1      -6.653  -2.772  -2.160  0.00  0.00    +0.120 A 
ATOM     31  C   UNL     1      -6.997  -2.420  -0.863  0.00  0.00    +0.046 A 
ATOM     32  C   UNL     1      -7.020  -1.089  -0.493  0.00  0.00    +0.008 A 
BRANCH  30  33
ATOM     33  O   UNL     1      -6.629  -4.080  -2.526  0.00  0.00    -0.495 OA
ATOM     34  C   UNL     1      -6.266  -4.369  -3.877  0.00  0.00    +0.277 C 
ENDBRANCH  30  33
ENDBRANCH  26  27
ENDBRANCH  25  26
BRANCH  25  35
ATOM     35  C   UNL     1      -4.386   1.627  -1.564  0.00  0.00    +0.160 C 
BRANCH  35  36
ATOM     36  C   UNL     1      -4.606   2.713  -2.584  0.00  0.00    +0.119 A 
ATOM     37  C   UNL     1      -3.996   3.912  -2.600  0.00  0.00    +0.046 A 
ATOM     38  C   UNL     1      -4.496   4.611  -3.723  0.00  0.00    +0.041 A 
ATOM     39  C   UNL     1      -5.381   3.798  -4.327  0.00  0.00    +0.195 A 
ATOM     40  O   UNL     1      -5.439   2.647  -3.636  0.00  0.00    -0.467 OA
ENDBRANCH  35  36
ENDBRANCH  25  35
ENDBRANCH   1  25
TORSDOF 9
