REMARK  Name = ZINC12892751
REMARK  13 active torsions:
REMARK  status: ('A' for Active; 'I' for Inactive)
REMARK    1  A    between atoms: C_1  and  C_2
REMARK    2  A    between atoms: C_2  and  O_3
REMARK    3  A    between atoms: O_3  and  C_4
REMARK    4  A    between atoms: C_9  and  C_10
REMARK    5  A    between atoms: C_10  and  S_11
REMARK    6  A    between atoms: S_11  and  C_12
REMARK    7  A    between atoms: C_12  and  C_13
REMARK    8  A    between atoms: C_13  and  C_14
REMARK    9  A    between atoms: N_16  and  C_17
REMARK   10  A    between atoms: C_18  and  C_30
REMARK   11  A    between atoms: N_19  and  C_29
REMARK   12  A    between atoms: N_20  and  C_23
REMARK   13  A    between atoms: C_32  and  C_35
REMARK                            x       y       z     vdW  Elec       q    Type
REMARK                         _______ _______ _______ _____ _____    ______ ____
ROOT
ATOM      1  C   UNL     1      -5.198   8.024  -3.539  0.00  0.00    +0.218 C 
ATOM      2  O   UNL     1      -5.178   8.623  -2.485  0.00  0.00    -0.275 OA
ATOM      3  N   UNL     1      -6.290   8.083  -4.327  0.00  0.00    -0.280 N 
ATOM      4  H   UNL     1      -6.278   7.667  -5.204  0.00  0.00    +0.155 HD
ENDROOT
BRANCH   3   5
ATOM      5  C   UNL     1      -7.447   8.749  -3.878  0.00  0.00    +0.121 A 
ATOM      6  C   UNL     1      -8.704   8.250  -3.862  0.00  0.00    +0.059 A 
ATOM      7  N   UNL     1      -9.546   9.203  -3.351  0.00  0.00    -0.282 N 
ATOM      8  N   UNL     1      -8.806  10.350  -3.041  0.00  0.00    -0.216 N 
ATOM      9  C   UNL     1      -7.515  10.112  -3.349  0.00  0.00    +0.293 A 
ATOM     10  O   UNL     1      -6.583  10.884  -3.214  0.00  0.00    -0.264 OA
ATOM     11  C   UNL     1     -10.991   9.048  -3.166  0.00  0.00    +0.171 C 
ATOM     12  C   UNL     1      -9.110   6.875  -4.324  0.00  0.00    +0.067 C 
BRANCH   8  13
ATOM     13  C   UNL     1      -9.317  11.536  -2.505  0.00  0.00    +0.067 A 
ATOM     14  C   UNL     1     -10.435  12.133  -3.074  0.00  0.00    +0.028 A 
ATOM     15  C   UNL     1     -10.940  13.301  -2.539  0.00  0.00    +0.002 A 
ATOM     16  C   UNL     1     -10.328  13.883  -1.444  0.00  0.00    +0.000 A 
ATOM     17  C   UNL     1      -9.212  13.295  -0.878  0.00  0.00    +0.002 A 
ATOM     18  C   UNL     1      -8.705  12.123  -1.405  0.00  0.00    +0.028 A 
ENDBRANCH   8  13
ENDBRANCH   3   5
BRANCH   1  19
ATOM     19  C   UNL     1      -4.002   7.213  -3.968  0.00  0.00    +0.107 C 
BRANCH  19  20
ATOM     20  C   UNL     1      -2.909   7.313  -2.902  0.00  0.00    +0.078 C 
BRANCH  20  21
ATOM     21  S   UNL     1      -1.470   6.337  -3.417  0.00  0.00    -0.155 S 
BRANCH  21  22
ATOM     22  C   UNL     1      -0.282   6.559  -2.065  0.00  0.00    +0.108 C 
BRANCH  22  28
ATOM     23  C   UNL     1       2.008   6.400  -3.068  0.00  0.00    +0.125 A 
ATOM     24  C   UNL     1       3.167   5.687  -3.345  0.00  0.00    +0.053 A 
ATOM     25  C   UNL     1       3.286   4.381  -2.928  0.00  0.00    +0.001 A 
ATOM     26  C   UNL     1       2.256   3.757  -2.234  0.00  0.00    +0.125 A 
ATOM     27  C   UNL     1       1.097   4.477  -1.960  0.00  0.00    +0.054 A 
ATOM     28  C   UNL     1       0.977   5.788  -2.371  0.00  0.00    +0.008 A 
ATOM     29  O   UNL     1       2.577   2.469  -1.928  0.00  0.00    -0.488 OA
ATOM     30  C   UNL     1       4.001   2.299  -2.023  0.00  0.00    +0.175 C 
ATOM     31  C   UNL     1       4.405   3.367  -3.067  0.00  0.00    +0.083 C 
ATOM     32  C   UNL     1       4.671   2.579  -0.676  0.00  0.00    +0.052 C 
BRANCH  23  33
ATOM     33  O   UNL     1       1.885   7.691  -3.478  0.00  0.00    -0.492 OA
BRANCH  33  35
ATOM     34  C   UNL     1       2.668   9.701  -4.566  0.00  0.00    +0.048 C 
ATOM     35  C   UNL     1       2.988   8.253  -4.191  0.00  0.00    +0.225 C 
ENDBRANCH  33  35
ENDBRANCH  23  33
ENDBRANCH  22  28
ENDBRANCH  21  22
ENDBRANCH  20  21
ENDBRANCH  19  20
ENDBRANCH   1  19
TORSDOF 9
