REMARK  Name = ZINC00878025
REMARK  5 active torsions:
REMARK  status: ('A' for Active; 'I' for Inactive)
REMARK    1  A    between atoms: C_3  and  C_6
REMARK    2  A    between atoms: N_8  and  C_9
REMARK    3  A    between atoms: C_12  and  N_15
REMARK    4  A    between atoms: C_16  and  C_18
REMARK    5  A    between atoms: C_21  and  N_23
REMARK                            x       y       z     vdW  Elec       q    Type
REMARK                         _______ _______ _______ _____ _____    ______ ____
ROOT
ATOM      1  C   UNL     1      -7.416   0.872   0.315  0.00  0.00    +0.034 A 
ATOM      2  C   UNL     1      -7.193   2.241   0.234  0.00  0.00    +0.025 A 
ATOM      3  C   UNL     1      -5.904   2.726   0.149  0.00  0.00    +0.025 A 
ATOM      4  C   UNL     1      -4.829   1.846   0.142  0.00  0.00    +0.034 A 
ATOM      5  C   UNL     1      -5.053   0.477   0.216  0.00  0.00    +0.025 A 
ATOM      6  C   UNL     1      -6.342  -0.008   0.308  0.00  0.00    +0.025 A 
ENDROOT
BRANCH   1   9
ATOM      7  C   UNL     1      -9.723   1.002  -0.254  0.00  0.00    +0.255 C 
ATOM      8  O   UNL     1      -9.505   2.038  -0.854  0.00  0.00    -0.269 OA
ATOM      9  N   UNL     1      -8.724   0.380   0.403  0.00  0.00    -0.281 N 
ATOM     10  H   UNL     1      -8.911  -0.408   0.936  0.00  0.00    +0.155 HD
BRANCH   7  13
ATOM     11  C   UNL     1     -13.371   0.166  -0.679  0.00  0.00    +0.008 A 
ATOM     12  C   UNL     1     -12.227   0.906  -0.849  0.00  0.00    +0.021 A 
ATOM     13  C   UNL     1     -11.073   0.431  -0.245  0.00  0.00    +0.074 A 
ATOM     14  S   UNL     1     -11.657  -1.061   0.539  0.00  0.00    -0.092 S 
ATOM     15  C   UNL     1     -13.320  -0.975   0.057  0.00  0.00    +0.046 A 
ENDBRANCH   7  13
ENDBRANCH   1   9
BRANCH   4  16
ATOM     16  N   UNL     1      -3.522   2.338   0.055  0.00  0.00    -0.279 N 
ATOM     17  C   UNL     1      -3.198   3.501   0.654  0.00  0.00    +0.284 C 
ATOM     18  O   UNL     1      -4.060   4.166   1.198  0.00  0.00    -0.266 OA
ATOM     19  H   UNL     1      -2.848   1.841  -0.436  0.00  0.00    +0.155 HD
BRANCH  17  20
ATOM     20  C   UNL     1      -1.808   3.966   0.649  0.00  0.00    +0.192 A 
ATOM     21  C   UNL     1      -1.345   5.120   1.216  0.00  0.00    +0.057 A 
ATOM     22  C   UNL     1       0.037   5.160   0.978  0.00  0.00    +0.076 A 
ATOM     23  C   UNL     1       0.354   4.046   0.281  0.00  0.00    +0.280 A 
ATOM     24  O   UNL     1      -0.761   3.331   0.083  0.00  0.00    -0.429 OA
BRANCH  23  25
ATOM     25  N   UNL     1       1.709   3.677  -0.185  0.00  0.00    +0.093 N 
ATOM     26  O   UNL     1       2.655   4.406   0.054  0.00  0.00    -0.123 OA
ATOM     27  O   UNL     1       1.879   2.644  -0.807  0.00  0.00    -0.123 OA
ENDBRANCH  23  25
ENDBRANCH  17  20
ENDBRANCH   4  16
TORSDOF 5
