REMARK  Name = ZINC65919552
REMARK  4 active torsions:
REMARK  status: ('A' for Active; 'I' for Inactive)
REMARK    1  A    between atoms: C_5  and  N_7
REMARK    2  A    between atoms: C_10  and  C_12
REMARK    3  A    between atoms: N_14  and  N_15
REMARK    4  A    between atoms: N_18  and  C_19
REMARK                            x       y       z     vdW  Elec       q    Type
REMARK                         _______ _______ _______ _____ _____    ______ ____
ROOT
ATOM      1  N   UNL     1       1.236  -2.082  -0.021  0.00  0.00    -0.233 N 
ATOM      2  C   UNL     1       0.134  -2.879  -0.021  0.00  0.00    +0.049 A 
ATOM      3  C   UNL     1       0.570  -4.157  -0.030  0.00  0.00    +0.006 A 
ATOM      4  C   UNL     1       1.982  -4.082  -0.037  0.00  0.00    +0.152 A 
ATOM      5  N   UNL     1       2.300  -2.802  -0.036  0.00  0.00    -0.161 NA
ATOM      6  C   UNL     1      -0.597  -5.115  -0.029  0.00  0.00    +0.040 C 
ATOM      7  C   UNL     1      -1.810  -4.266   0.413  0.00  0.00    +0.011 C 
ATOM      8  C   UNL     1      -1.378  -2.845  -0.013  0.00  0.00    +0.056 C 
ENDROOT
BRANCH   1  13
ATOM      9  C   UNL     1      -0.017   1.377   0.010  0.00  0.00    +0.002 A 
ATOM     10  C   UNL     1       1.170   2.087   0.002  0.00  0.00    +0.003 A 
ATOM     11  C   UNL     1       2.380   1.418  -0.013  0.00  0.00    +0.040 A 
ATOM     12  C   UNL     1       2.406   0.035  -0.021  0.00  0.00    +0.149 A 
ATOM     13  C   UNL     1       1.214  -0.681  -0.013  0.00  0.00    +0.101 A 
ATOM     14  C   UNL     1       0.002  -0.004   0.002  0.00  0.00    +0.031 A 
ATOM     15  F   UNL     1       3.588  -0.619  -0.036  0.00  0.00    -0.203 F 
ENDBRANCH   1  13
BRANCH   4  16
ATOM     16  C   UNL     1       2.922  -5.220  -0.048  0.00  0.00    +0.281 C 
ATOM     17  O   UNL     1       2.498  -6.359  -0.052  0.00  0.00    -0.267 OA
ATOM     18  N   UNL     1       4.252  -4.997  -0.054  0.00  0.00    -0.228 N 
ATOM     19  H   UNL     1       4.590  -4.088  -0.051  0.00  0.00    +0.173 HD
BRANCH  18  20
ATOM     20  N   UNL     1       5.144  -6.077  -0.064  0.00  0.00    -0.218 N 
ATOM     21  C   UNL     1       6.473  -5.854  -0.070  0.00  0.00    +0.316 C 
ATOM     22  O   UNL     1       7.247  -6.791  -0.079  0.00  0.00    -0.251 OA
ATOM     23  N   UNL     1       6.944  -4.591  -0.066  0.00  0.00    -0.295 N 
ATOM     24  H   UNL     1       4.804  -6.986  -0.068  0.00  0.00    +0.174 HD
ATOM     25  H   UNL     1       6.326  -3.843  -0.059  0.00  0.00    +0.151 HD
BRANCH  23  26
ATOM     26  C   UNL     1       8.388  -4.348  -0.072  0.00  0.00    +0.074 C 
ATOM     27  C   UNL     1       8.926  -4.322   1.374  0.00  0.00    +0.022 C 
ATOM     28  C   UNL     1      10.013  -3.219   1.355  0.00  0.00    +0.002 C 
ATOM     29  C   UNL     1       9.397  -2.147   0.422  0.00  0.00    +0.002 C 
ATOM     30  C   UNL     1       8.688  -2.965  -0.677  0.00  0.00    +0.022 C 
ENDBRANCH  23  26
ENDBRANCH  18  20
ENDBRANCH   4  16
TORSDOF 4
