REMARK  Name = ZINC15968976
REMARK  4 active torsions:
REMARK  status: ('A' for Active; 'I' for Inactive)
REMARK    1  A    between atoms: C_11  and  C_36
REMARK    2  A    between atoms: N_19  and  C_22
REMARK    3  A    between atoms: C_27  and  C_28
REMARK    4  A    between atoms: N_30  and  C_31
REMARK                            x       y       z     vdW  Elec       q    Type
REMARK                         _______ _______ _______ _____ _____    ______ ____
ROOT
ATOM      1  C   UNL     1       5.726   1.894   1.788  0.00  0.00    +0.001 A 
ATOM      2  C   UNL     1       5.744   1.833   3.172  0.00  0.00    +0.002 A 
ATOM      3  C   UNL     1       4.587   1.713   3.921  0.00  0.00    +0.026 A 
ATOM      4  C   UNL     1       3.384   1.656   3.220  0.00  0.00    +0.047 A 
ATOM      5  C   UNL     1       3.371   1.721   1.804  0.00  0.00    +0.003 A 
ATOM      6  C   UNL     1       4.556   1.841   1.071  0.00  0.00    +0.010 A 
ATOM      7  C   UNL     1       1.977   1.637   1.407  0.00  0.00    -0.015 A 
ATOM      8  C   UNL     1       1.257   1.527   2.543  0.00  0.00    +0.046 A 
ATOM      9  N   UNL     1       2.088   1.540   3.632  0.00  0.00    -0.356 N 
ATOM     10  H   UNL     1       1.799   1.478   4.556  0.00  0.00    +0.166 HD
ATOM     11  C   UNL     1      -0.254   1.398   2.571  0.00  0.00    +0.155 C 
ATOM     12  N   UNL     1      -0.710   1.615   1.192  0.00  0.00    -0.260 N 
ATOM     13  C   UNL     1       0.003   1.082   0.010  0.00  0.00    +0.170 C 
ATOM     14  C   UNL     1       1.419   1.669   0.007  0.00  0.00    +0.069 C 
ATOM     15  C   UNL     1      -0.779   1.635  -1.164  0.00  0.00    +0.248 C 
ATOM     16  O   UNL     1      -0.524   1.498  -2.342  0.00  0.00    -0.273 OA
ATOM     17  N   UNL     1      -1.830   2.311  -0.593  0.00  0.00    -0.192 N 
ATOM     18  C   UNL     1      -1.776   2.281   0.746  0.00  0.00    +0.317 C 
ATOM     19  O   UNL     1      -2.603   2.800   1.470  0.00  0.00    -0.252 OA
ENDROOT
BRANCH  11  20
ATOM     20  C   UNL     1      -0.647   0.021   3.038  0.00  0.00    -0.021 A 
ATOM     21  C   UNL     1      -1.316  -0.137   4.238  0.00  0.00    +0.008 A 
ATOM     22  C   UNL     1      -1.682  -1.399   4.665  0.00  0.00    +0.038 A 
ATOM     23  C   UNL     1      -1.369  -2.507   3.896  0.00  0.00    +0.123 A 
ATOM     24  C   UNL     1      -0.695  -2.349   2.697  0.00  0.00    +0.038 A 
ATOM     25  C   UNL     1      -0.335  -1.085   2.269  0.00  0.00    +0.008 A 
ATOM     26  F   UNL     1      -1.722  -3.742   4.315  0.00  0.00    -0.205 F 
ENDBRANCH  11  20
BRANCH  17  27
ATOM     27  C   UNL     1      -2.826   2.962  -1.324  0.00  0.00    +0.058 A 
ATOM     28  C   UNL     1      -2.667   4.292  -1.687  0.00  0.00    +0.025 A 
ATOM     29  C   UNL     1      -3.651   4.933  -2.413  0.00  0.00    +0.002 A 
ATOM     30  C   UNL     1      -4.806   4.260  -2.775  0.00  0.00    +0.001 A 
ATOM     31  C   UNL     1      -4.983   2.940  -2.419  0.00  0.00    +0.015 A 
ATOM     32  C   UNL     1      -3.994   2.278  -1.688  0.00  0.00    +0.059 A 
BRANCH  32  33
ATOM     33  C   UNL     1      -4.176   0.865  -1.304  0.00  0.00    +0.246 C 
ATOM     34  O   UNL     1      -3.313   0.291  -0.668  0.00  0.00    -0.270 OA
ATOM     35  N   UNL     1      -5.300   0.210  -1.656  0.00  0.00    -0.308 N 
ATOM     36  H   UNL     1      -5.989   0.668  -2.163  0.00  0.00    +0.149 HD
BRANCH  35  37
ATOM     37  C   UNL     1      -5.482  -1.193  -1.274  0.00  0.00    +0.073 C 
ATOM     38  C   UNL     1      -4.851  -2.115  -2.337  0.00  0.00    +0.022 C 
ATOM     39  C   UNL     1      -5.820  -3.322  -2.415  0.00  0.00    +0.002 C 
ATOM     40  C   UNL     1      -7.210  -2.656  -2.262  0.00  0.00    +0.002 C 
ATOM     41  C   UNL     1      -6.981  -1.536  -1.226  0.00  0.00    +0.022 C 
ENDBRANCH  35  37
ENDBRANCH  32  33
ENDBRANCH  17  27
TORSDOF 4
