REMARK  Name = ZINC59022319
REMARK  6 active torsions:
REMARK  status: ('A' for Active; 'I' for Inactive)
REMARK    1  A    between atoms: C_1  and  C_2
REMARK    2  A    between atoms: C_9  and  C_11
REMARK    3  A    between atoms: C_14  and  N_17
REMARK    4  A    between atoms: C_18  and  C_20
REMARK    5  A    between atoms: C_20  and  N_21
REMARK    6  A    between atoms: C_22  and  C_28
REMARK                            x       y       z     vdW  Elec       q    Type
REMARK                         _______ _______ _______ _____ _____    ______ ____
ROOT
ATOM      1  N   UNL     1       0.106  -1.358   8.929  0.00  0.00    -0.284 N 
ATOM      2  C   UNL     1       0.625  -2.401   9.608  0.00  0.00    +0.237 C 
ATOM      3  O   UNL     1       1.162  -3.308   9.008  0.00  0.00    -0.274 OA
ATOM      4  H   UNL     1      -0.256  -0.598   9.410  0.00  0.00    +0.155 HD
ENDROOT
BRANCH   1   8
ATOM      5  C   UNL     1       0.051  -1.404   4.760  0.00  0.00    +0.002 A 
ATOM      6  C   UNL     1      -0.097  -2.592   5.473  0.00  0.00    +0.012 A 
ATOM      7  C   UNL     1      -0.078  -2.575   6.852  0.00  0.00    +0.024 A 
ATOM      8  C   UNL     1       0.088  -1.374   7.530  0.00  0.00    +0.033 A 
ATOM      9  C   UNL     1       0.235  -0.188   6.822  0.00  0.00    +0.024 A 
ATOM     10  C   UNL     1       0.223  -0.201   5.443  0.00  0.00    +0.012 A 
BRANCH   5  19
ATOM     11  C   UNL     1       0.387   1.460   0.000  0.00  0.00    +0.047 C 
ATOM     12  C   UNL     1       0.182  -0.033  -0.003  0.00  0.00    -0.008 A 
ATOM     13  C   UNL     1       0.082  -0.710  -1.178  0.00  0.00    +0.008 A 
ATOM     14  C   UNL     1      -0.108  -2.102  -1.165  0.00  0.00    +0.018 A 
ATOM     15  C   UNL     1      -0.191  -2.767   0.006  0.00  0.00    +0.093 A 
ATOM     16  N   UNL     1      -0.092  -2.100   1.193  0.00  0.00    -0.306 N 
ATOM     17  C   UNL     1       0.100  -0.743   1.213  0.00  0.00    +0.141 A 
ATOM     18  N   UNL     1       0.168  -0.351   2.477  0.00  0.00    -0.228 NA
ATOM     19  C   UNL     1       0.031  -1.420   3.277  0.00  0.00    +0.090 A 
ATOM     20  C   UNL     1      -0.141  -2.521   2.493  0.00  0.00    +0.121 A 
ENDBRANCH   5  19
ENDBRANCH   1   8
BRANCH   2  21
ATOM     21  C   UNL     1       0.537  -2.439  11.112  0.00  0.00    +0.221 C 
BRANCH  21  22
ATOM     22  N   UNL     1       1.169  -3.664  11.607  0.00  0.00    -0.294 N 
ATOM     23  C   UNL     1       0.538  -4.878  11.804  0.00  0.00    +0.170 A 
ATOM     24  N   UNL     1       1.418  -5.734  12.252  0.00  0.00    -0.153 NA
ATOM     25  N   UNL     1       2.651  -5.075  12.352  0.00  0.00    -0.254 N 
ATOM     26  H   UNL     1       3.485  -5.465  12.656  0.00  0.00    +0.191 HD
ATOM     27  C   UNL     1       2.467  -3.804  11.942  0.00  0.00    +0.176 A 
ATOM     28  S   UNL     1       3.666  -2.584  11.865  0.00  0.00    -0.011 S 
BRANCH  23  29
ATOM     29  C   UNL     1      -0.886  -5.159  11.553  0.00  0.00    +0.056 A 
ATOM     30  C   UNL     1      -1.580  -6.329  11.729  0.00  0.00    +0.019 A 
ATOM     31  C   UNL     1      -2.922  -6.353  11.424  0.00  0.00    +0.008 A 
ATOM     32  C   UNL     1      -3.516  -5.223  10.959  0.00  0.00    +0.046 A 
ATOM     33  S   UNL     1      -2.159  -4.064  10.947  0.00  0.00    -0.094 S 
ENDBRANCH  23  29
ENDBRANCH  21  22
ENDBRANCH   2  21
TORSDOF 5
