REMARK  Name = ZINC01876735
REMARK  11 active torsions:
REMARK  status: ('A' for Active; 'I' for Inactive)
REMARK    1  A    between atoms: C_1  and  C_2
REMARK    2  A    between atoms: C_2  and  O_3
REMARK    3  A    between atoms: O_3  and  C_4
REMARK    4  A    between atoms: C_7  and  N_10
REMARK    5  A    between atoms: C_11  and  C_31
REMARK    6  A    between atoms: C_14  and  S_15
REMARK    7  A    between atoms: S_15  and  C_16
REMARK    8  A    between atoms: C_16  and  C_17
REMARK    9  A    between atoms: N_19  and  N_20
REMARK   10  A    between atoms: C_21  and  C_22
REMARK   11  A    between atoms: C_23  and  C_24
REMARK                            x       y       z     vdW  Elec       q    Type
REMARK                         _______ _______ _______ _____ _____    ______ ____
ROOT
ATOM      1  N   UNL     1      -1.438  -6.157  -0.365  0.00  0.00    -0.270 N 
ATOM      2  C   UNL     1      -2.212  -6.892  -1.236  0.00  0.00    +0.169 A 
ATOM      3  N   UNL     1      -2.313  -8.101  -0.735  0.00  0.00    -0.128 NA
ATOM      4  N   UNL     1      -1.666  -8.174   0.372  0.00  0.00    -0.122 NA
ATOM      5  C   UNL     1      -1.106  -7.017   0.646  0.00  0.00    +0.197 A 
ENDROOT
BRANCH   2   6
ATOM      6  C   UNL     1      -2.815  -6.410  -2.497  0.00  0.00    +0.020 A 
ATOM      7  C   UNL     1      -2.340  -5.244  -3.100  0.00  0.00    +0.013 A 
ATOM      8  C   UNL     1      -2.906  -4.799  -4.276  0.00  0.00    +0.021 A 
ATOM      9  C   UNL     1      -3.944  -5.506  -4.859  0.00  0.00    +0.041 A 
ATOM     10  C   UNL     1      -4.420  -6.663  -4.265  0.00  0.00    +0.021 A 
ATOM     11  C   UNL     1      -3.858  -7.121  -3.091  0.00  0.00    +0.013 A 
ATOM     12 CL   UNL     1      -4.652  -4.940  -6.339  0.00  0.00    -0.084 Cl
ENDBRANCH   2   6
BRANCH   1  16
ATOM     13  C   UNL     1      -0.327  -2.154  -0.740  0.00  0.00    +0.121 A 
ATOM     14  C   UNL     1       0.631  -3.152  -0.839  0.00  0.00    +0.047 A 
ATOM     15  C   UNL     1       0.264  -4.477  -0.715  0.00  0.00    +0.030 A 
ATOM     16  C   UNL     1      -1.065  -4.811  -0.491  0.00  0.00    +0.051 A 
ATOM     17  C   UNL     1      -2.024  -3.812  -0.392  0.00  0.00    +0.030 A 
ATOM     18  C   UNL     1      -1.655  -2.487  -0.511  0.00  0.00    +0.047 A 
BRANCH  13  19
ATOM     19  O   UNL     1       0.035  -0.849  -0.862  0.00  0.00    -0.492 OA
BRANCH  19  21
ATOM     20  C   UNL     1       1.632   0.932  -1.205  0.00  0.00    +0.048 C 
ATOM     21  C   UNL     1       1.418  -0.579  -1.097  0.00  0.00    +0.225 C 
ENDBRANCH  19  21
ENDBRANCH  13  19
ENDBRANCH   1  16
BRANCH   5  22
ATOM     22  S   UNL     1      -0.115  -6.641   2.054  0.00  0.00    -0.076 S 
BRANCH  22  23
ATOM     23  C   UNL     1      -0.067  -8.198   2.984  0.00  0.00    +0.174 C 
BRANCH  23  24
ATOM     24  C   UNL     1       0.761  -8.014   4.230  0.00  0.00    +0.242 C 
ATOM     25  O   UNL     1       1.268  -6.937   4.468  0.00  0.00    -0.273 OA
ATOM     26  N   UNL     1       0.937  -9.044   5.080  0.00  0.00    -0.206 N 
ATOM     27  H   UNL     1       0.532  -9.905   4.891  0.00  0.00    +0.177 HD
BRANCH  26  28
ATOM     28  N   UNL     1       1.706  -8.872   6.239  0.00  0.00    -0.187 NA
ATOM     29  C   UNL     1       1.877  -9.868   7.061  0.00  0.00    +0.150 C 
BRANCH  29  30
ATOM     30  C   UNL     1       2.679  -9.688   8.269  0.00  0.00    +0.061 C 
ATOM     31  C   UNL     1       2.856 -10.720   9.121  0.00  0.00    +0.029 C 
ATOM     32 CL   UNL     1       3.405  -8.148   8.609  0.00  0.00    -0.082 Cl
BRANCH  31  33
ATOM     33  C   UNL     1       3.531 -10.503  10.411  0.00  0.00    -0.024 A 
ATOM     34  C   UNL     1       4.304 -11.520  10.980  0.00  0.00    +0.008 A 
ATOM     35  C   UNL     1       4.933 -11.308  12.189  0.00  0.00    +0.001 A 
ATOM     36  C   UNL     1       4.801 -10.093  12.838  0.00  0.00    +0.000 A 
ATOM     37  C   UNL     1       4.038  -9.082  12.282  0.00  0.00    +0.001 A 
ATOM     38  C   UNL     1       3.408  -9.276  11.070  0.00  0.00    +0.008 A 
ENDBRANCH  31  33
ENDBRANCH  29  30
ENDBRANCH  26  28
ENDBRANCH  23  24
ENDBRANCH  22  23
ENDBRANCH   5  22
TORSDOF 10
