REMARK  Name = ZINC39467477
REMARK  7 active torsions:
REMARK  status: ('A' for Active; 'I' for Inactive)
REMARK    1  A    between atoms: C_1  and  C_2
REMARK    2  A    between atoms: C_2  and  O_3
REMARK    3  A    between atoms: O_3  and  C_4
REMARK    4  A    between atoms: P_13  and  C_29
REMARK    5  A    between atoms: C_21  and  C_22
REMARK    6  A    between atoms: C_27  and  O_28
REMARK    7  A    between atoms: C_34  and  O_35
REMARK                            x       y       z     vdW  Elec       q    Type
REMARK                         _______ _______ _______ _____ _____    ______ ____
ROOT
ATOM      1  C   UNL     1      -1.498  -1.848   0.006  0.00  0.00    +0.124 C 
ATOM      2  C   UNL     1      -0.434  -2.653  -0.003  0.00  0.00    +0.023 C 
ATOM      3  C   UNL     1      -0.630  -4.144  -0.020  0.00  0.00    +0.019 C 
ATOM      4  C   UNL     1       0.603  -4.840  -0.582  0.00  0.00    -0.002 C 
ATOM      5  C   UNL     1       0.811  -4.470  -2.056  0.00  0.00    -0.020 C 
ATOM      6  C   UNL     1       2.049  -5.236  -2.542  0.00  0.00    +0.157 C 
ATOM      7  O   UNL     1       2.323  -4.888  -3.911  0.00  0.00    -0.316 OA
ATOM      8  P   UNL     1       1.092  -4.975  -4.973  0.00  0.00    +0.291 P 
ATOM      9  O   UNL     1       0.883  -6.375  -5.403  0.00  0.00    -0.269 OA
ATOM     10  N   UNL     1      -0.229  -4.426  -4.149  0.00  0.00    -0.288 NA
ATOM     11  N   UNL     1      -0.376  -4.824  -2.837  0.00  0.00    +0.398 N 
ATOM     12  C   UNL     1      -1.557  -4.108  -2.329  0.00  0.00    -0.046 C 
ATOM     13  C   UNL     1      -1.837  -4.495  -0.895  0.00  0.00    +0.005 C 
ATOM     14  C   UNL     1      -3.030  -3.699  -0.422  0.00  0.00    -0.013 C 
ATOM     15  C   UNL     1      -2.856  -2.441   0.016  0.00  0.00    +0.023 C 
ATOM     16  H   UNL     1      -0.879  -3.845  -4.575  0.00  0.00    +0.111 HD
ATOM     17  H   UNL     1      -0.525  -5.822  -2.796  0.00  0.00    -0.055 HD
ENDROOT
BRANCH  15  18
ATOM     18  C   UNL     1      -4.013  -1.649   0.500  0.00  0.00    +0.027 A 
ATOM     19  C   UNL     1      -4.563  -1.909   1.754  0.00  0.00    +0.012 A 
ATOM     20  C   UNL     1      -5.639  -1.169   2.200  0.00  0.00    +0.001 A 
ATOM     21  C   UNL     1      -6.175  -0.169   1.406  0.00  0.00    +0.004 A 
ATOM     22  C   UNL     1      -5.636   0.097   0.162  0.00  0.00    +0.046 A 
ATOM     23  C   UNL     1      -4.552  -0.634  -0.296  0.00  0.00    +0.125 A 
BRANCH  23  24
ATOM     24  O   UNL     1      -4.019  -0.370  -1.518  0.00  0.00    -0.506 OA
ATOM     25  H   UNL     1      -4.417  -0.876  -2.239  0.00  0.00    +0.292 HD
ENDBRANCH  23  24
ENDBRANCH  15  18
BRANCH   8  26
ATOM     26  C   UNL     1       1.426  -3.919  -6.409  0.00  0.00    +0.091 A 
ATOM     27  C   UNL     1       1.020  -2.598  -6.406  0.00  0.00    +0.018 A 
ATOM     28  C   UNL     1       1.274  -1.793  -7.501  0.00  0.00    +0.001 A 
ATOM     29  C   UNL     1       1.934  -2.307  -8.602  0.00  0.00    +0.004 A 
ATOM     30  C   UNL     1       2.342  -3.627  -8.610  0.00  0.00    +0.046 A 
ATOM     31  C   UNL     1       2.093  -4.435  -7.510  0.00  0.00    +0.131 A 
BRANCH  31  32
ATOM     32  O   UNL     1       2.499  -5.732  -7.514  0.00  0.00    -0.506 OA
ATOM     33  H   UNL     1       1.844  -6.348  -7.870  0.00  0.00    +0.292 HD
ENDBRANCH  31  32
ENDBRANCH   8  26
BRANCH   1  34
ATOM     34  O   UNL     1      -1.339  -0.499   0.012  0.00  0.00    -0.492 OA
BRANCH  34  36
ATOM     35  C   UNL     1      -0.019   1.526   0.010  0.00  0.00    +0.048 C 
ATOM     36  C   UNL     1       0.002  -0.004   0.002  0.00  0.00    +0.225 C 
ENDBRANCH  34  36
ENDBRANCH   1  34
TORSDOF 6
