REMARK  Name = ZINC63687948
REMARK  10 active torsions:
REMARK  status: ('A' for Active; 'I' for Inactive)
REMARK    1  A    between atoms: C_1  and  C_2
REMARK    2  A    between atoms: C_2  and  O_3
REMARK    3  A    between atoms: O_3  and  C_4
REMARK    4  A    between atoms: C_4  and  C_6
REMARK    5  A    between atoms: C_8  and  N_22
REMARK    6  A    between atoms: N_13  and  C_15
REMARK    7  A    between atoms: C_18  and  C_21
REMARK    8  A    between atoms: N_22  and  C_23
REMARK    9  A    between atoms: C_23  and  C_24
REMARK   10  A    between atoms: C_24  and  C_25
REMARK                            x       y       z     vdW  Elec       q    Type
REMARK                         _______ _______ _______ _____ _____    ______ ____
ROOT
ATOM      1  C   UNL     1       1.376  -2.414  -2.510  0.00  0.00    +0.199 C 
ATOM      2  C   UNL     1       0.508  -2.334  -3.772  0.00  0.00    +0.092 C 
ATOM      3  C   UNL     1       1.386  -2.697  -4.975  0.00  0.00    +0.118 C 
ATOM      4  C   UNL     1       2.190  -3.925  -4.644  0.00  0.00    +0.235 C 
ATOM      5  O   UNL     1       2.714  -4.540  -5.549  0.00  0.00    -0.274 OA
ATOM      6  N   UNL     1       2.350  -4.365  -3.394  0.00  0.00    -0.204 N 
ATOM      7  N   UNL     1       1.780  -3.808  -2.297  0.00  0.00    -0.218 NA
ATOM      8  H   UNL     1       1.004  -4.364  -1.972  0.00  0.00    +0.146 HD
ENDROOT
BRANCH   6   9
ATOM      9  C   UNL     1       3.168  -5.484  -3.200  0.00  0.00    +0.053 A 
ATOM     10  C   UNL     1       4.436  -5.526  -3.767  0.00  0.00    +0.025 A 
ATOM     11  C   UNL     1       5.241  -6.631  -3.574  0.00  0.00    +0.005 A 
ATOM     12  C   UNL     1       4.786  -7.695  -2.817  0.00  0.00    -0.050 A 
ATOM     13  C   UNL     1       3.525  -7.657  -2.252  0.00  0.00    +0.005 A 
ATOM     14  C   UNL     1       2.717  -6.552  -2.436  0.00  0.00    +0.025 A 
ATOM     15  C   UNL     1       5.667  -8.900  -2.608  0.00  0.00    +0.044 C 
ENDBRANCH   6   9
BRANCH   1  16
ATOM     16  C   UNL     1       0.585  -1.931  -1.322  0.00  0.00    +0.327 C 
ATOM     17  O   UNL     1       0.074  -2.728  -0.572  0.00  0.00    -0.249 OA
BRANCH  16  18
ATOM     18  O   UNL     1       0.448  -0.615  -1.097  0.00  0.00    -0.464 OA
BRANCH  18  20
ATOM     19  C   UNL     1      -0.359   1.299   0.139  0.00  0.00    +0.048 C 
ATOM     20  C   UNL     1      -0.315  -0.228   0.048  0.00  0.00    +0.229 C 
ENDBRANCH  18  20
ENDBRANCH  16  18
ENDBRANCH   1  16
BRANCH   2  21
ATOM     21  N   UNL     1      -0.609  -3.283  -3.667  0.00  0.00    -0.310 NA
ATOM     22  H   UNL     1      -0.314  -4.217  -3.910  0.00  0.00    +0.122 HD
BRANCH  21  23
ATOM     23  C   UNL     1      -1.742  -2.856  -4.499  0.00  0.00    +0.085 C 
BRANCH  23  24
ATOM     24  C   UNL     1      -2.883  -3.866  -4.364  0.00  0.00    +0.048 C 
BRANCH  24  25
ATOM     25  C   UNL     1      -4.046  -3.428  -5.217  0.00  0.00    -0.040 C 
ATOM     26  C   UNL     1      -4.327  -3.832  -6.477  0.00  0.00    -0.001 A 
ATOM     27  C   UNL     1      -3.660  -4.762  -7.396  0.00  0.00    +0.010 A 
ATOM     28  C   UNL     1      -4.191  -4.966  -8.623  0.00  0.00    +0.001 A 
ATOM     29  C   UNL     1      -5.360  -4.312  -9.038  0.00  0.00    +0.002 A 
ATOM     30  C   UNL     1      -6.029  -3.444  -8.251  0.00  0.00    +0.026 A 
ATOM     31  C   UNL     1      -5.560  -3.154  -6.939  0.00  0.00    +0.043 A 
ATOM     32  N   UNL     1      -6.022  -2.363  -6.002  0.00  0.00    -0.380 N 
ATOM     33  C   UNL     1      -5.138  -2.454  -4.835  0.00  0.00    +0.144 C 
ATOM     34  H   UNL     1      -6.818  -1.813  -6.067  0.00  0.00    +0.160 HD
ENDBRANCH  24  25
ENDBRANCH  23  24
ENDBRANCH  21  23
ENDBRANCH   2  21
TORSDOF 8
