REMARK  Name = ZINC50029949
REMARK  6 active torsions:
REMARK  status: ('A' for Active; 'I' for Inactive)
REMARK    1  A    between atoms: C_1  and  C_2
REMARK    2  A    between atoms: C_2  and  C_4
REMARK    3  A    between atoms: C_2  and  N_7
REMARK    4  A    between atoms: N_7  and  C_8
REMARK    5  A    between atoms: C_10  and  C_16
REMARK    6  A    between atoms: C_11  and  N_15
REMARK                            x       y       z     vdW  Elec       q    Type
REMARK                         _______ _______ _______ _____ _____    ______ ____
ROOT
ATOM      1  C   UNL     1       2.083  -0.665  -1.335  0.00  0.00    +0.064 A 
ATOM      2  C   UNL     1       2.694  -0.282  -0.156  0.00  0.00    +0.042 A 
ATOM      3  C   UNL     1       4.090  -0.323  -0.049  0.00  0.00    +0.086 A 
ATOM      4  C   UNL     1       4.859  -0.754  -1.143  0.00  0.00    +0.042 A 
ATOM      5  C   UNL     1       4.230  -1.135  -2.320  0.00  0.00    +0.063 A 
ATOM      6  C   UNL     1       2.852  -1.097  -2.415  0.00  0.00    +0.146 A 
ATOM      7  F   UNL     1       2.247  -1.474  -3.562  0.00  0.00    -0.203 F 
ENDROOT
BRANCH   4   8
ATOM      8  N   UNL     1       6.245  -0.798  -1.047  0.00  0.00    -0.357 N 
ATOM      9  H   UNL     1       6.678  -0.613  -0.199  0.00  0.00    +0.142 HD
ATOM     10  H   UNL     1       6.778  -1.015  -1.827  0.00  0.00    +0.142 HD
ENDBRANCH   4   8
BRANCH   3  11
ATOM     11  C   UNL     1       4.746   0.082   1.201  0.00  0.00    +0.388 C 
ATOM     12  O   UNL     1       4.085   0.565   2.111  0.00  0.00    -0.241 OA
ATOM     13  O   UNL     1       5.954  -0.063   1.333  0.00  0.00    -0.241 OA
ENDBRANCH   3  11
BRANCH   1  14
ATOM     14  N   UNL     1       0.686  -0.624  -1.443  0.00  0.00    -0.339 N 
ATOM     15  H   UNL     1       0.256  -0.896  -2.268  0.00  0.00    +0.146 HD
BRANCH  14  17
ATOM     16  C   UNL     1      -0.224   1.355  -0.332  0.00  0.00    +0.028 C 
ATOM     17  C   UNL     1      -0.123  -0.171  -0.309  0.00  0.00    +0.070 C 
BRANCH  17  18
ATOM     18  C   UNL     1      -1.525  -0.776  -0.409  0.00  0.00    +0.009 C 
ATOM     19  C   UNL     1      -2.685   0.175  -0.711  0.00  0.00    +0.005 C 
ATOM     20  C   UNL     1      -2.528  -0.420   0.690  0.00  0.00    +0.005 C 
ENDBRANCH  17  18
ENDBRANCH  14  17
ENDBRANCH   1  14
TORSDOF 5
