REMARK  Name = ZINC64869069
REMARK  8 active torsions:
REMARK  status: ('A' for Active; 'I' for Inactive)
REMARK    1  A    between atoms: C_1  and  C_2
REMARK    2  A    between atoms: C_2  and  C_3
REMARK    3  A    between atoms: C_3  and  N_4
REMARK    4  A    between atoms: C_5  and  C_7
REMARK    5  A    between atoms: C_7  and  N_8
REMARK    6  A    between atoms: C_11  and  C_27
REMARK    7  A    between atoms: C_12  and  C_26
REMARK    8  A    between atoms: C_16  and  C_20
REMARK                            x       y       z     vdW  Elec       q    Type
REMARK                         _______ _______ _______ _____ _____    ______ ____
ROOT
ATOM      1  N   UNL     1      -3.925  -4.702   0.014  0.00  0.00    -0.257 N 
ATOM      2  C   UNL     1      -4.547  -4.803  -1.241  0.00  0.00    +0.058 A 
ATOM      3  C   UNL     1      -3.708  -4.389  -2.262  0.00  0.00    +0.029 A 
ATOM      4  C   UNL     1      -4.150  -4.418  -3.573  0.00  0.00    -0.046 A 
ATOM      5  C   UNL     1      -5.427  -4.858  -3.867  0.00  0.00    -0.046 A 
ATOM      6  C   UNL     1      -6.271  -5.272  -2.851  0.00  0.00    +0.028 A 
ATOM      7  C   UNL     1      -5.835  -5.246  -1.537  0.00  0.00    +0.053 A 
ATOM      8  N   UNL     1      -6.825  -5.701  -0.652  0.00  0.00    -0.312 N 
ATOM      9  C   UNL     1      -6.752  -5.814   0.724  0.00  0.00    +0.050 C 
ATOM     10  C   UNL     1      -5.695  -5.511   1.557  0.00  0.00    +0.092 C 
ATOM     11  C   UNL     1      -4.424  -5.015   1.226  0.00  0.00    +0.246 C 
ATOM     12  O   UNL     1      -3.669  -4.838   2.166  0.00  0.00    -0.270 OA
ATOM     13  C   UNL     1      -5.902  -4.886  -5.297  0.00  0.00    +0.044 C 
ATOM     14  C   UNL     1      -3.237  -3.969  -4.684  0.00  0.00    +0.044 C 
ATOM     15  H   UNL     1      -7.665  -5.968  -1.056  0.00  0.00    +0.152 HD
ENDROOT
BRANCH   9  16
ATOM     16  C   UNL     1      -7.955  -6.323   1.385  0.00  0.00    +0.035 A 
ATOM     17  C   UNL     1      -8.186  -6.540   2.736  0.00  0.00    +0.018 A 
ATOM     18  C   UNL     1      -9.430  -7.030   3.058  0.00  0.00    +0.023 A 
ATOM     19  C   UNL     1     -10.323  -7.264   2.064  0.00  0.00    +0.056 A 
ATOM     20  S   UNL     1      -9.509  -6.819   0.664  0.00  0.00    -0.080 S 
ATOM     21 BR   UNL     1     -12.086  -7.931   2.220  0.00  0.00    -0.043 Br
ENDBRANCH   9  16
BRANCH   1  22
ATOM     22  C   UNL     1      -2.551  -4.195   0.004  0.00  0.00    +0.209 C 
BRANCH  22  24
ATOM     23  N   UNL     1      -0.277  -5.087  -0.385  0.00  0.00    -0.314 N 
ATOM     24  C   UNL     1      -1.603  -5.321  -0.320  0.00  0.00    +0.231 C 
ATOM     25  O   UNL     1      -2.033  -6.436  -0.522  0.00  0.00    -0.274 OA
ATOM     26  H   UNL     1       0.067  -4.195  -0.223  0.00  0.00    +0.149 HD
BRANCH  23  27
ATOM     27  C   UNL     1       0.645  -6.181  -0.700  0.00  0.00    +0.104 C 
BRANCH  27  29
ATOM     28  C   UNL     1       3.043  -6.795  -1.040  0.00  0.00    +0.005 C 
ATOM     29  C   UNL     1       2.080  -5.652  -0.711  0.00  0.00    +0.015 C 
ENDBRANCH  27  29
ENDBRANCH  23  27
ENDBRANCH  22  24
ENDBRANCH   1  22
TORSDOF 5
