REMARK  Name = ZINC27345900
REMARK  2 active torsions:
REMARK  status: ('A' for Active; 'I' for Inactive)
REMARK    1  A    between atoms: N_13  and  C_14
REMARK    2  A    between atoms: C_14  and  C_15
REMARK                            x       y       z     vdW  Elec       q    Type
REMARK                         _______ _______ _______ _____ _____    ______ ____
ROOT
ATOM      1  C   UNL     1       4.430  -3.568  -1.377  0.00  0.00    +0.246 A 
ATOM      2  N   UNL     1       3.738  -2.452  -1.164  0.00  0.00    -0.214 NA
ATOM      3  C   UNL     1       2.514  -2.759  -0.782  0.00  0.00    +0.169 A 
ATOM      4  C   UNL     1       1.333  -1.956  -0.414  0.00  0.00    +0.055 A 
ATOM      5  C   UNL     1       1.196  -0.493  -0.374  0.00  0.00    -0.024 A 
ATOM      6  C   UNL     1       0.002  -0.004   0.002  0.00  0.00    -0.004 A 
ATOM      7  S   UNL     1      -1.002  -1.437   0.316  0.00  0.00    -0.073 S 
ATOM      8  C   UNL     1       0.195  -2.692  -0.058  0.00  0.00    +0.116 A 
ATOM      9  N   UNL     1       0.185  -4.020  -0.055  0.00  0.00    -0.207 NA
ATOM     10  C   UNL     1       1.244  -4.723  -0.384  0.00  0.00    +0.219 A 
ATOM     11  N   UNL     1       2.414  -4.120  -0.748  0.00  0.00    -0.181 N 
ATOM     12  N   UNL     1       3.669  -4.608  -1.138  0.00  0.00    -0.151 NA
ATOM     13  N   UNL     1       1.174  -6.098  -0.360  0.00  0.00    -0.313 N 
ATOM     14  C   UNL     1      -0.018   1.501   0.010  0.00  0.00    +0.043 C 
ATOM     15  C   UNL     1       1.471   1.909  -0.002  0.00  0.00    +0.010 C 
ATOM     16  C   UNL     1       2.126   0.686  -0.674  0.00  0.00    +0.037 C 
ATOM     17  H   UNL     1       2.054  -6.698  -0.633  0.00  0.00    +0.149 HD
ENDROOT
BRANCH  13  18
ATOM     18  C   UNL     1      -0.073  -6.761   0.028  0.00  0.00    +0.108 C 
BRANCH  18  19
ATOM     19  C   UNL     1       0.117  -8.278  -0.029  0.00  0.00    +0.006 C 
ATOM     20  C   UNL     1       0.369  -8.707  -1.476  0.00  0.00    +0.005 C 
ATOM     21  C   UNL     1       0.559 -10.224  -1.533  0.00  0.00    +0.000 C 
ATOM     22  C   UNL     1      -0.701 -10.915  -1.009  0.00  0.00    +0.000 C 
ATOM     23  C   UNL     1      -0.953 -10.487   0.438  0.00  0.00    +0.000 C 
ATOM     24  C   UNL     1      -1.143  -8.970   0.496  0.00  0.00    +0.005 C 
ENDBRANCH  18  19
ENDBRANCH  13  18
TORSDOF 2
