REMARK  Name = ZINC03616024
REMARK  6 active torsions:
REMARK  status: ('A' for Active; 'I' for Inactive)
REMARK    1  A    between atoms: C_1  and  O_2
REMARK    2  A    between atoms: O_2  and  C_3
REMARK    3  A    between atoms: C_6  and  N_9
REMARK    4  A    between atoms: C_20  and  C_22
REMARK    5  A    between atoms: C_22  and  O_24
REMARK    6  A    between atoms: O_24  and  C_25
REMARK                            x       y       z     vdW  Elec       q    Type
REMARK                         _______ _______ _______ _____ _____    ______ ____
ROOT
ATOM      1  N   UNL     1      -0.793  -0.570  -1.078  0.00  0.00    -0.180 N 
ATOM      2  C   UNL     1       0.002  -0.004   0.002  0.00  0.00    +0.227 C 
ATOM      3  N   UNL     1       1.415  -0.308  -0.017  0.00  0.00    -0.304 N 
ATOM      4  C   UNL     1       2.293   0.785  -0.018  0.00  0.00    +0.044 A 
ATOM      5  C   UNL     1       3.695   0.706  -0.032  0.00  0.00    +0.024 A 
ATOM      6  C   UNL     1       4.471   1.843  -0.031  0.00  0.00    +0.002 A 
ATOM      7  C   UNL     1       3.897   3.100  -0.017  0.00  0.00    +0.001 A 
ATOM      8  C   UNL     1       2.516   3.208  -0.003  0.00  0.00    +0.017 A 
ATOM      9  C   UNL     1       1.741   2.072  -0.003  0.00  0.00    +0.033 A 
ATOM     10  S   UNL     1      -0.023   1.819   0.012  0.00  0.00    -0.065 S 
ATOM     11  S   UNL     1      -0.852  -0.669   1.472  0.00  0.00    -0.039 S 
ATOM     12  C   UNL     1      -2.116  -1.586   0.600  0.00  0.00    +0.203 C 
ATOM     13  N   UNL     1      -1.850  -1.362  -0.662  0.00  0.00    -0.162 NA
ATOM     14  H   UNL     1       1.739  -1.222  -0.028  0.00  0.00    +0.150 HD
ENDROOT
BRANCH   1  18
ATOM     15  C   UNL     1       0.043   0.141  -5.097  0.00  0.00    +0.120 A 
ATOM     16  C   UNL     1      -1.031  -0.664  -4.744  0.00  0.00    +0.047 A 
ATOM     17  C   UNL     1      -1.308  -0.900  -3.412  0.00  0.00    +0.028 A 
ATOM     18  C   UNL     1      -0.512  -0.332  -2.425  0.00  0.00    +0.056 A 
ATOM     19  C   UNL     1       0.560   0.478  -2.780  0.00  0.00    +0.028 A 
ATOM     20  C   UNL     1       0.839   0.708  -4.112  0.00  0.00    +0.047 A 
BRANCH  15  22
ATOM     21  C   UNL     1       1.436   1.210  -6.700  0.00  0.00    +0.277 C 
ATOM     22  O   UNL     1       0.316   0.372  -6.408  0.00  0.00    -0.495 OA
ENDBRANCH  15  22
ENDBRANCH   1  18
BRANCH  12  23
ATOM     23  C   UNL     1      -3.198  -2.399   1.166  0.00  0.00    +0.366 C 
ATOM     24  O   UNL     1      -3.310  -2.507   2.372  0.00  0.00    -0.243 OA
BRANCH  23  25
ATOM     25  O   UNL     1      -4.069  -3.027   0.349  0.00  0.00    -0.463 OA
ATOM     26  C   UNL     1      -5.114  -3.814   0.979  0.00  0.00    +0.280 C 
ENDBRANCH  23  25
ENDBRANCH  12  23
TORSDOF 4
