REMARK  Name = ZINC14670073
REMARK  12 active torsions:
REMARK  status: ('A' for Active; 'I' for Inactive)
REMARK    1  A    between atoms: C_1  and  C_2
REMARK    2  A    between atoms: C_2  and  C_3
REMARK    3  A    between atoms: C_3  and  C_4
REMARK    4  A    between atoms: C_4  and  N_5
REMARK    5  A    between atoms: C_6  and  N_29
REMARK    6  A    between atoms: C_7  and  N_14
REMARK    7  A    between atoms: N_14  and  C_15
REMARK    8  A    between atoms: C_15  and  C_16
REMARK    9  A    between atoms: C_16  and  C_17
REMARK   10  A    between atoms: C_16  and  C_18
REMARK   11  A    between atoms: C_19  and  C_21
REMARK   12  A    between atoms: C_22  and  C_23
REMARK                            x       y       z     vdW  Elec       q    Type
REMARK                         _______ _______ _______ _____ _____    ______ ____
ROOT
ATOM      1  N   UNL     1      -0.302   2.064   1.441  0.00  0.00    -0.280 N 
ATOM      2  C   UNL     1       0.965   2.596   1.383  0.00  0.00    +0.127 A 
ATOM      3  C   UNL     1       1.398   3.180   0.209  0.00  0.00    +0.140 A 
ATOM      4  C   UNL     1       0.525   3.212  -0.895  0.00  0.00    +0.277 A 
ATOM      5  O   UNL     1       0.882   3.721  -1.944  0.00  0.00    -0.266 OA
ATOM      6  N   UNL     1      -0.706   2.676  -0.785  0.00  0.00    -0.273 N 
ATOM      7  H   UNL     1      -1.325   2.694  -1.571  0.00  0.00    +0.173 HD
ATOM      8  C   UNL     1      -1.112   2.116   0.368  0.00  0.00    +0.331 A 
ATOM      9  O   UNL     1      -2.231   1.645   0.441  0.00  0.00    -0.246 OA
ENDROOT
BRANCH   3  10
ATOM     10  N   UNL     1       2.692   3.734   0.118  0.00  0.00    -0.260 N 
ATOM     11  C   UNL     1       2.845   5.052  -0.117  0.00  0.00    +0.244 C 
ATOM     12  O   UNL     1       1.869   5.781  -0.161  0.00  0.00    -0.270 OA
BRANCH  11  13
ATOM     13  C   UNL     1       4.139   5.590  -0.314  0.00  0.00    +0.071 C 
ATOM     14  C   UNL     1       4.293   6.917  -0.551  0.00  0.00    +0.051 C 
BRANCH  14  15
ATOM     15  C   UNL     1       5.588   7.454  -0.748  0.00  0.00    +0.129 A 
ATOM     16  C   UNL     1       5.888   8.777  -1.002  0.00  0.00    +0.050 A 
ATOM     17  C   UNL     1       7.284   8.853  -1.123  0.00  0.00    +0.057 A 
ATOM     18  C   UNL     1       7.769   7.602  -0.951  0.00  0.00    +0.171 A 
ATOM     19  O   UNL     1       6.747   6.764  -0.726  0.00  0.00    -0.449 OA
ATOM     20 BR   UNL     1       9.595   7.114  -1.018  0.00  0.00    -0.008 Br
ENDBRANCH  14  15
ENDBRANCH  11  13
BRANCH  10  21
ATOM     21  C   UNL     1       3.869   2.877   0.279  0.00  0.00    +0.117 C 
BRANCH  21  22
ATOM     22  C   UNL     1       4.359   2.420  -1.097  0.00  0.00    +0.001 C 
ATOM     23  C   UNL     1       5.654   1.621  -0.937  0.00  0.00    +0.009 C 
ATOM     24  C   UNL     1       3.294   1.539  -1.751  0.00  0.00    +0.009 C 
ENDBRANCH  21  22
ENDBRANCH  10  21
ENDBRANCH   3  10
BRANCH   2  25
ATOM     25  N   UNL     1       1.791   2.547   2.481  0.00  0.00    -0.343 N 
ATOM     26  H   UNL     1       2.644   3.009   2.467  0.00  0.00    +0.144 HD
ATOM     27  H   UNL     1       1.520   2.052   3.269  0.00  0.00    +0.144 HD
ENDBRANCH   2  25
BRANCH   1  28
ATOM     28  C   UNL     1      -0.774   1.442   2.680  0.00  0.00    +0.128 C 
BRANCH  28  29
ATOM     29  C   UNL     1      -1.453   2.499   3.554  0.00  0.00    +0.021 C 
BRANCH  29  31
ATOM     30  C   UNL     1      -2.625   2.906   5.723  0.00  0.00    +0.004 C 
ATOM     31  C   UNL     1      -1.946   1.849   4.849  0.00  0.00    -0.002 C 
ENDBRANCH  29  31
ENDBRANCH  28  29
ENDBRANCH   1  28
TORSDOF 9
