REMARK  Name = ZINC67180982
REMARK  11 active torsions:
REMARK  status: ('A' for Active; 'I' for Inactive)
REMARK    1  A    between atoms: C_1  and  C_2
REMARK    2  A    between atoms: C_4  and  C_23
REMARK    3  A    between atoms: C_6  and  O_21
REMARK    4  A    between atoms: C_7  and  C_8
REMARK    5  A    between atoms: C_8  and  N_9
REMARK    6  A    between atoms: C_10  and  C_12
REMARK    7  A    between atoms: C_12  and  C_14
REMARK    8  A    between atoms: C_12  and  N_17
REMARK    9  A    between atoms: C_14  and  C_15
REMARK   10  A    between atoms: C_14  and  C_16
REMARK   11  A    between atoms: O_21  and  C_22
REMARK                            x       y       z     vdW  Elec       q    Type
REMARK                         _______ _______ _______ _____ _____    ______ ____
ROOT
ATOM      1  N   UNL     1      -1.391   0.332   2.885  0.00  0.00    -0.309 N 
ATOM      2  C   UNL     1      -1.641   0.893   4.084  0.00  0.00    +0.234 C 
ATOM      3  O   UNL     1      -0.724   1.172   4.827  0.00  0.00    -0.274 OA
ATOM      4  H   UNL     1      -2.125   0.042   2.322  0.00  0.00    +0.149 HD
ENDROOT
BRANCH   1   5
ATOM      5  C   UNL     1      -0.008   0.160   2.431  0.00  0.00    +0.145 C 
BRANCH   5  12
ATOM      6  C   UNL     1      -0.075   1.794   0.014  0.00  0.00    +0.044 C 
ATOM      7  C   UNL     1      -0.035   0.290  -0.075  0.00  0.00    -0.039 A 
ATOM      8  C   UNL     1      -0.023  -0.347  -1.308  0.00  0.00    +0.027 A 
ATOM      9  C   UNL     1       0.015  -1.727  -1.355  0.00  0.00    +0.042 A 
ATOM     10  N   UNL     1       0.038  -2.441  -0.246  0.00  0.00    -0.218 NA
ATOM     11  C   UNL     1       0.028  -1.870   0.947  0.00  0.00    +0.220 A 
ATOM     12  C   UNL     1      -0.003  -0.486   1.070  0.00  0.00    +0.034 A 
ATOM     13  C   UNL     1       0.028  -2.426  -2.690  0.00  0.00    +0.066 C 
BRANCH  11  14
ATOM     14  O   UNL     1       0.054  -2.643   2.062  0.00  0.00    -0.479 OA
ATOM     15  C   UNL     1       0.091  -4.058   1.870  0.00  0.00    +0.279 C 
ENDBRANCH  11  14
ENDBRANCH   5  12
ENDBRANCH   1   5
BRANCH   2  16
ATOM     16  C   UNL     1      -3.062   1.175   4.502  0.00  0.00    +0.163 C 
BRANCH  16  17
ATOM     17  N   UNL     1      -3.084   2.325   5.410  0.00  0.00    -0.288 N 
ATOM     18  C   UNL     1      -4.200   3.073   5.522  0.00  0.00    +0.298 C 
ATOM     19  O   UNL     1      -5.187   2.794   4.869  0.00  0.00    -0.253 OA
ATOM     20  N   UNL     1      -4.221   4.130   6.357  0.00  0.00    -0.313 N 
ATOM     21  H   UNL     1      -2.297   2.547   5.931  0.00  0.00    +0.151 HD
ATOM     22  H   UNL     1      -3.433   4.353   6.878  0.00  0.00    +0.146 HD
ATOM     23  H   UNL     1      -5.023   4.669   6.438  0.00  0.00    +0.146 HD
ENDBRANCH  16  17
BRANCH  16  24
ATOM     24  C   UNL     1      -3.636  -0.050   5.216  0.00  0.00    +0.012 C 
ATOM     25  C   UNL     1      -5.107   0.199   5.553  0.00  0.00    +0.009 C 
ATOM     26  C   UNL     1      -3.522  -1.272   4.302  0.00  0.00    +0.009 C 
ENDBRANCH  16  24
ENDBRANCH   2  16
TORSDOF 6
