REMARK  Name = ZINC66641921
REMARK  8 active torsions:
REMARK  status: ('A' for Active; 'I' for Inactive)
REMARK    1  A    between atoms: C_1  and  C_2
REMARK    2  A    between atoms: C_3  and  C_24
REMARK    3  A    between atoms: C_7  and  N_8
REMARK    4  A    between atoms: C_9  and  C_11
REMARK    5  A    between atoms: C_11  and  C_12
REMARK    6  A    between atoms: C_12  and  C_14
REMARK    7  A    between atoms: C_12  and  N_15
REMARK    8  A    between atoms: C_16  and  C_18
REMARK                            x       y       z     vdW  Elec       q    Type
REMARK                         _______ _______ _______ _____ _____    ______ ____
ROOT
ATOM      1  N   UNL     1       0.030  -0.395   2.429  0.00  0.00    -0.270 N 
ATOM      2  C   UNL     1       0.052  -1.307   3.420  0.00  0.00    +0.220 C 
ATOM      3  O   UNL     1       0.066  -2.491   3.155  0.00  0.00    -0.275 OA
ATOM      4  H   UNL     1       0.018   0.552   2.640  0.00  0.00    +0.156 HD
ENDROOT
BRANCH   1  11
ATOM      5  C   UNL     1      -0.018   1.503   0.010  0.00  0.00    +0.049 C 
ATOM      6  C   UNL     1       0.002  -0.004   0.002  0.00  0.00    +0.021 A 
ATOM      7  C   UNL     1       0.009  -0.821  -1.132  0.00  0.00    +0.170 A 
ATOM      8  N   UNL     1       0.028  -2.069  -0.740  0.00  0.00    -0.168 NA
ATOM      9  N   UNL     1       0.034  -2.092   0.661  0.00  0.00    -0.263 N 
ATOM     10  H   UNL     1       0.048  -2.885   1.219  0.00  0.00    +0.190 HD
ATOM     11  C   UNL     1       0.023  -0.812   1.097  0.00  0.00    +0.124 A 
BRANCH   7  12
ATOM     12  C   UNL     1      -0.005  -0.346  -2.562  0.00  0.00    +0.436 C 
ATOM     13  F   UNL     1       1.310  -0.180  -3.010  0.00  0.00    -0.164 F 
ATOM     14  F   UNL     1      -0.655  -1.292  -3.362  0.00  0.00    -0.164 F 
ATOM     15  F   UNL     1      -0.682   0.876  -2.641  0.00  0.00    -0.164 F 
ENDBRANCH   7  12
ENDBRANCH   1  11
BRANCH   2  16
ATOM     16  C   UNL     1       0.058  -0.857   4.858  0.00  0.00    +0.118 C 
BRANCH  16  17
ATOM     17  C   UNL     1       0.084  -2.081   5.776  0.00  0.00    +0.079 C 
ATOM     18  C   UNL     1      -0.035  -1.629   7.233  0.00  0.00    +0.028 C 
BRANCH  17  19
ATOM     19  N   UNL     1       1.345  -2.804   5.590  0.00  0.00    -0.312 N 
ATOM     20  C   UNL     1       1.413  -4.121   5.870  0.00  0.00    +0.216 C 
ATOM     21  O   UNL     1       0.432  -4.707   6.274  0.00  0.00    -0.276 OA
ATOM     22  H   UNL     1       2.130  -2.335   5.267  0.00  0.00    +0.149 HD
BRANCH  20  23
ATOM     23  C   UNL     1       2.710  -4.865   5.678  0.00  0.00    +0.075 C 
ATOM     24  C   UNL     1       3.139  -4.775   4.213  0.00  0.00    +0.013 C 
ATOM     25  C   UNL     1       4.455  -5.530   4.019  0.00  0.00    +0.001 C 
ATOM     26  C   UNL     1       4.262  -6.998   4.404  0.00  0.00    +0.000 C 
ATOM     27  C   UNL     1       3.834  -7.088   5.871  0.00  0.00    +0.001 C 
ATOM     28  C   UNL     1       2.517  -6.333   6.064  0.00  0.00    +0.013 C 
ENDBRANCH  20  23
ENDBRANCH  17  19
ENDBRANCH  16  17
ENDBRANCH   2  16
TORSDOF 6
