REMARK  Name = ZINC38965116
REMARK  6 active torsions:
REMARK  status: ('A' for Active; 'I' for Inactive)
REMARK    1  A    between atoms: C_4  and  C_7
REMARK    2  A    between atoms: C_7  and  C_8
REMARK    3  A    between atoms: C_8  and  N_9
REMARK    4  A    between atoms: N_9  and  C_10
REMARK    5  A    between atoms: N_13  and  S_14
REMARK    6  A    between atoms: S_14  and  C_17
REMARK                            x       y       z     vdW  Elec       q    Type
REMARK                         _______ _______ _______ _____ _____    ______ ____
ROOT
ATOM      1  C   UNL     1       5.927  -1.944   2.747  0.00  0.00    +0.217 C 
ATOM      2  C   UNL     1       7.372  -1.506   2.827  0.00  0.00    +0.167 C 
ATOM      3  N   UNL     1       7.706  -0.279   2.555  0.00  0.00    -0.112 NA
ATOM      4  N   UNL     1       8.306  -2.403   3.183  0.00  0.00    -0.338 N 
ATOM      5  C   UNL     1       7.993  -3.651   3.463  0.00  0.00    +0.064 A 
ATOM      6  C   UNL     1       9.006  -4.571   3.836  0.00  0.00    +0.028 A 
ATOM      7  C   UNL     1       8.691  -5.853   4.124  0.00  0.00    +0.002 A 
ATOM      8  C   UNL     1       7.375  -6.342   4.074  0.00  0.00    +0.002 A 
ATOM      9  C   UNL     1       6.335  -5.550   3.731  0.00  0.00    +0.027 A 
ATOM     10  C   UNL     1       6.594  -4.140   3.402  0.00  0.00    +0.060 A 
ATOM     11  N   UNL     1       5.616  -3.346   3.067  0.00  0.00    -0.362 N 
ATOM     12  H   UNL     1       4.704  -3.673   3.030  0.00  0.00    +0.162 HD
ATOM     13  H   UNL     1       9.233  -2.125   3.235  0.00  0.00    +0.167 HD
ENDROOT
BRANCH   3  14
ATOM     14  S   UNL     1       9.292   0.187   2.646  0.00  0.00    +0.102 S 
ATOM     15  O   UNL     1       9.663   0.100   4.015  0.00  0.00    -0.146 OA
ATOM     16  O   UNL     1       9.982  -0.517   1.623  0.00  0.00    -0.146 OA
BRANCH  14  17
ATOM     17  C   UNL     1       9.359   1.894   2.215  0.00  0.00    +0.141 A 
ATOM     18  C   UNL     1       9.745   2.809   3.135  0.00  0.00    +0.031 A 
ATOM     19  C   UNL     1       9.810   4.168   2.828  0.00  0.00    +0.004 A 
ATOM     20  C   UNL     1       9.489   4.632   1.598  0.00  0.00    +0.031 A 
ATOM     21  C   UNL     1       9.075   3.729   0.581  0.00  0.00    +0.102 A 
ATOM     22  C   UNL     1       9.012   2.308   0.900  0.00  0.00    +0.127 A 
ATOM     23  N   UNL     1       8.618   1.557  -0.129  0.00  0.00    -0.189 NA
ATOM     24  S   UNL     1       8.371   2.581  -1.345  0.00  0.00    +0.117 S 
ATOM     25  N   UNL     1       8.723   4.001  -0.677  0.00  0.00    -0.191 NA
ENDBRANCH  14  17
ENDBRANCH   3  14
BRANCH   1  26
ATOM     26  N   UNL     1       5.453  -1.680   1.382  0.00  0.00    -0.290 NA
ATOM     27  H   UNL     1       5.382  -2.536   0.852  0.00  0.00    +0.124 HD
BRANCH  26  28
ATOM     28  C   UNL     1       4.171  -0.963   1.399  0.00  0.00    +0.088 C 
BRANCH  28  29
ATOM     29  C   UNL     1       3.711  -0.707  -0.038  0.00  0.00    +0.050 C 
BRANCH  29  33
ATOM     30  C   UNL     1      -0.017   1.378   0.010  0.00  0.00    +0.000 A 
ATOM     31  C   UNL     1       1.171   2.086   0.002  0.00  0.00    +0.000 A 
ATOM     32  C   UNL     1       2.377   1.411  -0.013  0.00  0.00    +0.003 A 
ATOM     33  C   UNL     1       2.396   0.029  -0.020  0.00  0.00    -0.046 A 
ATOM     34  C   UNL     1       1.208  -0.679  -0.012  0.00  0.00    +0.003 A 
ATOM     35  C   UNL     1       0.002  -0.004   0.002  0.00  0.00    +0.000 A 
ENDBRANCH  29  33
ENDBRANCH  28  29
ENDBRANCH  26  28
ENDBRANCH   1  26
TORSDOF 6
