REMARK  Name = ZINC04856860
REMARK  9 active torsions:
REMARK  status: ('A' for Active; 'I' for Inactive)
REMARK    1  A    between atoms: C_1  and  C_2
REMARK    2  A    between atoms: C_2  and  C_3
REMARK    3  A    between atoms: C_3  and  C_4
REMARK    4  A    between atoms: C_4  and  C_5
REMARK    5  A    between atoms: C_5  and  C_7
REMARK    6  A    between atoms: C_5  and  N_56
REMARK    7  A    between atoms: N_11  and  C_12
REMARK    8  A    between atoms: C_12  and  C_13
REMARK    9  A    between atoms: N_20  and  C_23
REMARK                            x       y       z     vdW  Elec       q    Type
REMARK                         _______ _______ _______ _____ _____    ______ ____
ROOT
ATOM      1  C   UNL     1       0.534   3.772  -1.474  0.00  0.00    +0.003 C 
ENDROOT
BRANCH   1   7
ATOM      2  C   UNL     1       0.282   4.757  -3.672  0.00  0.00    -0.059 C 
ATOM      3  C   UNL     1       1.052   5.270  -4.891  0.00  0.00    +0.086 C 
ATOM      4  N   UNL     1       1.827   4.167  -5.477  0.00  0.00    -0.331 N 
ATOM      5  C   UNL     1       2.775   3.616  -4.498  0.00  0.00    +0.086 C 
ATOM      6  C   UNL     1       2.005   3.103  -3.279  0.00  0.00    -0.059 C 
ATOM      7  N   UNL     1       1.247   4.226  -2.687  0.00  0.00    +0.388 N 
ATOM      8  H   UNL     1       1.904   4.972  -2.428  0.00  0.00    -0.081 HD
BRANCH   4   9
ATOM      9  C   UNL     1       2.489   4.581  -6.637  0.00  0.00    +0.065 A 
ATOM     10  C   UNL     1       3.220   3.667  -7.385  0.00  0.00    +0.026 A 
ATOM     11  C   UNL     1       3.869   4.077  -8.533  0.00  0.00    +0.002 A 
ATOM     12  C   UNL     1       3.801   5.399  -8.934  0.00  0.00    +0.003 A 
ATOM     13  C   UNL     1       3.078   6.314  -8.190  0.00  0.00    +0.040 A 
ATOM     14  C   UNL     1       2.422   5.909  -7.042  0.00  0.00    +0.144 A 
ATOM     15  F   UNL     1       1.717   6.803  -6.315  0.00  0.00    -0.204 F 
ENDBRANCH   4   9
ENDBRANCH   1   7
BRANCH   1  16
ATOM     16  C   UNL     1      -0.495   2.728  -1.828  0.00  0.00    +0.138 A 
ATOM     17  N   UNL     1      -1.342   2.772  -2.826  0.00  0.00    -0.115 NA
ATOM     18  N   UNL     1      -2.052   1.697  -2.793  0.00  0.00    -0.023 NA
ATOM     19  N   UNL     1      -1.676   0.967  -1.802  0.00  0.00    -0.044 NA
ATOM     20  N   UNL     1      -0.721   1.571  -1.179  0.00  0.00    -0.226 N 
BRANCH  20  21
ATOM     21  C   UNL     1      -0.013   1.086   0.008  0.00  0.00    +0.189 C 
BRANCH  21  22
ATOM     22  C   UNL     1      -0.718   1.572   1.248  0.00  0.00    +0.011 A 
ATOM     23  C   UNL     1      -1.714   0.979   1.951  0.00  0.00    +0.013 A 
ATOM     24  C   UNL     1      -2.214   1.616   3.071  0.00  0.00    +0.008 A 
ATOM     25  C   UNL     1      -1.694   2.814   3.433  0.00  0.00    +0.045 A 
ATOM     26  S   UNL     1      -0.454   3.074   2.176  0.00  0.00    -0.100 S 
ENDBRANCH  21  22
ENDBRANCH  20  21
ENDBRANCH   1  16
BRANCH   1  27
ATOM     27  C   UNL     1      -0.159   4.972  -0.827  0.00  0.00    -0.008 C 
BRANCH  27  28
ATOM     28  C   UNL     1       0.896   5.976  -0.356  0.00  0.00    -0.001 C 
BRANCH  28  30
ATOM     29  C   UNL     1       1.257   8.181   0.763  0.00  0.00    +0.004 C 
ATOM     30  C   UNL     1       0.203   7.177   0.291  0.00  0.00    -0.003 C 
ENDBRANCH  28  30
ENDBRANCH  27  28
ENDBRANCH   1  27
TORSDOF 8
