REMARK  Name = ZINC16290617
REMARK  7 active torsions:
REMARK  status: ('A' for Active; 'I' for Inactive)
REMARK    1  A    between atoms: C_1  and  C_2
REMARK    2  A    between atoms: C_2  and  C_3
REMARK    3  A    between atoms: C_2  and  C_4
REMARK    4  A    between atoms: C_2  and  N_5
REMARK    5  A    between atoms: C_6  and  S_10
REMARK    6  A    between atoms: S_10  and  C_11
REMARK    7  A    between atoms: C_11  and  C_12
REMARK                            x       y       z     vdW  Elec       q    Type
REMARK                         _______ _______ _______ _____ _____    ______ ____
ROOT
ATOM      1  C   UNL     1      -0.018   1.502   0.010  0.00  0.00    -0.019 A 
ATOM      2  C   UNL     1       1.183   2.155   0.036  0.00  0.00    +0.097 A 
ATOM      3  C   UNL     1       1.219   3.545   0.246  0.00  0.00    +0.338 A 
ATOM      4  O   UNL     1       2.285   4.134   0.233  0.00  0.00    -0.245 OA
ATOM      5  O   UNL     1       0.083   4.227   0.460  0.00  0.00    -0.422 OA
ATOM      6  C   UNL     1      -1.119   3.629   0.326  0.00  0.00    +0.140 A 
ATOM      7  C   UNL     1      -1.204   2.263  -0.002  0.00  0.00    +0.029 A 
ATOM      8  C   UNL     1      -2.515   1.751  -0.402  0.00  0.00    -0.007 A 
ATOM      9  C   UNL     1      -2.709   0.568  -1.115  0.00  0.00    +0.009 A 
ATOM     10  C   UNL     1      -3.968   0.081  -1.320  0.00  0.00    +0.001 A 
ATOM     11  C   UNL     1      -5.083   0.746  -0.822  0.00  0.00    +0.001 A 
ATOM     12  C   UNL     1      -4.940   1.942  -0.185  0.00  0.00    +0.008 A 
ATOM     13  C   UNL     1      -3.663   2.506  -0.042  0.00  0.00    -0.017 A 
ATOM     14  C   UNL     1      -3.511   3.817   0.448  0.00  0.00    +0.012 A 
ATOM     15  C   UNL     1      -2.280   4.364   0.586  0.00  0.00    +0.047 A 
ENDROOT
BRANCH   1  16
ATOM     16  C   UNL     1       0.002  -0.004   0.002  0.00  0.00    +0.113 C 
BRANCH  16  17
ATOM     17  S   UNL     1       0.175  -0.614   1.697  0.00  0.00    -0.080 S 
BRANCH  17  19
ATOM     18  N   UNL     1       0.280  -3.328   2.331  0.00  0.00    -0.215 N 
ATOM     19  C   UNL     1       0.171  -2.351   1.399  0.00  0.00    +0.210 A 
ATOM     20  N   UNL     1       0.066  -2.943   0.229  0.00  0.00    -0.101 NA
ATOM     21  N   UNL     1       0.097  -4.219   0.366  0.00  0.00    -0.022 NA
ATOM     22  N   UNL     1       0.222  -4.533   1.610  0.00  0.00    -0.043 NA
BRANCH  18  24
ATOM     23  C   UNL     1      -0.784  -2.407   4.331  0.00  0.00    +0.036 C 
ATOM     24  C   UNL     1       0.426  -3.163   3.779  0.00  0.00    +0.060 C 
ATOM     25  C   UNL     1       0.514  -4.539   4.442  0.00  0.00    +0.036 C 
ATOM     26  C   UNL     1       1.701  -2.370   4.076  0.00  0.00    +0.036 C 
ENDBRANCH  18  24
ENDBRANCH  17  19
ENDBRANCH  16  17
ENDBRANCH   1  16
TORSDOF 4
