REMARK  Name = ZINC09019224
REMARK  7 active torsions:
REMARK  status: ('A' for Active; 'I' for Inactive)
REMARK    1  A    between atoms: C_4  and  C_7
REMARK    2  A    between atoms: C_7  and  C_8
REMARK    3  A    between atoms: C_7  and  N_68
REMARK    4  A    between atoms: C_20  and  C_29
REMARK    5  A    between atoms: C_29  and  C_31
REMARK    6  A    between atoms: C_29  and  C_33
REMARK    7  A    between atoms: N_35  and  C_36
REMARK                            x       y       z     vdW  Elec       q    Type
REMARK                         _______ _______ _______ _____ _____    ______ ____
ROOT
ATOM      1  C   UNL     1      -1.188   0.644   2.709  0.00  0.00    -0.058 C 
ATOM      2  C   UNL     1      -2.275  -0.069   3.517  0.00  0.00    +0.088 C 
ATOM      3  N   UNL     1      -2.167  -1.519   3.306  0.00  0.00    -0.317 N 
ATOM      4  C   UNL     1      -2.319  -1.854   1.883  0.00  0.00    +0.088 C 
ATOM      5  C   UNL     1      -1.232  -1.141   1.075  0.00  0.00    -0.058 C 
ATOM      6  C   UNL     1      -3.092  -2.204   4.079  0.00  0.00    +0.145 A 
ATOM      7  C   UNL     1      -2.724  -2.679   5.351  0.00  0.00    +0.107 A 
ATOM      8  N   UNL     1      -3.587  -3.323   6.098  0.00  0.00    -0.245 NA
ATOM      9  C   UNL     1      -4.827  -3.543   5.646  0.00  0.00    +0.090 A 
ATOM     10  C   UNL     1      -5.769  -4.236   6.425  0.00  0.00    +0.030 A 
ATOM     11  C   UNL     1      -7.024  -4.445   5.940  0.00  0.00    +0.002 A 
ATOM     12  C   UNL     1      -7.392  -3.981   4.679  0.00  0.00    +0.002 A 
ATOM     13  C   UNL     1      -6.506  -3.306   3.896  0.00  0.00    +0.030 A 
ATOM     14  C   UNL     1      -5.201  -3.071   4.363  0.00  0.00    +0.091 A 
ATOM     15  N   UNL     1      -4.310  -2.410   3.615  0.00  0.00    -0.229 NA
ATOM     16  N   UNL     1      -1.366   0.317   1.278  0.00  0.00    +0.389 N 
ATOM     17  H   UNL     1      -2.304   0.610   0.983  0.00  0.00    -0.080 HD
ENDROOT
BRANCH  16  18
ATOM     18  C   UNL     1      -0.360   1.035   0.467  0.00  0.00    -0.007 C 
BRANCH  18  22
ATOM     19  C   UNL     1      -0.759   5.232   1.154  0.00  0.00    +0.000 A 
ATOM     20  C   UNL     1       0.497   4.670   1.021  0.00  0.00    +0.000 A 
ATOM     21  C   UNL     1       0.626   3.312   0.799  0.00  0.00    +0.002 A 
ATOM     22  C   UNL     1      -0.501   2.516   0.710  0.00  0.00    -0.057 A 
ATOM     23  C   UNL     1      -1.757   3.079   0.837  0.00  0.00    +0.002 A 
ATOM     24  C   UNL     1      -1.885   4.436   1.065  0.00  0.00    +0.000 A 
ENDBRANCH  18  22
BRANCH  18  25
ATOM     25  C   UNL     1      -0.606   0.739  -0.990  0.00  0.00    -0.057 A 
ATOM     26  C   UNL     1      -1.900   0.654  -1.469  0.00  0.00    +0.002 A 
ATOM     27  C   UNL     1      -2.126   0.388  -2.807  0.00  0.00    +0.000 A 
ATOM     28  C   UNL     1      -1.058   0.196  -3.663  0.00  0.00    +0.000 A 
ATOM     29  C   UNL     1       0.236   0.275  -3.183  0.00  0.00    +0.000 A 
ATOM     30  C   UNL     1       0.462   0.547  -1.846  0.00  0.00    +0.002 A 
ENDBRANCH  18  25
ENDBRANCH  16  18
BRANCH   7  31
ATOM     31  C   UNL     1      -1.326  -2.439   5.861  0.00  0.00    +0.228 C 
BRANCH  31  32
ATOM     32  C   UNL     1      -1.377  -1.519   7.053  0.00  0.00    +0.236 C 
ATOM     33  O   UNL     1      -2.444  -1.099   7.449  0.00  0.00    -0.274 OA
ATOM     34  N   UNL     1      -0.238  -1.162   7.679  0.00  0.00    -0.311 N 
ATOM     35  H   UNL     1       0.615  -1.498   7.362  0.00  0.00    +0.149 HD
BRANCH  34  36
ATOM     36  C   UNL     1      -0.288  -0.267   8.838  0.00  0.00    +0.073 C 
ATOM     37  C   UNL     1       0.744   0.859   8.905  0.00  0.00    +0.024 C 
ATOM     38  C   UNL     1       0.864  -0.346   9.841  0.00  0.00    +0.024 C 
ENDBRANCH  34  36
ENDBRANCH  31  32
BRANCH  31  39
ATOM     39  C   UNL     1      -0.722  -3.722   6.257  0.00  0.00    +0.082 C 
ATOM     40  N   UNL     1      -0.256  -4.711   6.563  0.00  0.00    -0.195 NA
ENDBRANCH  31  39
ENDBRANCH   7  31
TORSDOF 7
