REMARK  Name = ZINC40325760
REMARK  5 active torsions:
REMARK  status: ('A' for Active; 'I' for Inactive)
REMARK    1  A    between atoms: C_1  and  C_2
REMARK    2  A    between atoms: C_2  and  N_3
REMARK    3  A    between atoms: C_5  and  N_24
REMARK    4  A    between atoms: C_7  and  C_8
REMARK    5  A    between atoms: C_13  and  C_23
REMARK                            x       y       z     vdW  Elec       q    Type
REMARK                         _______ _______ _______ _____ _____    ______ ____
ROOT
ATOM      1  C   UNL     1      -1.034  -0.301   2.651  0.00  0.00    +0.263 C 
ATOM      2  O   UNL     1      -1.504  -0.540   3.748  0.00  0.00    -0.268 OA
ATOM      3  N   UNL     1      -1.836   0.107   1.648  0.00  0.00    -0.293 N 
ATOM      4  C   UNL     1      -1.305   0.298   0.291  0.00  0.00    +0.109 C 
ATOM      5  C   UNL     1      -1.668   1.707  -0.189  0.00  0.00    +0.022 C 
ATOM      6  C   UNL     1      -3.179   1.916  -0.065  0.00  0.00    -0.008 C 
ATOM      7  C   UNL     1      -3.588   1.787   1.407  0.00  0.00    +0.012 C 
ATOM      8  C   UNL     1      -3.261   0.366   1.885  0.00  0.00    +0.080 C 
ATOM      9  C   UNL     1      -3.583   0.216   3.369  0.00  0.00    +0.023 C 
ATOM     10  C   UNL     1      -2.787   1.239   4.181  0.00  0.00    +0.002 C 
ATOM     11  C   UNL     1      -3.157   2.649   3.716  0.00  0.00    +0.000 C 
ATOM     12  C   UNL     1      -2.809   2.819   2.227  0.00  0.00    +0.005 C 
ATOM     13  C   UNL     1      -3.911   0.859  -0.894  0.00  0.00    +0.008 C 
ENDROOT
BRANCH   1  18
ATOM     14  N   UNL     1       1.414   0.033   3.217  0.00  0.00    -0.342 N 
ATOM     15  C   UNL     1       2.610  -0.325   2.676  0.00  0.00    +0.109 A 
ATOM     16  C   UNL     1       2.381  -1.033   1.540  0.00  0.00    +0.043 A 
ATOM     17  C   UNL     1       0.994  -1.123   1.363  0.00  0.00    +0.055 A 
ATOM     18  C   UNL     1       0.406  -0.459   2.420  0.00  0.00    +0.106 A 
BRANCH  16  19
ATOM     19  N   UNL     1       3.362  -1.580   0.692  0.00  0.00    -0.357 N 
ATOM     20  H   UNL     1       4.303  -1.464   0.899  0.00  0.00    +0.142 HD
ATOM     21  H   UNL     1       3.098  -2.072  -0.101  0.00  0.00    +0.142 HD
ENDBRANCH  16  19
BRANCH  14  23
ATOM     22  C   UNL     1       1.054  -0.149   5.629  0.00  0.00    +0.027 C 
ATOM     23  C   UNL     1       1.231   0.806   4.447  0.00  0.00    +0.118 C 
ENDBRANCH  14  23
ENDBRANCH   1  18
TORSDOF 3
