REMARK  Name = ZINC35377791
REMARK  12 active torsions:
REMARK  status: ('A' for Active; 'I' for Inactive)
REMARK    1  A    between atoms: C_1  and  C_2
REMARK    2  A    between atoms: C_2  and  C_3
REMARK    3  A    between atoms: C_3  and  N_4
REMARK    4  A    between atoms: C_5  and  C_7
REMARK    5  A    between atoms: C_7  and  C_8
REMARK    6  A    between atoms: C_11  and  N_14
REMARK    7  A    between atoms: N_23  and  C_26
REMARK    8  A    between atoms: C_26  and  C_27
REMARK    9  A    between atoms: N_29  and  C_30
REMARK   10  A    between atoms: C_35  and  O_36
REMARK   11  A    between atoms: O_36  and  C_37
REMARK   12  A    between atoms: C_37  and  C_38
REMARK                            x       y       z     vdW  Elec       q    Type
REMARK                         _______ _______ _______ _____ _____    ______ ____
ROOT
ATOM      1  N   UNL     1       4.441  -5.868  -5.773  0.00  0.00    -0.228 N 
ATOM      2  C   UNL     1       3.458  -6.026  -6.686  0.00  0.00    +0.269 A 
ATOM      3  O   UNL     1       2.292  -5.866  -6.381  0.00  0.00    -0.266 OA
ATOM      4  C   UNL     1       3.836  -6.396  -8.061  0.00  0.00    +0.064 A 
ATOM      5  C   UNL     1       2.882  -6.578  -9.059  0.00  0.00    +0.015 A 
ATOM      6  C   UNL     1       3.287  -6.924 -10.331  0.00  0.00    +0.001 A 
ATOM      7  C   UNL     1       4.633  -7.092 -10.618  0.00  0.00    +0.002 A 
ATOM      8  C   UNL     1       5.589  -6.916  -9.637  0.00  0.00    +0.027 A 
ATOM      9  C   UNL     1       5.201  -6.566  -8.353  0.00  0.00    +0.059 A 
ATOM     10  N   UNL     1       6.129  -6.379  -7.339  0.00  0.00    -0.284 N 
ATOM     11  C   UNL     1       5.731  -6.036  -6.102  0.00  0.00    +0.337 A 
ATOM     12  O   UNL     1       6.577  -5.877  -5.242  0.00  0.00    -0.246 OA
ENDROOT
BRANCH   1  16
ATOM     13  C   UNL     1       3.448  -4.818  -1.863  0.00  0.00    -0.038 A 
ATOM     14  C   UNL     1       4.036  -3.887  -2.699  0.00  0.00    +0.006 A 
ATOM     15  C   UNL     1       4.367  -4.232  -3.995  0.00  0.00    +0.027 A 
ATOM     16  C   UNL     1       4.108  -5.515  -4.458  0.00  0.00    +0.054 A 
ATOM     17  C   UNL     1       3.517  -6.448  -3.616  0.00  0.00    +0.027 A 
ATOM     18  C   UNL     1       3.193  -6.098  -2.320  0.00  0.00    +0.006 A 
BRANCH  13  19
ATOM     19  C   UNL     1       3.089  -4.439  -0.450  0.00  0.00    +0.130 C 
BRANCH  19  21
ATOM     20  N   UNL     1       4.164  -4.462   1.778  0.00  0.00    -0.315 N 
ATOM     21  C   UNL     1       4.256  -4.724   0.459  0.00  0.00    +0.217 C 
ATOM     22  O   UNL     1       5.279  -5.190   0.004  0.00  0.00    -0.275 OA
ATOM     23  H   UNL     1       3.345  -4.089   2.142  0.00  0.00    +0.149 HD
BRANCH  20  24
ATOM     24  C   UNL     1       5.299  -4.739   2.662  0.00  0.00    +0.104 C 
BRANCH  24  26
ATOM     25  C   UNL     1       6.120  -4.644   5.019  0.00  0.00    +0.005 C 
ATOM     26  C   UNL     1       4.934  -4.354   4.097  0.00  0.00    +0.015 C 
ENDBRANCH  24  26
ENDBRANCH  20  24
ENDBRANCH  19  21
ENDBRANCH  13  19
ENDBRANCH   1  16
BRANCH  10  27
ATOM     27  C   UNL     1       7.556  -6.552  -7.621  0.00  0.00    +0.222 C 
BRANCH  27  28
ATOM     28  C   UNL     1       8.144  -5.236  -8.062  0.00  0.00    +0.237 C 
ATOM     29  O   UNL     1       7.439  -4.251  -8.133  0.00  0.00    -0.274 OA
ATOM     30  N   UNL     1       9.452  -5.154  -8.376  0.00  0.00    -0.281 N 
ATOM     31  H   UNL     1       9.997  -5.955  -8.396  0.00  0.00    +0.155 HD
BRANCH  30  32
ATOM     32  C   UNL     1      10.023  -3.910  -8.675  0.00  0.00    +0.076 A 
ATOM     33  C   UNL     1       9.395  -2.740  -8.273  0.00  0.00    +0.027 A 
ATOM     34  C   UNL     1       9.961  -1.515  -8.568  0.00  0.00    +0.002 A 
ATOM     35  C   UNL     1      11.153  -1.450  -9.265  0.00  0.00    +0.004 A 
ATOM     36  C   UNL     1      11.786  -2.611  -9.670  0.00  0.00    +0.047 A 
ATOM     37  C   UNL     1      11.227  -3.844  -9.372  0.00  0.00    +0.142 A 
BRANCH  37  38
ATOM     38  O   UNL     1      11.851  -4.987  -9.765  0.00  0.00    -0.490 OA
BRANCH  38  39
ATOM     39  C   UNL     1      13.082  -4.843 -10.476  0.00  0.00    +0.226 C 
ATOM     40  C   UNL     1      13.631  -6.226 -10.831  0.00  0.00    +0.048 C 
ENDBRANCH  38  39
ENDBRANCH  37  38
ENDBRANCH  30  32
ENDBRANCH  27  28
ENDBRANCH  10  27
TORSDOF 10
