REMARK  Name = ZINC09104276
REMARK  3 active torsions:
REMARK  status: ('A' for Active; 'I' for Inactive)
REMARK    1  A    between atoms: C_6  and  N_7
REMARK    2  A    between atoms: C_8  and  C_10
REMARK    3  A    between atoms: C_21  and  C_23
REMARK                            x       y       z     vdW  Elec       q    Type
REMARK                         _______ _______ _______ _____ _____    ______ ____
ROOT
ATOM      1  C   UNL     1       8.522   3.848  -0.058  0.00  0.00    +0.125 C 
ATOM      2  C   UNL     1       9.436   4.986   0.399  0.00  0.00    +0.019 C 
ATOM      3  C   UNL     1       9.157   6.248  -0.423  0.00  0.00    +0.006 C 
ATOM      4  C   UNL     1       7.778   6.800  -0.026  0.00  0.00    +0.044 C 
ATOM      5  C   UNL     1       6.808   5.668  -0.016  0.00  0.00    +0.015 A 
ATOM      6  C   UNL     1       7.079   4.337  -0.031  0.00  0.00    +0.066 A 
ATOM      7  N   UNL     1       6.023   3.527  -0.019  0.00  0.00    -0.229 NA
ATOM      8  C   UNL     1       4.788   3.984   0.007  0.00  0.00    +0.165 A 
ATOM      9  S   UNL     1       5.036   5.704   0.009  0.00  0.00    -0.057 S 
ATOM     10  N   UNL     1       3.595   3.273   0.021  0.00  0.00    -0.261 N 
ATOM     11  C   UNL     1       2.419   3.931   0.047  0.00  0.00    +0.250 C 
ATOM     12  O   UNL     1       2.403   5.147   0.058  0.00  0.00    -0.270 OA
ATOM     13  H   UNL     1       3.608   2.303   0.013  0.00  0.00    +0.157 HD
ENDROOT
BRANCH  11  14
ATOM     14  C   UNL     1       1.151   3.176   0.063  0.00  0.00    +0.041 A 
ATOM     15  C   UNL     1       1.168   1.779   0.051  0.00  0.00    +0.017 A 
ATOM     16  C   UNL     1      -0.017   1.076   0.064  0.00  0.00    +0.050 A 
ATOM     17  C   UNL     1      -1.230   1.752   0.085  0.00  0.00    +0.166 A 
ATOM     18  C   UNL     1      -1.254   3.147   0.103  0.00  0.00    +0.167 A 
ATOM     19  C   UNL     1      -0.069   3.857   0.089  0.00  0.00    +0.062 A 
ATOM     20  O   UNL     1      -2.555   3.560   0.129  0.00  0.00    -0.453 OA
ATOM     21  C   UNL     1      -3.314   2.410   0.544  0.00  0.00    +0.466 C 
ATOM     22  O   UNL     1      -2.515   1.295   0.108  0.00  0.00    -0.453 OA
ENDBRANCH  11  14
BRANCH   1  24
ATOM     23  N   UNL     1       7.950   1.555   0.671  0.00  0.00    -0.285 N 
ATOM     24  C   UNL     1       8.675   2.673   0.873  0.00  0.00    +0.226 C 
ATOM     25  O   UNL     1       9.450   2.733   1.804  0.00  0.00    -0.275 OA
ATOM     26  H   UNL     1       7.282   1.530  -0.032  0.00  0.00    +0.155 HD
BRANCH  23  32
ATOM     27  C   UNL     1       8.040  -0.845   0.937  0.00  0.00    +0.026 A 
ATOM     28  C   UNL     1       8.254  -1.954   1.732  0.00  0.00    +0.040 A 
ATOM     29  C   UNL     1       8.577  -1.796   3.069  0.00  0.00    +0.124 A 
ATOM     30  C   UNL     1       8.692  -0.527   3.611  0.00  0.00    +0.040 A 
ATOM     31  C   UNL     1       8.485   0.585   2.818  0.00  0.00    +0.026 A 
ATOM     32  C   UNL     1       8.161   0.429   1.477  0.00  0.00    +0.034 A 
ATOM     33  F   UNL     1       8.781  -2.882   3.846  0.00  0.00    -0.205 F 
ENDBRANCH  23  32
ENDBRANCH   1  24
TORSDOF 3
