REMARK  Name = ZINC12402366
REMARK  9 active torsions:
REMARK  status: ('A' for Active; 'I' for Inactive)
REMARK    1  A    between atoms: C_1  and  C_2
REMARK    2  A    between atoms: C_2  and  C_34
REMARK    3  A    between atoms: C_6  and  C_16
REMARK    4  A    between atoms: C_8  and  C_12
REMARK    5  A    between atoms: C_9  and  N_11
REMARK    6  A    between atoms: C_12  and  O_14
REMARK    7  A    between atoms: O_14  and  C_15
REMARK    8  A    between atoms: C_18  and  C_21
REMARK    9  A    between atoms: C_21  and  N_22
REMARK                            x       y       z     vdW  Elec       q    Type
REMARK                         _______ _______ _______ _____ _____    ______ ____
ROOT
ATOM      1  C   UNL     1      -0.718   3.139   2.173  0.00  0.00    +0.012 C 
ATOM      2  C   UNL     1      -1.144   3.311   0.714  0.00  0.00    -0.021 C 
ATOM      3  C   UNL     1      -0.053   4.060  -0.055  0.00  0.00    +0.081 C 
ATOM      4  C   UNL     1       1.230   3.264  -0.022  0.00  0.00    +0.115 C 
ATOM      5  C   UNL     1       1.203   1.920   0.027  0.00  0.00    +0.045 C 
ATOM      6  C   UNL     1       2.486   1.125   0.045  0.00  0.00    +0.098 C 
ATOM      7  C   UNL     1       3.632   2.005   0.459  0.00  0.00    +0.105 C 
ATOM      8  C   UNL     1       3.518   3.357   0.391  0.00  0.00    +0.195 C 
ATOM      9  O   UNL     1       2.393   3.941  -0.048  0.00  0.00    -0.446 OA
ATOM     10  C   UNL     1      -0.015   1.213   0.061  0.00  0.00    +0.164 C 
ATOM     11  O   UNL     1       0.000  -0.001   0.086  0.00  0.00    -0.292 OA
ATOM     12  C   UNL     1      -1.335   1.935   0.062  0.00  0.00    +0.086 C 
ATOM     13  C   UNL     1      -2.453   4.101   0.649  0.00  0.00    +0.012 C 
ENDROOT
BRANCH   6  14
ATOM     14  C   UNL     1       2.753   0.575  -1.332  0.00  0.00    -0.028 A 
ATOM     15  C   UNL     1       2.846  -0.789  -1.538  0.00  0.00    +0.017 A 
ATOM     16  C   UNL     1       3.087  -1.250  -2.789  0.00  0.00    +0.010 A 
ATOM     17  S   UNL     1       3.192   0.265  -3.728  0.00  0.00    -0.100 S 
ATOM     18  C   UNL     1       2.901   1.410  -2.390  0.00  0.00    +0.050 A 
BRANCH  16  19
ATOM     19  C   UNL     1       3.230  -2.673  -3.264  0.00  0.00    +0.165 C 
BRANCH  19  20
ATOM     20  N   UNL     1       1.918  -3.190  -3.660  0.00  0.00    -0.325 N 
ATOM     21  C   UNL     1       1.071  -3.920  -2.885  0.00  0.00    +0.200 A 
ATOM     22  N   UNL     1      -0.008  -4.209  -3.551  0.00  0.00    -0.236 NA
ATOM     23  C   UNL     1       0.076  -3.692  -4.804  0.00  0.00    +0.089 A 
ATOM     24  C   UNL     1       1.313  -3.031  -4.891  0.00  0.00    +0.069 A 
ATOM     25  C   UNL     1       1.677  -2.399  -6.072  0.00  0.00    +0.028 A 
ATOM     26  C   UNL     1       0.820  -2.425  -7.152  0.00  0.00    +0.002 A 
ATOM     27  C   UNL     1      -0.402  -3.078  -7.066  0.00  0.00    +0.002 A 
ATOM     28  C   UNL     1      -0.776  -3.706  -5.911  0.00  0.00    +0.030 A 
ENDBRANCH  19  20
ENDBRANCH  16  19
ENDBRANCH   6  14
BRANCH   8  29
ATOM     29  N   UNL     1       4.572   4.139   0.779  0.00  0.00    -0.329 N 
ATOM     30  H   UNL     1       5.415   3.729   1.027  0.00  0.00    +0.145 HD
ATOM     31  H   UNL     1       4.476   5.104   0.807  0.00  0.00    +0.145 HD
ENDBRANCH   8  29
BRANCH   7  32
ATOM     32  C   UNL     1       4.826   1.428   0.918  0.00  0.00    +0.341 C 
ATOM     33  O   UNL     1       4.900   1.006   2.058  0.00  0.00    -0.245 OA
BRANCH  32  34
ATOM     34  O   UNL     1       5.893   1.339   0.095  0.00  0.00    -0.465 OA
ATOM     35  C   UNL     1       7.076   0.740   0.628  0.00  0.00    +0.280 C 
ENDBRANCH  32  34
ENDBRANCH   7  32
TORSDOF 6
