REMARK  Name = ZINC29642765
REMARK  10 active torsions:
REMARK  status: ('A' for Active; 'I' for Inactive)
REMARK    1  A    between atoms: C_1  and  C_2
REMARK    2  A    between atoms: C_7  and  N_12
REMARK    3  A    between atoms: C_9  and  C_11
REMARK    4  A    between atoms: N_12  and  C_13
REMARK    5  A    between atoms: C_13  and  N_15
REMARK    6  A    between atoms: N_15  and  N_16
REMARK    7  A    between atoms: C_17  and  C_19
REMARK    8  A    between atoms: C_23  and  N_25
REMARK    9  A    between atoms: N_25  and  S_26
REMARK   10  A    between atoms: S_26  and  C_29
REMARK                            x       y       z     vdW  Elec       q    Type
REMARK                         _______ _______ _______ _____ _____    ______ ____
ROOT
ATOM      1  N   UNL     1       0.016  -2.801   0.193  0.00  0.00    -0.231 N 
ATOM      2  C   UNL     1       1.182  -2.126   0.169  0.00  0.00    +0.260 C 
ATOM      3  O   UNL     1       2.236  -2.732   0.206  0.00  0.00    -0.269 OA
ATOM      4  H   UNL     1      -0.937  -2.253   0.159  0.00  0.00    +0.173 HD
ENDROOT
BRANCH   2   5
ATOM      5  C   UNL     1       1.181  -0.649   0.098  0.00  0.00    +0.040 A 
ATOM      6  C   UNL     1      -0.028   0.049   0.055  0.00  0.00    +0.013 A 
ATOM      7  C   UNL     1      -0.027   1.427  -0.013  0.00  0.00    +0.003 A 
ATOM      8  C   UNL     1       1.168   2.121  -0.038  0.00  0.00    +0.024 A 
ATOM      9  C   UNL     1       2.377   1.436   0.005  0.00  0.00    +0.048 A 
ATOM     10  C   UNL     1       2.386   0.051   0.072  0.00  0.00    +0.037 A 
BRANCH   9  11
ATOM     11  N   UNL     1       3.582   2.143  -0.021  0.00  0.00    -0.221 N 
ATOM     12  H   UNL     1       4.385   1.887   0.685  0.00  0.00    +0.173 HD
BRANCH  11  13
ATOM     13  S   UNL     1       3.800   3.367  -1.115  0.00  0.00    +0.040 S 
ATOM     14  O   UNL     1       2.704   4.245  -0.901  0.00  0.00    -0.155 OA
ATOM     15  O   UNL     1       5.134   3.809  -0.903  0.00  0.00    -0.155 OA
ATOM     16  C   UNL     1       3.656   2.572  -2.739  0.00  0.00    +0.218 C 
ENDBRANCH  11  13
ENDBRANCH   9  11
ENDBRANCH   2   5
BRANCH   1  17
ATOM     17  N   UNL     1       0.018  -4.200   0.260  0.00  0.00    -0.246 N 
ATOM     18  H   UNL     1       0.971  -4.748   0.294  0.00  0.00    +0.172 HD
BRANCH  17  19
ATOM     19  C   UNL     1      -1.149  -4.875   0.284  0.00  0.00    +0.147 C 
ATOM     20  S   UNL     1      -1.147  -6.585   0.367  0.00  0.00    -0.017 S 
BRANCH  19  21
ATOM     21  N   UNL     1      -2.317  -4.204   0.243  0.00  0.00    -0.322 N 
ATOM     22  H   UNL     1      -2.318  -3.105   0.190  0.00  0.00    +0.148 HD
BRANCH  21  28
ATOM     23  C   UNL     1      -7.092  -4.013  -1.022  0.00  0.00    +0.008 C 
ATOM     24  C   UNL     1      -6.000  -4.858  -0.363  0.00  0.00    -0.009 C 
ATOM     25  C   UNL     1      -6.390  -5.153   1.087  0.00  0.00    +0.003 C 
ATOM     26  C   UNL     1      -5.298  -5.998   1.746  0.00  0.00    +0.002 C 
ATOM     27  C   UNL     1      -3.974  -5.232   1.719  0.00  0.00    +0.022 C 
ATOM     28  C   UNL     1      -3.585  -4.937   0.269  0.00  0.00    +0.075 C 
ATOM     29  C   UNL     1      -4.676  -4.092  -0.390  0.00  0.00    +0.009 C 
ATOM     30  C   UNL     1      -4.833  -2.776   0.373  0.00  0.00    +0.009 C 
ENDBRANCH  21  28
ENDBRANCH  19  21
ENDBRANCH  17  19
ENDBRANCH   1  17
TORSDOF 7
