REMARK  Name = ZINC39352514
REMARK  16 active torsions:
REMARK  status: ('A' for Active; 'I' for Inactive)
REMARK    1  A    between atoms: C_1  and  C_2
REMARK    2  A    between atoms: C_2  and  C_3
REMARK    3  A    between atoms: C_3  and  C_5
REMARK    4  A    between atoms: C_3  and  N_6
REMARK    5  A    between atoms: N_6  and  C_7
REMARK    6  A    between atoms: N_13  and  C_29
REMARK    7  A    between atoms: C_14  and  C_25
REMARK    8  A    between atoms: C_16  and  N_18
REMARK    9  A    between atoms: C_19  and  C_21
REMARK   10  A    between atoms: C_21  and  C_22
REMARK   11  A    between atoms: C_22  and  O_23
REMARK   12  A    between atoms: O_23  and  C_24
REMARK   13  A    between atoms: C_25  and  O_27
REMARK   14  A    between atoms: O_27  and  C_28
REMARK   15  A    between atoms: C_29  and  C_30
REMARK   16  A    between atoms: C_30  and  C_31
REMARK                            x       y       z     vdW  Elec       q    Type
REMARK                         _______ _______ _______ _____ _____    ______ ____
ROOT
ATOM      1  C   UNL     1       0.585   0.033  -3.677  0.00  0.00    +0.044 A 
ATOM      2  C   UNL     1      -0.137   0.404  -4.811  0.00  0.00    +0.033 A 
ATOM      3  C   UNL     1       0.539   0.536  -6.009  0.00  0.00    +0.015 A 
ATOM      4  C   UNL     1       1.906   0.302  -6.064  0.00  0.00    +0.105 A 
ATOM      5  N   UNL     1       2.558  -0.050  -4.957  0.00  0.00    -0.348 N 
ATOM      6  C   UNL     1       1.950  -0.181  -3.796  0.00  0.00    +0.107 A 
ATOM      7  N   UNL     1       2.404   0.486  -7.353  0.00  0.00    -0.301 N 
ATOM      8  C   UNL     1       1.322   0.873  -8.262  0.00  0.00    +0.208 C 
ATOM      9  C   UNL     1       0.057   0.915  -7.389  0.00  0.00    +0.138 C 
ATOM     10  H   UNL     1       3.514  -0.211  -5.006  0.00  0.00    +0.167 HD
ENDROOT
BRANCH   9  11
ATOM     11  N   UNL     1      -0.513   2.265  -7.379  0.00  0.00    -0.306 N 
ATOM     12  C   UNL     1      -1.810   2.447  -7.059  0.00  0.00    +0.216 C 
ATOM     13  O   UNL     1      -2.505   1.493  -6.780  0.00  0.00    -0.276 OA
ATOM     14  H   UNL     1       0.043   3.028  -7.602  0.00  0.00    +0.149 HD
BRANCH  12  15
ATOM     15  C   UNL     1      -2.396   3.835  -7.049  0.00  0.00    +0.124 C 
BRANCH  15  16
ATOM     16  C   UNL     1      -3.873   3.762  -6.656  0.00  0.00    +0.168 C 
BRANCH  16  17
ATOM     17  O   UNL     1      -4.429   5.078  -6.646  0.00  0.00    -0.382 OA
ATOM     18  C   UNL     1      -5.812   5.123  -6.290  0.00  0.00    +0.194 C 
ENDBRANCH  16  17
ENDBRANCH  15  16
ENDBRANCH  12  15
ENDBRANCH   9  11
BRANCH   1  19
ATOM     19  N   UNL     1      -0.055  -0.114  -2.441  0.00  0.00    -0.340 N 
ATOM     20  H   UNL     1      -1.010   0.038  -2.368  0.00  0.00    +0.146 HD
BRANCH  19  21
ATOM     21  C   UNL     1       0.718  -0.497  -1.257  0.00  0.00    +0.067 C 
ATOM     22  C   UNL     1       0.849  -2.021  -1.205  0.00  0.00    +0.028 C 
BRANCH  21  24
ATOM     23  C   UNL     1      -0.019   1.526   0.010  0.00  0.00    +0.005 C 
ATOM     24  C   UNL     1       0.002  -0.004   0.002  0.00  0.00    +0.018 C 
ENDBRANCH  21  24
ENDBRANCH  19  21
ENDBRANCH   1  19
BRANCH   8  25
ATOM     25  C   UNL     1       1.597   2.232  -8.854  0.00  0.00    +0.330 C 
ATOM     26  O   UNL     1       2.394   2.971  -8.325  0.00  0.00    -0.249 OA
BRANCH  25  27
ATOM     27  O   UNL     1       0.958   2.621  -9.968  0.00  0.00    -0.467 OA
ATOM     28  C   UNL     1       1.268   3.921 -10.473  0.00  0.00    +0.280 C 
ENDBRANCH  25  27
ENDBRANCH   8  25
BRANCH   7  29
ATOM     29  C   UNL     1       3.806   0.317  -7.742  0.00  0.00    +0.112 C 
BRANCH  29  30
ATOM     30  C   UNL     1       4.045  -1.131  -8.173  0.00  0.00    +0.056 C 
BRANCH  30  31
ATOM     31  C   UNL     1       5.487  -1.305  -8.573  0.00  0.00    -0.021 A 
ATOM     32  C   UNL     1       6.612  -1.590  -7.678  0.00  0.00    +0.003 A 
ATOM     33  C   UNL     1       6.731  -1.780  -6.301  0.00  0.00    +0.010 A 
ATOM     34  C   UNL     1       7.958  -2.038  -5.755  0.00  0.00    +0.001 A 
ATOM     35  C   UNL     1       9.086  -2.112  -6.560  0.00  0.00    +0.002 A 
ATOM     36  C   UNL     1       8.990  -1.928  -7.923  0.00  0.00    +0.026 A 
ATOM     37  C   UNL     1       7.752  -1.665  -8.499  0.00  0.00    +0.047 A 
ATOM     38  N   UNL     1       7.337  -1.440  -9.793  0.00  0.00    -0.360 N 
ATOM     39  C   UNL     1       5.984  -1.234  -9.818  0.00  0.00    +0.087 A 
ATOM     40  H   UNL     1       7.916  -1.433 -10.570  0.00  0.00    +0.165 HD
ENDBRANCH  30  31
ENDBRANCH  29  30
ENDBRANCH   7  29
TORSDOF 12
