REMARK  Name = ZINC06603280
REMARK  3 active torsions:
REMARK  status: ('A' for Active; 'I' for Inactive)
REMARK    1  A    between atoms: C_8  and  C_10
REMARK    2  A    between atoms: C_14  and  N_16
REMARK    3  A    between atoms: C_17  and  C_18
REMARK                            x       y       z     vdW  Elec       q    Type
REMARK                         _______ _______ _______ _____ _____    ______ ____
ROOT
ATOM      1  C   UNL     1       3.635  -3.353  -0.053  0.00  0.00    +0.039 A 
ATOM      2  C   UNL     1       2.958  -4.575  -0.060  0.00  0.00    +0.013 A 
ATOM      3  C   UNL     1       3.666  -5.761  -0.074  0.00  0.00    +0.003 A 
ATOM      4  C   UNL     1       5.046  -5.748  -0.082  0.00  0.00    +0.028 A 
ATOM      5  C   UNL     1       5.737  -4.533  -0.076  0.00  0.00    +0.065 A 
ATOM      6  C   UNL     1       5.028  -3.332  -0.067  0.00  0.00    +0.041 A 
ENDROOT
BRANCH   1  14
ATOM      7  C   UNL     1      -0.017   1.372   0.010  0.00  0.00    +0.002 A 
ATOM      8  C   UNL     1       1.170   2.091   0.002  0.00  0.00    +0.004 A 
ATOM      9  C   UNL     1       2.385   1.437  -0.013  0.00  0.00    +0.048 A 
ATOM     10  C   UNL     1       2.423   0.052  -0.021  0.00  0.00    +0.156 A 
ATOM     11  C   UNL     1       1.225  -0.680  -0.013  0.00  0.00    +0.110 A 
ATOM     12  C   UNL     1       0.002  -0.004   0.002  0.00  0.00    +0.031 A 
ATOM     13  N   UNL     1       1.570  -1.993  -0.024  0.00  0.00    -0.209 NA
ATOM     14  C   UNL     1       2.875  -2.085  -0.038  0.00  0.00    +0.228 A 
ATOM     15  O   UNL     1       3.424  -0.856  -0.037  0.00  0.00    -0.435 OA
ENDBRANCH   1  14
BRANCH   5  16
ATOM     16  N   UNL     1       7.105  -4.522  -0.084  0.00  0.00    -0.254 NA
ATOM     17  C   UNL     1       7.770  -5.324   0.706  0.00  0.00    +0.137 C 
BRANCH  17  18
ATOM     18  C   UNL     1       9.231  -5.312   0.698  0.00  0.00    +0.058 A 
ATOM     19  C   UNL     1      10.037  -4.506  -0.084  0.00  0.00    +0.028 A 
ATOM     20  C   UNL     1      11.362  -4.825   0.228  0.00  0.00    +0.019 A 
ATOM     21  C   UNL     1      11.346  -5.795   1.172  0.00  0.00    +0.083 A 
ATOM     22  N   UNL     1      10.056  -6.097   1.471  0.00  0.00    -0.360 N 
ATOM     23  H   UNL     1       9.765  -6.757   2.119  0.00  0.00    +0.165 HD
ENDBRANCH  17  18
ENDBRANCH   5  16
TORSDOF 3
