REMARK  Name = ZINC59989962
REMARK  11 active torsions:
REMARK  status: ('A' for Active; 'I' for Inactive)
REMARK    1  A    between atoms: C_1  and  C_2
REMARK    2  A    between atoms: C_7  and  N_8
REMARK    3  A    between atoms: C_9  and  C_30
REMARK    4  A    between atoms: C_10  and  C_13
REMARK    5  A    between atoms: N_15  and  C_16
REMARK    6  A    between atoms: C_16  and  C_17
REMARK    7  A    between atoms: C_17  and  C_18
REMARK    8  A    between atoms: C_17  and  C_19
REMARK    9  A    between atoms: C_17  and  N_20
REMARK   10  A    between atoms: C_22  and  C_29
REMARK   11  A    between atoms: C_25  and  C_28
REMARK                            x       y       z     vdW  Elec       q    Type
REMARK                         _______ _______ _______ _____ _____    ______ ____
ROOT
ATOM      1  C   UNL     1      -1.895  -0.553   8.165  0.00  0.00    +0.248 C 
ATOM      2  O   UNL     1      -1.291  -1.009   7.213  0.00  0.00    -0.270 OA
ATOM      3  N   UNL     1      -1.704   0.730   8.532  0.00  0.00    -0.313 N 
ATOM      4  H   UNL     1      -2.186   1.094   9.291  0.00  0.00    +0.149 HD
ENDROOT
BRANCH   1   7
ATOM      5  N   UNL     1      -4.031  -3.124   9.575  0.00  0.00    -0.227 N 
ATOM      6  C   UNL     1      -3.130  -2.727   8.658  0.00  0.00    +0.159 A 
ATOM      7  C   UNL     1      -2.835  -1.403   8.917  0.00  0.00    +0.086 A 
ATOM      8  C   UNL     1      -3.604  -1.016  10.038  0.00  0.00    +0.148 A 
ATOM      9  N   UNL     1      -4.314  -2.043  10.416  0.00  0.00    -0.174 NA
BRANCH   5  16
ATOM     10  C   UNL     1      -3.848  -4.500  12.060  0.00  0.00    +0.046 C 
ATOM     11  C   UNL     1      -4.529  -5.109  10.861  0.00  0.00    -0.025 A 
ATOM     12  C   UNL     1      -5.092  -6.367  10.951  0.00  0.00    +0.005 A 
ATOM     13  C   UNL     1      -5.716  -6.927   9.851  0.00  0.00    +0.000 A 
ATOM     14  C   UNL     1      -5.779  -6.229   8.659  0.00  0.00    +0.002 A 
ATOM     15  C   UNL     1      -5.218  -4.971   8.563  0.00  0.00    +0.028 A 
ATOM     16  C   UNL     1      -4.596  -4.404   9.667  0.00  0.00    +0.069 A 
ENDBRANCH   5  16
BRANCH   6  17
ATOM     17  C   UNL     1      -2.549  -3.571   7.553  0.00  0.00    +0.435 C 
ATOM     18  F   UNL     1      -3.243  -3.326   6.364  0.00  0.00    -0.164 F 
ATOM     19  F   UNL     1      -1.199  -3.248   7.380  0.00  0.00    -0.164 F 
ATOM     20  F   UNL     1      -2.665  -4.924   7.890  0.00  0.00    -0.164 F 
ENDBRANCH   6  17
ENDBRANCH   1   7
BRANCH   3  21
ATOM     21  C   UNL     1      -0.770   1.575   7.784  0.00  0.00    +0.092 C 
BRANCH  21  22
ATOM     22  C   UNL     1      -0.830   3.004   8.325  0.00  0.00    -0.055 C 
ATOM     23  C   UNL     1      -0.429   3.008   9.802  0.00  0.00    -0.008 C 
ATOM     24  C   UNL     1       0.134   3.890   7.533  0.00  0.00    -0.008 C 
BRANCH  22  25
ATOM     25  N   UNL     1      -2.197   3.523   8.188  0.00  0.00    +0.384 N 
ATOM     26  C   UNL     1      -2.603   3.460   6.779  0.00  0.00    -0.075 C 
ATOM     27  C   UNL     1      -4.055   3.924   6.641  0.00  0.00    -0.031 C 
ATOM     28  C   UNL     1      -4.175   5.365   7.145  0.00  0.00    +0.003 C 
ATOM     29  C   UNL     1      -3.679   5.432   8.593  0.00  0.00    -0.031 C 
ATOM     30  C   UNL     1      -2.241   4.913   8.658  0.00  0.00    -0.075 C 
ATOM     31  C   UNL     1      -4.576   4.567   9.481  0.00  0.00    +0.005 C 
ATOM     32  C   UNL     1      -4.475   3.859   5.172  0.00  0.00    +0.005 C 
ATOM     33  H   UNL     1      -2.826   2.962   8.742  0.00  0.00    -0.081 HD
ENDBRANCH  22  25
ENDBRANCH  21  22
ENDBRANCH   3  21
TORSDOF 6
