REMARK  Name = ZINC58196327
REMARK  2 active torsions:
REMARK  status: ('A' for Active; 'I' for Inactive)
REMARK    1  A    between atoms: C_2  and  N_10
REMARK    2  A    between atoms: N_10  and  C_11
REMARK                            x       y       z     vdW  Elec       q    Type
REMARK                         _______ _______ _______ _____ _____    ______ ____
ROOT
ATOM      1  C   UNL     1      -0.016   1.299   0.009  0.00  0.00    +0.157 A 
ATOM      2  C   UNL     1       1.192   2.030   0.002  0.00  0.00    +0.067 A 
ATOM      3  C   UNL     1       2.396   1.351  -0.014  0.00  0.00    +0.106 A 
ATOM      4  C   UNL     1       2.387  -0.051  -0.021  0.00  0.00    +0.281 A 
ATOM      5  O   UNL     1       3.438  -0.673  -0.034  0.00  0.00    -0.265 OA
ATOM      6  N   UNL     1       1.210  -0.709  -0.013  0.00  0.00    -0.242 N 
ATOM      7  H   UNL     1       1.201  -1.679  -0.018  0.00  0.00    +0.192 HD
ATOM      8  N   UNL     1       0.002  -0.004   0.002  0.00  0.00    -0.177 NA
ATOM      9 BR   UNL     1       4.032   2.299  -0.025  0.00  0.00    -0.043 Br
ENDROOT
BRANCH   2  10
ATOM     10  N   UNL     1       1.170   3.414   0.009  0.00  0.00    -0.339 N 
ATOM     11  H   UNL     1       2.003   3.912   0.004  0.00  0.00    +0.146 HD
BRANCH  10  12
ATOM     12  C   UNL     1      -0.109   4.127   0.024  0.00  0.00    +0.070 C 
ATOM     13  C   UNL     1      -0.657   4.202  -1.416  0.00  0.00    +0.022 C 
ATOM     14  C   UNL     1      -2.139   4.452  -1.351  0.00  0.00    +0.002 C 
ATOM     15  C   UNL     1      -2.490   5.949  -1.445  0.00  0.00    +0.000 C 
ATOM     16  C   UNL     1      -1.542   6.837  -0.616  0.00  0.00    +0.000 C 
ATOM     17  C   UNL     1      -1.223   6.242   0.728  0.00  0.00    +0.002 C 
ATOM     18  C   UNL     1       0.091   5.444   0.611  0.00  0.00    +0.022 C 
ENDBRANCH  10  12
ENDBRANCH   2  10
TORSDOF 2
