REMARK  Name = ZINC20532100
REMARK  3 active torsions:
REMARK  status: ('A' for Active; 'I' for Inactive)
REMARK    1  A    between atoms: N_5  and  C_8
REMARK    2  A    between atoms: C_8  and  C_9
REMARK    3  A    between atoms: N_17  and  C_18
REMARK                            x       y       z     vdW  Elec       q    Type
REMARK                         _______ _______ _______ _____ _____    ______ ____
ROOT
ATOM      1  C   UNL     1      -0.753   1.592  -1.231  0.00  0.00    -0.025 C 
ATOM      2  C   UNL     1      -2.148   0.965  -1.285  0.00  0.00    +0.021 C 
ATOM      3  C   UNL     1      -2.898   1.501  -2.508  0.00  0.00    +0.109 C 
ATOM      4  N   UNL     1      -2.082   1.261  -3.706  0.00  0.00    -0.286 N 
ATOM      5  C   UNL     1      -0.694   1.743  -3.724  0.00  0.00    +0.109 C 
ATOM      6  C   UNL     1       0.031   1.204  -2.487  0.00  0.00    +0.021 C 
ATOM      7  C   UNL     1      -2.596   0.610  -4.768  0.00  0.00    +0.303 C 
ATOM      8  O   UNL     1      -1.942   0.497  -5.787  0.00  0.00    -0.253 OA
ATOM      9  N   UNL     1      -3.836   0.085  -4.701  0.00  0.00    -0.294 N 
ATOM     10  H   UNL     1      -4.458   0.257  -3.811  0.00  0.00    +0.151 HD
ENDROOT
BRANCH   9  11
ATOM     11  C   UNL     1      -4.353  -0.717  -5.813  0.00  0.00    +0.037 C 
ATOM     12  C   UNL     1      -4.380   0.134  -7.085  0.00  0.00    +0.029 C 
ATOM     13  C   UNL     1      -4.921  -0.703  -8.246  0.00  0.00    -0.008 C 
ATOM     14  C   UNL     1      -6.338  -1.175  -7.918  0.00  0.00    +0.007 C 
ATOM     15  C   UNL     1      -6.311  -2.026  -6.647  0.00  0.00    -0.008 C 
ATOM     16  C   UNL     1      -5.770  -1.190  -5.485  0.00  0.00    +0.029 C 
ATOM     17  C   UNL     1      -5.405  -3.240  -6.865  0.00  0.00    +0.007 C 
ATOM     18  C   UNL     1      -3.988  -2.767  -7.193  0.00  0.00    -0.008 C 
ATOM     19  C   UNL     1      -4.016  -1.917  -8.464  0.00  0.00    +0.007 C 
ATOM     20  C   UNL     1      -3.448  -1.931  -6.032  0.00  0.00    +0.029 C 
ENDBRANCH   9  11
BRANCH   1  21
ATOM     21  C   UNL     1      -0.013   1.085   0.009  0.00  0.00    -0.075 C 
BRANCH  21  26
ATOM     22  C   UNL     1       0.092   3.820   3.479  0.00  0.00    -0.002 C 
ATOM     23  C   UNL     1       0.623   2.589   4.053  0.00  0.00    -0.002 C 
ATOM     24  C   UNL     1       1.063   1.583   2.969  0.00  0.00    -0.019 C 
ATOM     25  C   UNL     1      -0.163   0.899   2.427  0.00  0.00    -0.079 C 
ATOM     26  N   UNL     1      -0.701   1.559   1.217  0.00  0.00    +0.380 N 
ATOM     27  C   UNL     1      -0.713   3.038   1.275  0.00  0.00    -0.079 C 
ATOM     28  C   UNL     1      -1.159   3.566   2.611  0.00  0.00    -0.019 C 
ATOM     29  H   UNL     1      -1.758   1.259   1.165  0.00  0.00    -0.082 HD
ENDBRANCH  21  26
ENDBRANCH   1  21
TORSDOF 3
