REMARK  Name = ZINC08897096
REMARK  12 active torsions:
REMARK  status: ('A' for Active; 'I' for Inactive)
REMARK    1  A    between atoms: C_1  and  C_2
REMARK    2  A    between atoms: C_9  and  N_13
REMARK    3  A    between atoms: C_10  and  C_11
REMARK    4  A    between atoms: C_14  and  C_16
REMARK    5  A    between atoms: C_16  and  S_17
REMARK    6  A    between atoms: S_17  and  C_18
REMARK    7  A    between atoms: C_21  and  C_30
REMARK    8  A    between atoms: N_22  and  C_23
REMARK    9  A    between atoms: C_30  and  C_32
REMARK   10  A    between atoms: C_30  and  N_61
REMARK   11  A    between atoms: C_33  and  N_61
REMARK   12  A    between atoms: C_34  and  N_61
REMARK                            x       y       z     vdW  Elec       q    Type
REMARK                         _______ _______ _______ _____ _____    ______ ____
ROOT
ATOM      1  S   UNL     1      -3.874   2.010   0.031  0.00  0.00    -0.076 S 
ENDROOT
BRANCH   1   2
ATOM      2  C   UNL     1      -5.218   0.872   0.032  0.00  0.00    +0.197 A 
ATOM      3  N   UNL     1      -5.133  -0.439   0.025  0.00  0.00    -0.122 NA
ATOM      4  N   UNL     1      -6.310  -0.954   0.028  0.00  0.00    -0.135 NA
ATOM      5  C   UNL     1      -7.212  -0.014   0.037  0.00  0.00    +0.125 A 
ATOM      6  N   UNL     1      -6.550   1.185   0.045  0.00  0.00    -0.275 N 
BRANCH   6   7
ATOM      7  C   UNL     1      -7.119   2.468   0.061  0.00  0.00    +0.050 A 
ATOM      8  C   UNL     1      -7.860   2.885   1.157  0.00  0.00    +0.029 A 
ATOM      9  C   UNL     1      -8.414   4.151   1.174  0.00  0.00    +0.040 A 
ATOM     10  C   UNL     1      -8.241   4.997   0.092  0.00  0.00    +0.124 A 
ATOM     11  C   UNL     1      -7.506   4.580  -1.005  0.00  0.00    +0.040 A 
ATOM     12  C   UNL     1      -6.946   3.318  -1.023  0.00  0.00    +0.029 A 
ATOM     13  F   UNL     1      -8.789   6.232   0.107  0.00  0.00    -0.205 F 
ENDBRANCH   6   7
BRANCH   5  14
ATOM     14  C   UNL     1      -8.706  -0.209   0.044  0.00  0.00    -0.003 C 
ATOM     15  C   UNL     1      -9.156  -0.653   1.437  0.00  0.00    -0.005 C 
BRANCH  14  18
ATOM     16  C   UNL     1      -8.543  -2.552  -0.545  0.00  0.00    -0.096 C 
ATOM     17  C   UNL     1     -10.525  -1.291  -1.133  0.00  0.00    -0.096 C 
ATOM     18  N   UNL     1      -9.057  -1.232  -0.964  0.00  0.00    +0.382 N 
ATOM     19  H   UNL     1      -8.629  -0.976  -1.862  0.00  0.00    -0.082 HD
ENDBRANCH  14  18
ENDBRANCH   5  14
ENDBRANCH   1   2
BRANCH   1  20
ATOM     20  C   UNL     1      -2.482   0.853   0.018  0.00  0.00    +0.173 C 
BRANCH  20  22
ATOM     21  N   UNL     1      -0.011   0.966   0.007  0.00  0.00    -0.278 N 
ATOM     22  C   UNL     1      -1.187   1.624   0.017  0.00  0.00    +0.228 C 
ATOM     23  O   UNL     1      -1.204   2.837   0.023  0.00  0.00    -0.275 OA
ATOM     24  H   UNL     1       0.002  -0.004   0.002  0.00  0.00    +0.155 HD
BRANCH  21  32
ATOM     25  C   UNL     1       6.478   5.334  -0.128  0.00  0.00    +0.008 C 
ATOM     26  C   UNL     1       5.487   4.203  -0.408  0.00  0.00    -0.009 C 
ATOM     27  C   UNL     1       5.864   2.970   0.418  0.00  0.00    +0.008 C 
ATOM     28  C   UNL     1       5.038   1.765  -0.037  0.00  0.00    +0.037 C 
ATOM     29  C   UNL     1       3.563   2.148  -0.021  0.00  0.00    -0.018 A 
ATOM     30  C   UNL     1       3.181   3.444  -0.010  0.00  0.00    -0.004 A 
ATOM     31  S   UNL     1       1.411   3.393   0.007  0.00  0.00    -0.077 S 
ATOM     32  C   UNL     1       1.181   1.676  -0.000  0.00  0.00    +0.090 A 
ATOM     33  C   UNL     1       2.478   1.183  -0.010  0.00  0.00    +0.084 A 
ATOM     34  C   UNL     1       4.071   4.649  -0.013  0.00  0.00    +0.046 C 
BRANCH  33  35
ATOM     35  C   UNL     1       2.736  -0.225  -0.013  0.00  0.00    +0.102 C 
ATOM     36  N   UNL     1       2.942  -1.342  -0.015  0.00  0.00    -0.191 NA
ENDBRANCH  33  35
ENDBRANCH  21  32
ENDBRANCH  20  22
ENDBRANCH   1  20
TORSDOF 8
