REMARK  Name = ZINC33460131
REMARK  13 active torsions:
REMARK  status: ('A' for Active; 'I' for Inactive)
REMARK    1  A    between atoms: C_1  and  C_2
REMARK    2  A    between atoms: C_2  and  O_3
REMARK    3  A    between atoms: O_3  and  C_4
REMARK    4  A    between atoms: N_9  and  C_12
REMARK    5  A    between atoms: C_13  and  C_23
REMARK    6  A    between atoms: C_14  and  C_22
REMARK    7  A    between atoms: C_15  and  C_20
REMARK    8  A    between atoms: N_18  and  C_19
REMARK    9  A    between atoms: N_27  and  C_31
REMARK   10  A    between atoms: C_31  and  C_32
REMARK   11  A    between atoms: C_32  and  C_33
REMARK   12  A    between atoms: C_33  and  O_34
REMARK   13  A    between atoms: O_34  and  C_35
REMARK                            x       y       z     vdW  Elec       q    Type
REMARK                         _______ _______ _______ _____ _____    ______ ____
ROOT
ATOM      1  C   UNL     1      -4.408   3.656  -1.828  0.00  0.00    +0.112 A 
ATOM      2  C   UNL     1      -4.633   5.042  -1.867  0.00  0.00    +0.019 A 
ATOM      3  C   UNL     1      -5.530   5.571  -2.809  0.00  0.00    -0.017 A 
ATOM      4  C   UNL     1      -6.176   4.702  -3.684  0.00  0.00    +0.120 A 
ATOM      5  C   UNL     1      -5.914   3.310  -3.604  0.00  0.00    +0.270 A 
ATOM      6  O   UNL     1      -6.476   2.545  -4.368  0.00  0.00    -0.266 OA
ATOM      7  N   UNL     1      -5.046   2.830  -2.696  0.00  0.00    -0.298 N 
ATOM      8  C   UNL     1      -4.789   1.389  -2.638  0.00  0.00    +0.154 C 
ATOM      9  C   UNL     1      -5.790   7.054  -2.873  0.00  0.00    +0.046 C 
ENDROOT
BRANCH   1  15
ATOM     10  C   UNL     1      -0.804   3.450   2.091  0.00  0.00    +0.403 C 
ATOM     11  O   UNL     1       0.353   3.693   1.812  0.00  0.00    -0.226 OA
ATOM     12  N   UNL     1      -1.652   3.022   1.134  0.00  0.00    -0.264 N 
ATOM     13  C   UNL     1      -3.055   2.716   1.451  0.00  0.00    +0.130 C 
ATOM     14  C   UNL     1      -3.951   3.469   0.455  0.00  0.00    +0.125 C 
ATOM     15  N   UNL     1      -3.537   3.137  -0.915  0.00  0.00    -0.313 N 
ATOM     16  C   UNL     1      -2.165   3.587  -1.181  0.00  0.00    +0.125 C 
ATOM     17  C   UNL     1      -1.198   2.844  -0.253  0.00  0.00    +0.130 C 
BRANCH  10  18
ATOM     18  O   UNL     1      -1.241   3.612   3.354  0.00  0.00    -0.451 OA
BRANCH  18  20
ATOM     19  C   UNL     1      -0.949   4.203   5.698  0.00  0.00    +0.048 C 
ATOM     20  C   UNL     1      -0.274   4.081   4.330  0.00  0.00    +0.230 C 
ENDBRANCH  18  20
ENDBRANCH  10  18
ENDBRANCH   1  15
BRANCH   2  21
ATOM     21  C   UNL     1      -3.938   5.929  -0.931  0.00  0.00    +0.032 C 
ATOM     22  C   UNL     1      -4.641   6.596   0.024  0.00  0.00    +0.077 C 
ATOM     23  C   UNL     1      -4.195   7.578   0.961  0.00  0.00    +0.258 C 
ATOM     24  O   UNL     1      -3.031   7.937   0.987  0.00  0.00    -0.269 OA
ATOM     25  N   UNL     1      -5.083   8.084   1.798  0.00  0.00    -0.255 N 
ATOM     26  C   UNL     1      -6.374   7.685   1.769  0.00  0.00    +0.121 C 
ATOM     27  S   UNL     1      -7.679   8.202   2.749  0.00  0.00    -0.027 S 
ATOM     28  S   UNL     1      -6.375   6.487   0.444  0.00  0.00    -0.061 S 
BRANCH  25  29
ATOM     29  C   UNL     1      -4.661   9.094   2.773  0.00  0.00    +0.117 C 
BRANCH  29  30
ATOM     30  C   UNL     1      -4.816  10.488   2.162  0.00  0.00    +0.047 C 
BRANCH  30  31
ATOM     31  C   UNL     1      -4.376  11.542   3.180  0.00  0.00    +0.161 C 
BRANCH  31  32
ATOM     32  O   UNL     1      -4.520  12.844   2.610  0.00  0.00    -0.383 OA
ATOM     33  C   UNL     1      -4.134  13.908   3.483  0.00  0.00    +0.193 C 
ENDBRANCH  31  32
ENDBRANCH  30  31
ENDBRANCH  29  30
ENDBRANCH  25  29
ENDBRANCH   2  21
BRANCH   4  34
ATOM     34  C   UNL     1      -7.097   5.209  -4.657  0.00  0.00    +0.105 C 
ATOM     35  N   UNL     1      -7.828   5.611  -5.428  0.00  0.00    -0.191 NA
ENDBRANCH   4  34
TORSDOF 9
