REMARK  Name = ZINC24176155
REMARK  14 active torsions:
REMARK  status: ('A' for Active; 'I' for Inactive)
REMARK    1  A    between atoms: C_1  and  C_2
REMARK    2  A    between atoms: C_5  and  C_9
REMARK    3  A    between atoms: C_7  and  C_8
REMARK    4  A    between atoms: C_9  and  C_11
REMARK    5  A    between atoms: C_9  and  N_12
REMARK    6  A    between atoms: C_13  and  C_15
REMARK    7  A    between atoms: C_15  and  S_16
REMARK    8  A    between atoms: S_16  and  C_17
REMARK    9  A    between atoms: C_21  and  C_23
REMARK   10  A    between atoms: C_23  and  C_24
REMARK   11  A    between atoms: C_23  and  C_25
REMARK   12  A    between atoms: C_23  and  C_26
REMARK   13  A    between atoms: N_27  and  C_34
REMARK   14  A    between atoms: N_30  and  C_33
REMARK                            x       y       z     vdW  Elec       q    Type
REMARK                         _______ _______ _______ _____ _____    ______ ____
ROOT
ATOM      1  C   UNL     1      -1.714   4.681   2.956  0.00  0.00    +0.115 A 
ATOM      2  C   UNL     1      -1.522   3.327   2.640  0.00  0.00    +0.114 A 
ATOM      3  C   UNL     1      -2.013   2.350   3.527  0.00  0.00    +0.154 A 
ATOM      4  N   UNL     1      -2.638   2.742   4.628  0.00  0.00    -0.213 NA
ATOM      5  C   UNL     1      -2.797   4.027   4.887  0.00  0.00    +0.138 A 
ATOM      6  N   UNL     1      -2.355   4.976   4.088  0.00  0.00    -0.224 NA
ATOM      7  N   UNL     1      -1.824   1.020   3.217  0.00  0.00    -0.281 N 
ATOM      8  C   UNL     1      -1.184   0.664   2.089  0.00  0.00    +0.333 A 
ATOM      9  O   UNL     1      -1.038  -0.519   1.853  0.00  0.00    -0.246 OA
ATOM     10  N   UNL     1      -0.698   1.558   1.213  0.00  0.00    -0.263 N 
ATOM     11  C   UNL     1      -0.827   2.887   1.427  0.00  0.00    +0.268 A 
ATOM     12  O   UNL     1      -0.381   3.695   0.633  0.00  0.00    -0.267 OA
ATOM     13  C   UNL     1      -0.013   1.086   0.008  0.00  0.00    +0.157 C 
ATOM     14  C   UNL     1      -2.326  -0.015   4.124  0.00  0.00    +0.155 C 
ENDROOT
BRANCH   5  15
ATOM     15  C   UNL     1      -3.514   4.424   6.152  0.00  0.00    +0.022 C 
ATOM     16  C   UNL     1      -3.580   5.950   6.242  0.00  0.00    +0.019 C 
ATOM     17  C   UNL     1      -4.933   3.852   6.135  0.00  0.00    +0.019 C 
ATOM     18  C   UNL     1      -2.757   3.874   7.362  0.00  0.00    +0.019 C 
ENDBRANCH   5  15
BRANCH   1  19
ATOM     19  S   UNL     1      -1.125   5.953   1.888  0.00  0.00    -0.096 S 
BRANCH  19  20
ATOM     20  C   UNL     1      -1.661   7.413   2.814  0.00  0.00    +0.171 C 
BRANCH  20  22
ATOM     21  N   UNL     1      -1.549   9.873   2.572  0.00  0.00    -0.308 N 
ATOM     22  C   UNL     1      -1.253   8.658   2.069  0.00  0.00    +0.224 C 
ATOM     23  O   UNL     1      -0.659   8.567   1.015  0.00  0.00    -0.275 OA
ATOM     24  H   UNL     1      -2.088   9.955   3.528  0.00  0.00    +0.149 HD
BRANCH  21  25
ATOM     25  C   UNL     1      -1.153  11.083   1.848  0.00  0.00    +0.100 C 
ATOM     26  C   UNL     1      -2.215  11.421   0.800  0.00  0.00    +0.033 C 
BRANCH  25  31
ATOM     27  C   UNL     1      -0.649  15.476   5.568  0.00  0.00    +0.044 C 
ATOM     28  C   UNL     1      -0.781  14.331   4.597  0.00  0.00    -0.048 A 
ATOM     29  C   UNL     1      -1.818  13.426   4.732  0.00  0.00    +0.004 A 
ATOM     30  C   UNL     1      -1.940  12.378   3.840  0.00  0.00    +0.006 A 
ATOM     31  C   UNL     1      -1.022  12.229   2.818  0.00  0.00    -0.027 A 
ATOM     32  C   UNL     1       0.014  13.134   2.682  0.00  0.00    +0.009 A 
ATOM     33  C   UNL     1       0.135  14.185   3.572  0.00  0.00    -0.047 A 
ATOM     34  C   UNL     1       1.264  15.171   3.425  0.00  0.00    +0.044 C 
ENDBRANCH  25  31
ENDBRANCH  21  25
ENDBRANCH  20  22
ENDBRANCH  19  20
ENDBRANCH   1  19
TORSDOF 6
