REMARK  Name = ZINC34446351
REMARK  1 active torsions:
REMARK  status: ('A' for Active; 'I' for Inactive)
REMARK    1  A    between atoms: C_4  and  C_11
REMARK                            x       y       z     vdW  Elec       q    Type
REMARK                         _______ _______ _______ _____ _____    ______ ____
ROOT
ATOM      1  C   UNL     1      -0.013   1.086   0.008  0.00  0.00    +0.013 C 
ATOM      2  C   UNL     1       0.466   1.784  -1.260  0.00  0.00    +0.013 C 
ATOM      3  C   UNL     1       1.341   1.789  -0.001  0.00  0.00    +0.057 C 
ATOM      4  C   UNL     1       0.707   3.084  -0.500  0.00  0.00    +0.013 C 
ATOM      5  C   UNL     1      -0.437   3.698   0.292  0.00  0.00    +0.001 C 
ATOM      6  C   UNL     1      -0.915   2.999   1.561  0.00  0.00    +0.000 C 
ATOM      7  C   UNL     1      -1.163   1.710   0.783  0.00  0.00    +0.001 C 
ATOM      8  C   UNL     1      -1.790   2.994   0.301  0.00  0.00    +0.000 C 
ENDROOT
BRANCH   3   9
ATOM      9  C   UNL     1       2.663   1.484   0.653  0.00  0.00    +0.218 C 
ATOM     10  O   UNL     1       3.568   1.010  -0.001  0.00  0.00    -0.275 OA
ATOM     11  N   UNL     1       2.841   1.736   1.965  0.00  0.00    -0.329 N 
ATOM     12  H   UNL     1       2.118   2.115   2.488  0.00  0.00    +0.145 HD
ATOM     13  H   UNL     1       3.692   1.540   2.386  0.00  0.00    +0.145 HD
ENDBRANCH   3   9
TORSDOF 1
