REMARK  Name = ZINC66481854
REMARK  8 active torsions:
REMARK  status: ('A' for Active; 'I' for Inactive)
REMARK    1  A    between atoms: C_1  and  C_2
REMARK    2  A    between atoms: N_5  and  C_8
REMARK    3  A    between atoms: C_8  and  C_9
REMARK    4  A    between atoms: C_9  and  C_11
REMARK    5  A    between atoms: C_9  and  O_30
REMARK    6  A    between atoms: C_11  and  N_12
REMARK    7  A    between atoms: C_15  and  C_19
REMARK    8  A    between atoms: C_15  and  C_20
REMARK                            x       y       z     vdW  Elec       q    Type
REMARK                         _______ _______ _______ _____ _____    ______ ____
ROOT
ATOM      1  N   UNL     1       0.113  -6.457   4.513  0.00  0.00    -0.222 N 
ATOM      2  C   UNL     1       1.450  -6.545   4.365  0.00  0.00    +0.251 C 
ATOM      3  O   UNL     1       2.089  -6.353   3.353  0.00  0.00    -0.272 OA
ATOM      4  C   UNL     1       1.988  -6.934   5.727  0.00  0.00    +0.136 C 
ATOM      5  N   UNL     1       0.778  -7.029   6.563  0.00  0.00    -0.281 N 
ATOM      6  C   UNL     1      -0.264  -6.729   5.767  0.00  0.00    +0.310 C 
ATOM      7  O   UNL     1      -1.419  -6.710   6.145  0.00  0.00    -0.252 OA
ATOM      8  C   UNL     1       2.701  -8.286   5.658  0.00  0.00    +0.047 C 
ATOM      9  H   UNL     1       0.741  -7.261   7.504  0.00  0.00    +0.152 HD
ENDROOT
BRANCH   4  10
ATOM     10  C   UNL     1       2.914  -5.870   6.255  0.00  0.00    -0.008 A 
ATOM     11  C   UNL     1       2.604  -5.197   7.397  0.00  0.00    +0.007 A 
ATOM     12  C   UNL     1       3.448  -4.209   7.900  0.00  0.00    +0.001 A 
ATOM     13  C   UNL     1       4.609  -3.889   7.264  0.00  0.00    +0.008 A 
ATOM     14  C   UNL     1       4.963  -4.562   6.083  0.00  0.00    -0.018 A 
ATOM     15  C   UNL     1       4.107  -5.571   5.575  0.00  0.00    -0.012 A 
ATOM     16  C   UNL     1       4.465  -6.249   4.397  0.00  0.00    +0.009 A 
ATOM     17  C   UNL     1       5.628  -5.933   3.765  0.00  0.00    +0.001 A 
ATOM     18  C   UNL     1       6.473  -4.945   4.268  0.00  0.00    +0.001 A 
ATOM     19  C   UNL     1       6.153  -4.259   5.399  0.00  0.00    +0.008 A 
ENDBRANCH   4  10
BRANCH   1  20
ATOM     20  C   UNL     1      -0.813  -6.102   3.434  0.00  0.00    +0.147 C 
BRANCH  20  21
ATOM     21  C   UNL     1      -0.999  -4.583   3.402  0.00  0.00    +0.116 C 
BRANCH  21  22
ATOM     22  O   UNL     1      -1.533  -4.143   4.652  0.00  0.00    -0.392 OA
ATOM     23  H   UNL     1      -2.390  -4.531   4.872  0.00  0.00    +0.210 HD
ENDBRANCH  21  22
BRANCH  21  24
ATOM     24  C   UNL     1      -1.966  -4.212   2.275  0.00  0.00    -0.046 C 
BRANCH  24  29
ATOM     25  C   UNL     1      -2.002   1.279   0.737  0.00  0.00    +0.007 C 
ATOM     26  C   UNL     1      -1.878  -0.246   0.720  0.00  0.00    -0.018 C 
ATOM     27  C   UNL     1      -3.220  -0.873   1.109  0.00  0.00    -0.016 C 
ATOM     28  C   UNL     1      -3.068  -2.394   1.168  0.00  0.00    -0.078 C 
ATOM     29  N   UNL     1      -2.053  -2.750   2.167  0.00  0.00    +0.381 N 
ATOM     30  C   UNL     1      -0.748  -2.212   1.763  0.00  0.00    -0.078 C 
ATOM     31  C   UNL     1      -0.810  -0.684   1.727  0.00  0.00    -0.016 C 
ATOM     32  H   UNL     1      -2.312  -2.363   3.062  0.00  0.00    -0.082 HD
ENDBRANCH  24  29
ENDBRANCH  21  24
ENDBRANCH  20  21
ENDBRANCH   1  20
TORSDOF 6
