REMARK  Name = ZINC17156186
REMARK  7 active torsions:
REMARK  status: ('A' for Active; 'I' for Inactive)
REMARK    1  A    between atoms: C_6  and  N_7
REMARK    2  A    between atoms: C_8  and  C_10
REMARK    3  A    between atoms: C_10  and  S_11
REMARK    4  A    between atoms: S_11  and  C_12
REMARK    5  A    between atoms: C_15  and  S_19
REMARK    6  A    between atoms: C_16  and  N_18
REMARK    7  A    between atoms: S_19  and  C_22
REMARK                            x       y       z     vdW  Elec       q    Type
REMARK                         _______ _______ _______ _____ _____    ______ ____
ROOT
ATOM      1  C   UNL     1      -0.021   1.758  -0.002  0.00  0.00    +0.190 A 
ATOM      2  N   UNL     1       1.127   2.420  -0.018  0.00  0.00    -0.228 NA
ATOM      3  C   UNL     1       1.149   3.745  -0.020  0.00  0.00    +0.144 A 
ATOM      4  C   UNL     1      -0.044   4.441  -0.005  0.00  0.00    +0.152 A 
ATOM      5  C   UNL     1      -1.238   3.717   0.011  0.00  0.00    +0.146 A 
ATOM      6  N   UNL     1      -1.187   2.389   0.008  0.00  0.00    -0.205 NA
ENDROOT
BRANCH   5   7
ATOM      7  N   UNL     1      -2.458   4.373   0.026  0.00  0.00    -0.342 N 
ATOM      8  H   UNL     1      -2.487   5.343   0.025  0.00  0.00    +0.144 HD
ATOM      9  H   UNL     1      -3.283   3.863   0.038  0.00  0.00    +0.144 HD
ENDBRANCH   5   7
BRANCH   4  10
ATOM     10  S   UNL     1      -0.059   6.203  -0.007  0.00  0.00    +0.036 S 
ATOM     11  O   UNL     1      -0.945   6.603   1.030  0.00  0.00    -0.164 OA
ATOM     12  O   UNL     1       1.299   6.620  -0.052  0.00  0.00    -0.164 OA
BRANCH  10  13
ATOM     13  C   UNL     1      -0.794   6.716  -1.524  0.00  0.00    +0.132 A 
ATOM     14  C   UNL     1      -2.099   6.952  -1.802  0.00  0.00    +0.036 A 
ATOM     15  C   UNL     1      -2.450   7.356  -3.077  0.00  0.00    +0.029 A 
ATOM     16  C   UNL     1      -1.479   7.493  -4.014  0.00  0.00    +0.080 A 
ATOM     17  S   UNL     1      -0.014   7.053  -3.094  0.00  0.00    -0.058 S 
ATOM     18 CL   UNL     1      -1.623   7.972  -5.676  0.00  0.00    -0.076 Cl
ENDBRANCH  10  13
ENDBRANCH   4  10
BRANCH   1  19
ATOM     19  S   UNL     1       0.002  -0.004   0.000  0.00  0.00    -0.077 S 
BRANCH  19  20
ATOM     20  C   UNL     1       1.789  -0.294  -0.023  0.00  0.00    +0.173 C 
BRANCH  20  22
ATOM     21  N   UNL     1       3.325  -2.232  -0.042  0.00  0.00    -0.285 N 
ATOM     22  C   UNL     1       2.057  -1.777  -0.025  0.00  0.00    +0.227 C 
ATOM     23  O   UNL     1       1.131  -2.561  -0.012  0.00  0.00    -0.275 OA
ATOM     24  H   UNL     1       4.064  -1.608  -0.120  0.00  0.00    +0.155 HD
BRANCH  21  30
ATOM     25  C   UNL     1       4.699  -4.062   0.733  0.00  0.00    +0.025 A 
ATOM     26  C   UNL     1       4.942  -5.418   0.831  0.00  0.00    +0.022 A 
ATOM     27  C   UNL     1       4.074  -6.322   0.243  0.00  0.00    +0.041 A 
ATOM     28  C   UNL     1       2.958  -5.870  -0.438  0.00  0.00    +0.022 A 
ATOM     29  C   UNL     1       2.707  -4.515  -0.534  0.00  0.00    +0.025 A 
ATOM     30  C   UNL     1       3.577  -3.606   0.054  0.00  0.00    +0.033 A 
ATOM     31 CL   UNL     1       4.386  -8.025   0.362  0.00  0.00    -0.084 Cl
ENDBRANCH  21  30
ENDBRANCH  20  22
ENDBRANCH  19  20
ENDBRANCH   1  19
TORSDOF 7
