REMARK  Name = ZINC43525348
REMARK  9 active torsions:
REMARK  status: ('A' for Active; 'I' for Inactive)
REMARK    1  A    between atoms: C_1  and  C_2
REMARK    2  A    between atoms: C_2  and  C_4
REMARK    3  A    between atoms: C_7  and  N_10
REMARK    4  A    between atoms: C_11  and  O_13
REMARK    5  A    between atoms: O_13  and  C_14
REMARK    6  A    between atoms: C_14  and  C_15
REMARK    7  A    between atoms: C_24  and  C_26
REMARK    8  A    between atoms: C_28  and  C_32
REMARK    9  A    between atoms: N_30  and  C_31
REMARK                            x       y       z     vdW  Elec       q    Type
REMARK                         _______ _______ _______ _____ _____    ______ ____
ROOT
ATOM      1  C   UNL     1      -0.325  -7.036  -7.279  0.00  0.00    -0.030 C 
ATOM      2  C   UNL     1      -1.521  -6.572  -8.113  0.00  0.00    -0.008 C 
ATOM      3  C   UNL     1      -1.003  -5.914  -9.399  0.00  0.00    -0.007 C 
ATOM      4  C   UNL     1      -0.121  -4.720  -9.010  0.00  0.00    -0.015 C 
ATOM      5  C   UNL     1       1.030  -5.221  -8.136  0.00  0.00    -0.078 C 
ATOM      6  N   UNL     1       0.923  -6.705  -7.970  0.00  0.00    +0.384 N 
ATOM      7  C   UNL     1       0.996  -7.392  -9.262  0.00  0.00    -0.068 C 
ATOM      8  C   UNL     1      -0.155  -6.941 -10.160  0.00  0.00    +0.024 C 
ATOM      9  H   UNL     1       1.696  -7.023  -7.404  0.00  0.00    -0.081 HD
ENDROOT
BRANCH   8  10
ATOM     10  C   UNL     1       0.399  -6.311 -11.412  0.00  0.00    +0.041 A 
ATOM     11  C   UNL     1       1.527  -5.573 -11.497  0.00  0.00    +0.053 A 
ATOM     12  C   UNL     1       1.683  -5.176 -12.839  0.00  0.00    +0.093 A 
ATOM     13  N   UNL     1       0.674  -5.667 -13.527  0.00  0.00    -0.171 NA
ATOM     14  N   UNL     1      -0.142  -6.389 -12.647  0.00  0.00    -0.271 N 
ATOM     15  C   UNL     1      -1.372  -7.101 -13.003  0.00  0.00    +0.172 C 
BRANCH  12  16
ATOM     16  C   UNL     1       2.790  -4.350 -13.383  0.00  0.00    +0.002 A 
ATOM     17  C   UNL     1       3.803  -3.898 -12.540  0.00  0.00    +0.013 A 
ATOM     18  C   UNL     1       4.830  -3.130 -13.049  0.00  0.00    +0.039 A 
ATOM     19  C   UNL     1       4.855  -2.808 -14.396  0.00  0.00    +0.123 A 
ATOM     20  C   UNL     1       3.850  -3.256 -15.238  0.00  0.00    +0.039 A 
ATOM     21  C   UNL     1       2.822  -4.030 -14.738  0.00  0.00    +0.013 A 
ATOM     22  F   UNL     1       5.863  -2.056 -14.891  0.00  0.00    -0.205 F 
ENDBRANCH  12  16
ENDBRANCH   8  10
BRANCH   1  23
ATOM     23  C   UNL     1      -0.353  -6.337  -5.919  0.00  0.00    +0.219 C 
BRANCH  23  24
ATOM     24  O   UNL     1       0.735  -6.806  -5.120  0.00  0.00    -0.452 OA
BRANCH  24  26
ATOM     25  N   UNL     1       1.859  -6.686  -3.079  0.00  0.00    -0.251 N 
ATOM     26  C   UNL     1       0.854  -6.286  -3.884  0.00  0.00    +0.404 C 
ATOM     27  O   UNL     1       0.056  -5.457  -3.494  0.00  0.00    -0.226 OA
ATOM     28  H   UNL     1       2.538  -7.292  -3.414  0.00  0.00    +0.158 HD
BRANCH  25  32
ATOM     29  C   UNL     1       2.046  -5.324   0.843  0.00  0.00    +0.017 A 
ATOM     30  C   UNL     1       0.804  -5.538   0.232  0.00  0.00    +0.013 A 
ATOM     31  C   UNL     1       0.747  -5.985  -1.057  0.00  0.00    +0.024 A 
ATOM     32  C   UNL     1       1.921  -6.229  -1.764  0.00  0.00    +0.036 A 
ATOM     33  C   UNL     1       3.158  -6.018  -1.161  0.00  0.00    +0.024 A 
ATOM     34  C   UNL     1       3.225  -5.564   0.126  0.00  0.00    +0.013 A 
BRANCH  29  36
ATOM     35  C   UNL     1       0.842  -4.584   2.998  0.00  0.00    +0.091 C 
ATOM     36  C   UNL     1       2.112  -4.842   2.229  0.00  0.00    +0.160 C 
ATOM     37  O   UNL     1       3.189  -4.653   2.754  0.00  0.00    -0.292 OA
ENDBRANCH  29  36
ENDBRANCH  25  32
ENDBRANCH  24  26
ENDBRANCH  23  24
ENDBRANCH   1  23
TORSDOF 7
