REMARK  Name = ZINC20896250
REMARK  6 active torsions:
REMARK  status: ('A' for Active; 'I' for Inactive)
REMARK    1  A    between atoms: C_1  and  C_2
REMARK    2  A    between atoms: C_2  and  C_4
REMARK    3  A    between atoms: C_2  and  S_11
REMARK    4  A    between atoms: N_9  and  C_10
REMARK    5  A    between atoms: S_11  and  C_12
REMARK    6  A    between atoms: N_25  and  C_26
REMARK                            x       y       z     vdW  Elec       q    Type
REMARK                         _______ _______ _______ _____ _____    ______ ____
ROOT
ATOM      1  C   UNL     1      -2.864   1.306  -0.983  0.00  0.00    +0.178 A 
ATOM      2  N   UNL     1      -3.055   0.517   0.055  0.00  0.00    -0.215 NA
ATOM      3  C   UNL     1      -3.775  -0.593  -0.058  0.00  0.00    +0.117 A 
ATOM      4  C   UNL     1      -4.363  -0.982  -1.273  0.00  0.00    +0.076 A 
ATOM      5  C   UNL     1      -5.127  -2.231  -1.242  0.00  0.00    -0.023 A 
ATOM      6  C   UNL     1      -5.190  -2.881  -0.062  0.00  0.00    -0.004 A 
ATOM      7  S   UNL     1      -4.252  -1.883   1.064  0.00  0.00    -0.073 S 
ATOM      8  C   UNL     1      -5.902  -4.167   0.229  0.00  0.00    +0.043 C 
ATOM      9  C   UNL     1      -6.867  -4.459  -0.929  0.00  0.00    +0.005 C 
ATOM     10  C   UNL     1      -6.118  -4.274  -2.252  0.00  0.00    +0.005 C 
ATOM     11  C   UNL     1      -5.825  -2.790  -2.478  0.00  0.00    +0.037 C 
ATOM     12  C   UNL     1      -4.140  -0.108  -2.383  0.00  0.00    +0.268 A 
ATOM     13  O   UNL     1      -4.613  -0.365  -3.477  0.00  0.00    -0.267 OA
ATOM     14  N   UNL     1      -3.405   1.005  -2.201  0.00  0.00    -0.255 N 
ENDROOT
BRANCH  14  15
ATOM     15  C   UNL     1      -3.187   1.869  -3.283  0.00  0.00    +0.052 A 
ATOM     16  C   UNL     1      -4.073   2.908  -3.533  0.00  0.00    +0.028 A 
ATOM     17  C   UNL     1      -3.852   3.762  -4.596  0.00  0.00    +0.022 A 
ATOM     18  C   UNL     1      -2.755   3.575  -5.419  0.00  0.00    +0.041 A 
ATOM     19  C   UNL     1      -1.874   2.536  -5.175  0.00  0.00    +0.022 A 
ATOM     20  C   UNL     1      -2.087   1.683  -4.110  0.00  0.00    +0.028 A 
ATOM     21 CL   UNL     1      -2.485   4.644  -6.759  0.00  0.00    -0.084 Cl
ENDBRANCH  14  15
BRANCH   1  22
ATOM     22  S   UNL     1      -1.903   2.771  -0.796  0.00  0.00    -0.075 S 
BRANCH  22  24
ATOM     23  C   UNL     1      -2.751   2.759   1.801  0.00  0.00    +0.029 C 
ATOM     24  C   UNL     1      -1.478   2.647   0.959  0.00  0.00    +0.137 C 
BRANCH  24  25
ATOM     25  C   UNL     1      -0.532   3.761   1.327  0.00  0.00    +0.233 C 
ATOM     26  O   UNL     1      -0.523   4.787   0.680  0.00  0.00    -0.274 OA
ATOM     27  N   UNL     1       0.303   3.618   2.375  0.00  0.00    -0.239 N 
ATOM     28  C   UNL     1       1.148   4.614   2.704  0.00  0.00    +0.306 C 
ATOM     29  O   UNL     1       1.158   5.642   2.056  0.00  0.00    -0.252 OA
ATOM     30  N   UNL     1       1.984   4.471   3.752  0.00  0.00    -0.302 N 
ATOM     31  C   UNL     1       2.903   5.554   4.109  0.00  0.00    +0.129 C 
ATOM     32  H   UNL     1       0.295   2.687   2.961  0.00  0.00    +0.159 HD
ATOM     33  H   UNL     1       1.975   3.540   4.338  0.00  0.00    +0.150 HD
ENDBRANCH  24  25
ENDBRANCH  22  24
ENDBRANCH   1  22
TORSDOF 4
