REMARK  Name = ZINC59831408
REMARK  11 active torsions:
REMARK  status: ('A' for Active; 'I' for Inactive)
REMARK    1  A    between atoms: C_1  and  C_2
REMARK    2  A    between atoms: C_3  and  C_11
REMARK    3  A    between atoms: C_4  and  C_10
REMARK    4  A    between atoms: N_5  and  C_7
REMARK    5  A    between atoms: C_7  and  C_8
REMARK    6  A    between atoms: N_12  and  N_13
REMARK    7  A    between atoms: C_16  and  S_19
REMARK    8  A    between atoms: S_19  and  C_20
REMARK    9  A    between atoms: C_20  and  C_21
REMARK   10  A    between atoms: C_21  and  C_22
REMARK   11  A    between atoms: N_24  and  C_25
REMARK                            x       y       z     vdW  Elec       q    Type
REMARK                         _______ _______ _______ _____ _____    ______ ____
ROOT
ATOM      1  N   UNL     1       6.149   5.073  -0.490  0.00  0.00    -0.205 N 
ATOM      2  C   UNL     1       5.389   5.958  -1.231  0.00  0.00    +0.232 A 
ATOM      3  N   UNL     1       4.145   6.310  -0.980  0.00  0.00    -0.186 NA
ATOM      4  C   UNL     1       3.729   7.182  -1.904  0.00  0.00    +0.210 A 
ATOM      5  N   UNL     1       4.703   7.398  -2.756  0.00  0.00    -0.144 NA
ATOM      6  N   UNL     1       5.793   6.618  -2.338  0.00  0.00    -0.245 N 
ATOM      7  H   UNL     1       7.062   4.880  -0.753  0.00  0.00    +0.177 HD
ATOM      8  H   UNL     1       6.664   6.562  -2.761  0.00  0.00    +0.192 HD
ENDROOT
BRANCH   1  10
ATOM      9  C   UNL     1       6.314   3.626   1.339  0.00  0.00    +0.141 C 
ATOM     10  N   UNL     1       5.600   4.456   0.642  0.00  0.00    -0.187 NA
BRANCH   9  13
ATOM     11  C   UNL     1       3.372   4.055   2.442  0.00  0.00    +0.068 C 
ATOM     12  C   UNL     1       4.429   3.158   3.033  0.00  0.00    +0.069 A 
ATOM     13  C   UNL     1       5.735   2.976   2.531  0.00  0.00    +0.038 A 
ATOM     14  C   UNL     1       6.371   2.079   3.361  0.00  0.00    +0.045 A 
ATOM     15  N   UNL     1       5.494   1.729   4.324  0.00  0.00    -0.264 N 
ATOM     16  N   UNL     1       4.296   2.418   4.100  0.00  0.00    -0.175 NA
ATOM     17  C   UNL     1       7.786   1.579   3.219  0.00  0.00    +0.066 C 
BRANCH  15  18
ATOM     18  C   UNL     1       5.753   0.793   5.421  0.00  0.00    +0.170 C 
BRANCH  18  19
ATOM     19  C   UNL     1       6.301   1.546   6.605  0.00  0.00    -0.012 C 
ATOM     20  C   UNL     1       5.714   1.449   7.772  0.00  0.00    +0.006 C 
ENDBRANCH  18  19
ENDBRANCH  15  18
ENDBRANCH   9  13
ENDBRANCH   1  10
BRANCH   4  21
ATOM     21  S   UNL     1       2.131   7.922  -1.967  0.00  0.00    -0.084 S 
BRANCH  21  22
ATOM     22  C   UNL     1       2.200   8.990  -3.432  0.00  0.00    +0.086 C 
BRANCH  22  23
ATOM     23  C   UNL     1       0.857   9.703  -3.607  0.00  0.00    +0.107 C 
BRANCH  23  24
ATOM     24  C   UNL     1       0.914  10.590  -4.824  0.00  0.00    +0.218 C 
ATOM     25  O   UNL     1       1.929  10.646  -5.486  0.00  0.00    -0.275 OA
ATOM     26  N   UNL     1      -0.162  11.320  -5.176  0.00  0.00    -0.283 N 
ATOM     27  H   UNL     1      -0.996  11.221  -4.691  0.00  0.00    +0.155 HD
BRANCH  26  28
ATOM     28  C   UNL     1      -0.077  12.223  -6.243  0.00  0.00    +0.070 A 
ATOM     29  C   UNL     1      -0.397  11.812  -7.531  0.00  0.00    +0.064 A 
ATOM     30  C   UNL     1      -0.311  12.706  -8.582  0.00  0.00    +0.022 A 
ATOM     31  C   UNL     1       0.093  14.009  -8.352  0.00  0.00    +0.003 A 
ATOM     32  C   UNL     1       0.412  14.421  -7.072  0.00  0.00    +0.022 A 
ATOM     33  C   UNL     1       0.323  13.534  -6.015  0.00  0.00    +0.064 A 
ATOM     34 CL   UNL     1       0.716  14.056  -4.407  0.00  0.00    -0.082 Cl
ATOM     35 CL   UNL     1      -0.903  10.177  -7.820  0.00  0.00    -0.082 Cl
ENDBRANCH  26  28
ENDBRANCH  23  24
ENDBRANCH  22  23
ENDBRANCH  21  22
ENDBRANCH   4  21
TORSDOF 9
