REMARK  Name = ZINC13506346
REMARK  10 active torsions:
REMARK  status: ('A' for Active; 'I' for Inactive)
REMARK    1  A    between atoms: C_1  and  C_2
REMARK    2  A    between atoms: C_5  and  N_9
REMARK    3  A    between atoms: C_7  and  C_8
REMARK    4  A    between atoms: N_9  and  C_10
REMARK    5  A    between atoms: C_10  and  C_12
REMARK    6  A    between atoms: C_10  and  C_18
REMARK    7  A    between atoms: N_20  and  C_21
REMARK    8  A    between atoms: C_26  and  C_28
REMARK    9  A    between atoms: C_28  and  N_29
REMARK   10  A    between atoms: C_30  and  C_32
REMARK                            x       y       z     vdW  Elec       q    Type
REMARK                         _______ _______ _______ _____ _____    ______ ____
ROOT
ATOM      1  N   UNL     1       2.377   3.889   0.558  0.00  0.00    -0.254 N 
ATOM      2  C   UNL     1       2.487   5.231   0.613  0.00  0.00    +0.238 C 
ATOM      3  O   UNL     1       3.516   5.770   0.266  0.00  0.00    -0.274 OA
ENDROOT
BRANCH   1   8
ATOM      4  C   UNL     1      -2.549   1.379   1.830  0.00  0.00    +0.044 C 
ATOM      5  C   UNL     1      -1.242   2.048   1.494  0.00  0.00    -0.047 A 
ATOM      6  C   UNL     1      -0.161   1.921   2.348  0.00  0.00    +0.005 A 
ATOM      7  C   UNL     1       1.040   2.528   2.040  0.00  0.00    +0.024 A 
ATOM      8  C   UNL     1       1.161   3.272   0.873  0.00  0.00    +0.038 A 
ATOM      9  C   UNL     1       0.073   3.403   0.020  0.00  0.00    +0.027 A 
ATOM     10  C   UNL     1      -1.126   2.793   0.334  0.00  0.00    -0.046 A 
ATOM     11  C   UNL     1      -2.307   2.934  -0.591  0.00  0.00    +0.044 C 
ENDBRANCH   1   8
BRANCH   1  12
ATOM     12  C   UNL     1       3.531   3.075   0.168  0.00  0.00    +0.199 C 
BRANCH  12  13
ATOM     13  C   UNL     1       3.201   1.616   0.347  0.00  0.00    +0.000 A 
ATOM     14  C   UNL     1       3.998   0.808   1.145  0.00  0.00    +0.009 A 
ATOM     15  C   UNL     1       3.654  -0.527   1.284  0.00  0.00    +0.020 A 
ATOM     16  C   UNL     1       2.540  -1.008   0.622  0.00  0.00    +0.111 A 
ATOM     17  N   UNL     1       1.808  -0.212  -0.132  0.00  0.00    -0.263 NA
ATOM     18  C   UNL     1       2.103   1.064  -0.285  0.00  0.00    +0.116 A 
ENDBRANCH  12  13
BRANCH  12  19
ATOM     19  C   UNL     1       3.867   3.340  -1.277  0.00  0.00    +0.239 C 
ATOM     20  O   UNL     1       3.208   4.130  -1.918  0.00  0.00    -0.273 OA
ATOM     21  N   UNL     1       4.901   2.698  -1.857  0.00  0.00    -0.311 N 
ATOM     22  H   UNL     1       5.428   2.066  -1.345  0.00  0.00    +0.149 HD
BRANCH  21  23
ATOM     23  C   UNL     1       5.227   2.956  -3.262  0.00  0.00    +0.073 C 
ATOM     24  C   UNL     1       4.414   2.015  -4.175  0.00  0.00    +0.022 C 
ATOM     25  C   UNL     1       5.392   1.659  -5.322  0.00  0.00    +0.002 C 
ATOM     26  C   UNL     1       6.748   1.528  -4.586  0.00  0.00    +0.002 C 
ATOM     27  C   UNL     1       6.712   2.647  -3.523  0.00  0.00    +0.022 C 
ENDBRANCH  21  23
ENDBRANCH  12  19
ENDBRANCH   1  12
BRANCH   2  28
ATOM     28  C   UNL     1       1.330   6.061   1.107  0.00  0.00    +0.201 C 
BRANCH  28  29
ATOM     29  N   UNL     1       1.665   7.483   0.991  0.00  0.00    -0.302 N 
ATOM     30  C   UNL     1       0.775   8.419   1.376  0.00  0.00    +0.251 C 
ATOM     31  O   UNL     1      -0.308   8.083   1.819  0.00  0.00    -0.270 OA
ATOM     32  H   UNL     1       2.528   7.751   0.637  0.00  0.00    +0.150 HD
BRANCH  30  33
ATOM     33  C   UNL     1       1.110   9.841   1.260  0.00  0.00    +0.074 A 
ATOM     34  C   UNL     1       0.345  10.949   1.589  0.00  0.00    +0.021 A 
ATOM     35  C   UNL     1       0.908  12.183   1.380  0.00  0.00    +0.008 A 
ATOM     36  C   UNL     1       2.162  12.260   0.861  0.00  0.00    +0.046 A 
ATOM     37  S   UNL     1       2.606  10.598   0.650  0.00  0.00    -0.092 S 
ENDBRANCH  30  33
ENDBRANCH  28  29
ENDBRANCH   2  28
TORSDOF 8
