REMARK  Name = ZINC64627478
REMARK  7 active torsions:
REMARK  status: ('A' for Active; 'I' for Inactive)
REMARK    1  A    between atoms: C_1  and  C_2
REMARK    2  A    between atoms: C_10  and  C_11
REMARK    3  A    between atoms: C_11  and  C_12
REMARK    4  A    between atoms: C_11  and  N_13
REMARK    5  A    between atoms: N_16  and  C_17
REMARK    6  A    between atoms: C_17  and  C_18
REMARK    7  A    between atoms: N_20  and  C_21
REMARK                            x       y       z     vdW  Elec       q    Type
REMARK                         _______ _______ _______ _____ _____    ______ ____
ROOT
ATOM      1  N   UNL     1       1.029  -1.116   3.255  0.00  0.00    -0.290 N 
ATOM      2  C   UNL     1       1.584  -0.590   4.366  0.00  0.00    +0.301 C 
ATOM      3  O   UNL     1       1.263   0.522   4.737  0.00  0.00    -0.253 OA
ATOM      4  N   UNL     1       2.494  -1.298   5.064  0.00  0.00    -0.291 N 
ATOM      5  H   UNL     1       1.285  -2.003   2.958  0.00  0.00    +0.151 HD
ATOM      6  H   UNL     1       2.750  -2.186   4.767  0.00  0.00    +0.151 HD
ENDROOT
BRANCH   1   7
ATOM      7  C   UNL     1       0.040  -0.346   2.497  0.00  0.00    +0.138 C 
ATOM      8  C   UNL     1      -1.347  -0.553   3.110  0.00  0.00    +0.036 C 
BRANCH   7  18
ATOM      9  C   UNL     1       0.003   1.498  -0.004  0.00  0.00    +0.048 C 
ATOM     10  C   UNL     1       0.015  -0.009  -0.006  0.00  0.00    +0.000 A 
ATOM     11  C   UNL     1       0.017  -0.888  -1.181  0.00  0.00    +0.023 A 
ATOM     12  C   UNL     1       0.010  -0.675  -2.559  0.00  0.00    +0.012 A 
ATOM     13  C   UNL     1       0.015  -1.745  -3.410  0.00  0.00    +0.001 A 
ATOM     14  C   UNL     1       0.026  -3.040  -2.911  0.00  0.00    +0.004 A 
ATOM     15  C   UNL     1       0.033  -3.270  -1.552  0.00  0.00    +0.047 A 
ATOM     16  C   UNL     1       0.029  -2.197  -0.670  0.00  0.00    +0.136 A 
ATOM     17  O   UNL     1       0.033  -2.102   0.675  0.00  0.00    -0.458 OA
ATOM     18  C   UNL     1       0.030  -0.815   1.064  0.00  0.00    +0.129 A 
ENDBRANCH   7  18
ENDBRANCH   1   7
BRANCH   4  19
ATOM     19  C   UNL     1       3.097  -0.727   6.270  0.00  0.00    +0.202 C 
BRANCH  19  20
ATOM     20  C   UNL     1       4.074  -1.713   6.858  0.00  0.00    +0.234 C 
ATOM     21  O   UNL     1       4.249  -2.786   6.322  0.00  0.00    -0.274 OA
ATOM     22  N   UNL     1       4.753  -1.401   7.980  0.00  0.00    -0.284 N 
ATOM     23  H   UNL     1       4.664  -0.518   8.371  0.00  0.00    +0.155 HD
BRANCH  22  24
ATOM     24  C   UNL     1       5.588  -2.352   8.580  0.00  0.00    +0.034 A 
ATOM     25  C   UNL     1       5.701  -2.403   9.963  0.00  0.00    +0.026 A 
ATOM     26  C   UNL     1       6.525  -3.341  10.553  0.00  0.00    +0.040 A 
ATOM     27  C   UNL     1       7.237  -4.231   9.767  0.00  0.00    +0.124 A 
ATOM     28  C   UNL     1       7.125  -4.182   8.387  0.00  0.00    +0.040 A 
ATOM     29  C   UNL     1       6.298  -3.249   7.794  0.00  0.00    +0.026 A 
ATOM     30  F   UNL     1       8.043  -5.148  10.346  0.00  0.00    -0.205 F 
ENDBRANCH  22  24
ENDBRANCH  19  20
ENDBRANCH   4  19
TORSDOF 5
