REMARK  Name = ZINC56946800
REMARK  12 active torsions:
REMARK  status: ('A' for Active; 'I' for Inactive)
REMARK    1  A    between atoms: C_1  and  C_2
REMARK    2  A    between atoms: C_2  and  C_3
REMARK    3  A    between atoms: C_3  and  C_5
REMARK    4  A    between atoms: C_3  and  N_6
REMARK    5  A    between atoms: C_7  and  C_9
REMARK    6  A    between atoms: C_9  and  N_10
REMARK    7  A    between atoms: N_18  and  C_19
REMARK    8  A    between atoms: C_19  and  C_21
REMARK    9  A    between atoms: C_19  and  C_22
REMARK   10  A    between atoms: C_22  and  N_23
REMARK   11  A    between atoms: C_25  and  C_32
REMARK   12  A    between atoms: C_28  and  C_31
REMARK                            x       y       z     vdW  Elec       q    Type
REMARK                         _______ _______ _______ _____ _____    ______ ____
ROOT
ATOM      1  N   UNL     1       4.225   1.452   5.214  0.00  0.00    -0.291 NA
ATOM      2  C   UNL     1       5.460   2.215   5.439  0.00  0.00    +0.104 C 
ATOM      3  C   UNL     1       6.665   1.362   5.028  0.00  0.00    +0.124 C 
ATOM      4  N   UNL     1       6.591   0.076   5.738  0.00  0.00    -0.283 N 
ATOM      5  C   UNL     1       5.333  -0.683   5.672  0.00  0.00    +0.124 C 
ATOM      6  C   UNL     1       4.181   0.250   6.057  0.00  0.00    +0.104 C 
ATOM      7  C   UNL     1       7.648  -0.394   6.429  0.00  0.00    +0.302 C 
ATOM      8  O   UNL     1       7.540  -1.411   7.088  0.00  0.00    -0.253 OA
ATOM      9  N   UNL     1       8.824   0.262   6.392  0.00  0.00    -0.298 N 
ATOM     10  H   UNL     1       8.892   1.111   5.926  0.00  0.00    +0.150 HD
ENDROOT
BRANCH   9  11
ATOM     11  C   UNL     1      10.002  -0.306   7.054  0.00  0.00    +0.055 C 
ATOM     12  C   UNL     1       9.996   0.089   8.532  0.00  0.00    +0.026 C 
BRANCH  11  13
ATOM     13  C   UNL     1      11.270   0.231   6.387  0.00  0.00    -0.057 C 
BRANCH  13  14
ATOM     14  N   UNL     1      11.219  -0.044   4.945  0.00  0.00    +0.381 N 
ATOM     15  C   UNL     1      11.239  -1.495   4.724  0.00  0.00    -0.076 C 
ATOM     16  C   UNL     1      11.104  -1.789   3.228  0.00  0.00    -0.031 C 
ATOM     17  C   UNL     1      12.273  -1.141   2.480  0.00  0.00    +0.003 C 
ATOM     18  C   UNL     1      12.287   0.361   2.777  0.00  0.00    -0.031 C 
ATOM     19  C   UNL     1      12.377   0.575   4.289  0.00  0.00    -0.076 C 
ATOM     20  C   UNL     1      13.495   1.005   2.095  0.00  0.00    +0.005 C 
ATOM     21  C   UNL     1      11.126  -3.302   3.001  0.00  0.00    +0.005 C 
ATOM     22  H   UNL     1      10.370   0.342   4.560  0.00  0.00    -0.082 HD
ENDBRANCH  13  14
ENDBRANCH  11  13
ENDBRANCH   9  11
BRANCH   1  23
ATOM     23  C   UNL     1       3.040   2.292   5.432  0.00  0.00    +0.180 C 
BRANCH  23  25
ATOM     24  N   UNL     1       1.988   4.274   4.390  0.00  0.00    -0.312 N 
ATOM     25  C   UNL     1       2.995   3.378   4.387  0.00  0.00    +0.227 C 
ATOM     26  O   UNL     1       3.864   3.445   3.544  0.00  0.00    -0.274 OA
ATOM     27  H   UNL     1       1.293   4.221   5.064  0.00  0.00    +0.149 HD
BRANCH  24  28
ATOM     28  C   UNL     1       1.945   5.329   3.375  0.00  0.00    +0.070 C 
ATOM     29  C   UNL     1       2.803   6.511   3.830  0.00  0.00    +0.028 C 
BRANCH  28  31
ATOM     30  C   UNL     1      -0.333   4.644   2.609  0.00  0.00    +0.005 C 
ATOM     31  C   UNL     1       0.499   5.792   3.183  0.00  0.00    +0.018 C 
ENDBRANCH  28  31
ENDBRANCH  24  28
ENDBRANCH  23  25
ENDBRANCH   1  23
TORSDOF 7
