REMARK  Name = ZINC06282054
REMARK  12 active torsions:
REMARK  status: ('A' for Active; 'I' for Inactive)
REMARK    1  A    between atoms: C_1  and  C_2
REMARK    2  A    between atoms: C_7  and  C_14
REMARK    3  A    between atoms: C_14  and  C_16
REMARK    4  A    between atoms: C_14  and  N_68
REMARK    5  A    between atoms: N_20  and  C_21
REMARK    6  A    between atoms: C_21  and  C_22
REMARK    7  A    between atoms: C_21  and  C_23
REMARK    8  A    between atoms: C_21  and  C_24
REMARK    9  A    between atoms: C_25  and  C_26
REMARK   10  A    between atoms: C_25  and  N_68
REMARK   11  A    between atoms: C_32  and  C_33
REMARK   12  A    between atoms: C_32  and  N_68
REMARK                            x       y       z     vdW  Elec       q    Type
REMARK                         _______ _______ _______ _____ _____    ______ ____
ROOT
ATOM      1  C   UNL     1       0.733   0.928  -0.396  0.00  0.00    +0.040 C 
ENDROOT
BRANCH   1   8
ATOM      2  C   UNL     1       8.323   1.517  -2.776  0.00  0.00    +0.044 C 
ATOM      3  C   UNL     1       6.946   1.188  -2.260  0.00  0.00    -0.048 A 
ATOM      4  C   UNL     1       6.696  -0.064  -1.716  0.00  0.00    +0.004 A 
ATOM      5  C   UNL     1       5.455  -0.382  -1.243  0.00  0.00    +0.010 A 
ATOM      6  C   UNL     1       4.426   0.563  -1.307  0.00  0.00    -0.001 A 
ATOM      7  C   UNL     1       3.083   0.256  -0.810  0.00  0.00    +0.017 A 
ATOM      8  C   UNL     1       2.125   1.211  -0.899  0.00  0.00    +0.011 A 
ATOM      9  C   UNL     1       2.425   2.469  -1.466  0.00  0.00    +0.251 A 
ATOM     10  O   UNL     1       1.548   3.311  -1.541  0.00  0.00    -0.268 OA
ATOM     11  N   UNL     1       3.656   2.762  -1.920  0.00  0.00    -0.322 N 
ATOM     12  H   UNL     1       3.830   3.637  -2.300  0.00  0.00    +0.169 HD
ATOM     13  C   UNL     1       4.675   1.834  -1.858  0.00  0.00    +0.049 A 
ATOM     14  C   UNL     1       5.947   2.135  -2.334  0.00  0.00    +0.029 A 
ENDBRANCH   1   8
BRANCH   1  15
ATOM     15  C   UNL     1       0.399   1.881   0.722  0.00  0.00    +0.143 A 
ATOM     16  N   UNL     1       0.057   3.140   0.601  0.00  0.00    -0.115 NA
ATOM     17  N   UNL     1      -0.150   3.612   1.782  0.00  0.00    -0.023 NA
ATOM     18  N   UNL     1       0.058   2.688   2.654  0.00  0.00    -0.043 NA
ATOM     19  N   UNL     1       0.399   1.605   2.040  0.00  0.00    -0.225 N 
BRANCH  19  20
ATOM     20  C   UNL     1       0.724   0.319   2.660  0.00  0.00    +0.059 C 
ATOM     21  C   UNL     1       2.118  -0.125   2.213  0.00  0.00    +0.036 C 
ATOM     22  C   UNL     1       0.698   0.465   4.182  0.00  0.00    +0.036 C 
ATOM     23  C   UNL     1      -0.306  -0.729   2.231  0.00  0.00    +0.036 C 
ENDBRANCH  19  20
ENDBRANCH   1  15
BRANCH   1  24
ATOM     24  N   UNL     1      -0.228   1.130  -1.501  0.00  0.00    +0.395 N 
ATOM     25  H   UNL     1      -0.208   2.117  -1.783  0.00  0.00    -0.079 HD
BRANCH  24  26
ATOM     26  C   UNL     1       0.149   0.292  -2.659  0.00  0.00    -0.040 C 
BRANCH  26  27
ATOM     27  C   UNL     1      -0.708   0.678  -3.837  0.00  0.00    -0.046 A 
ATOM     28  C   UNL     1      -1.909   0.027  -4.075  0.00  0.00    +0.005 A 
ATOM     29  C   UNL     1      -2.666   0.418  -5.169  0.00  0.00    +0.020 A 
ATOM     30  C   UNL     1      -2.196   1.431  -5.985  0.00  0.00    +0.111 A 
ATOM     31  N   UNL     1      -1.047   2.024  -5.731  0.00  0.00    -0.263 NA
ATOM     32  C   UNL     1      -0.303   1.681  -4.697  0.00  0.00    +0.112 A 
ENDBRANCH  26  27
ENDBRANCH  24  26
BRANCH  24  33
ATOM     33  C   UNL     1      -1.594   0.787  -1.052  0.00  0.00    -0.040 C 
BRANCH  33  34
ATOM     34  C   UNL     1      -2.150   1.948  -0.269  0.00  0.00    -0.046 A 
ATOM     35  C   UNL     1      -2.309   1.846   1.100  0.00  0.00    +0.003 A 
ATOM     36  C   UNL     1      -2.816   2.913   1.819  0.00  0.00    +0.000 A 
ATOM     37  C   UNL     1      -3.172   4.079   1.167  0.00  0.00    +0.001 A 
ATOM     38  C   UNL     1      -3.018   4.180  -0.203  0.00  0.00    +0.020 A 
ATOM     39  C   UNL     1      -2.507   3.114  -0.922  0.00  0.00    +0.042 A 
ATOM     40 CL   UNL     1      -2.314   3.241  -2.642  0.00  0.00    -0.083 Cl
ENDBRANCH  33  34
ENDBRANCH  24  33
ENDBRANCH   1  24
TORSDOF 8
