REMARK  Name = ZINC20291933
REMARK  9 active torsions:
REMARK  status: ('A' for Active; 'I' for Inactive)
REMARK    1  A    between atoms: C_3  and  C_10
REMARK    2  A    between atoms: C_5  and  N_7
REMARK    3  A    between atoms: N_11  and  N_12
REMARK    4  A    between atoms: C_16  and  S_19
REMARK    5  A    between atoms: N_17  and  N_18
REMARK    6  A    between atoms: S_19  and  C_20
REMARK    7  A    between atoms: C_20  and  C_21
REMARK    8  A    between atoms: N_23  and  C_24
REMARK    9  A    between atoms: C_25  and  C_33
REMARK                            x       y       z     vdW  Elec       q    Type
REMARK                         _______ _______ _______ _____ _____    ______ ____
ROOT
ATOM      1  N   UNL     1       4.748   4.120  -0.022  0.00  0.00    -0.204 N 
ATOM      2  C   UNL     1       4.735   5.457  -0.016  0.00  0.00    +0.254 A 
ATOM      3  N   UNL     1       3.641   6.245   0.005  0.00  0.00    -0.109 NA
ATOM      4  N   UNL     1       4.000   7.480   0.005  0.00  0.00    -0.119 NA
ATOM      5  C   UNL     1       5.348   7.559  -0.015  0.00  0.00    +0.210 A 
ATOM      6  N   UNL     1       5.832   6.281  -0.022  0.00  0.00    -0.211 N 
ATOM      7  H   UNL     1       5.593   3.644  -0.033  0.00  0.00    +0.177 HD
ENDROOT
BRANCH   6   8
ATOM      8  N   UNL     1       7.144   5.900  -0.036  0.00  0.00    -0.294 N 
ATOM      9  H   UNL     1       7.483   5.803  -0.982  0.00  0.00    +0.163 HD
ATOM     10  H   UNL     1       7.714   6.547   0.487  0.00  0.00    +0.163 HD
ENDBRANCH   6   8
BRANCH   1  12
ATOM     11  C   UNL     1       3.650   2.150  -0.022  0.00  0.00    +0.138 C 
ATOM     12  N   UNL     1       3.637   3.465  -0.015  0.00  0.00    -0.188 NA
BRANCH  11  15
ATOM     13  C   UNL     1      -0.017   1.381   0.010  0.00  0.00    +0.003 A 
ATOM     14  C   UNL     1       1.164   2.091   0.002  0.00  0.00    +0.009 A 
ATOM     15  C   UNL     1       2.389   1.405  -0.013  0.00  0.00    -0.003 A 
ATOM     16  C   UNL     1       2.397   0.001  -0.021  0.00  0.00    +0.042 A 
ATOM     17  C   UNL     1       1.206  -0.690  -0.013  0.00  0.00    +0.127 A 
ATOM     18  C   UNL     1       0.002  -0.004   0.002  0.00  0.00    +0.033 A 
BRANCH  17  19
ATOM     19  N   UNL     1       1.213  -2.170  -0.021  0.00  0.00    +0.056 N 
ATOM     20  O   UNL     1       2.356  -2.824  -0.036  0.00  0.00    -0.126 OA
ATOM     21  O   UNL     1       0.075  -2.833  -0.014  0.00  0.00    -0.126 OA
ENDBRANCH  17  19
ENDBRANCH  11  15
ENDBRANCH   1  12
BRANCH   5  22
ATOM     22  S   UNL     1       6.251   8.952  -0.021  0.00  0.00    -0.075 S 
BRANCH  22  23
ATOM     23  C   UNL     1       5.013  10.277   0.005  0.00  0.00    +0.173 C 
BRANCH  23  24
ATOM     24  C   UNL     1       5.708  11.614   0.001  0.00  0.00    +0.228 C 
ATOM     25  O   UNL     1       6.920  11.668  -0.018  0.00  0.00    -0.275 OA
ATOM     26  N   UNL     1       4.984  12.751   0.018  0.00  0.00    -0.278 N 
ATOM     27  H   UNL     1       4.015  12.708   0.033  0.00  0.00    +0.155 HD
BRANCH  26  28
ATOM     28  C   UNL     1       5.624  13.982   0.014  0.00  0.00    +0.090 A 
ATOM     29  C   UNL     1       5.048  15.242   0.035  0.00  0.00    +0.084 A 
ATOM     30  C   UNL     1       5.945  16.383   0.027  0.00  0.00    -0.018 A 
ATOM     31  C   UNL     1       7.256  16.056  -0.002  0.00  0.00    -0.004 A 
ATOM     32  S   UNL     1       7.276  14.287  -0.009  0.00  0.00    -0.077 S 
ATOM     33  C   UNL     1       8.419  16.999  -0.019  0.00  0.00    +0.043 C 
ATOM     34  C   UNL     1       7.899  18.398  -0.380  0.00  0.00    +0.005 C 
ATOM     35  C   UNL     1       6.673  18.709   0.483  0.00  0.00    +0.005 C 
ATOM     36  C   UNL     1       5.494  17.836   0.048  0.00  0.00    +0.037 C 
BRANCH  29  37
ATOM     37  C   UNL     1       3.626  15.411   0.064  0.00  0.00    +0.102 C 
ATOM     38  N   UNL     1       2.499  15.545   0.087  0.00  0.00    -0.191 NA
ENDBRANCH  29  37
ENDBRANCH  26  28
ENDBRANCH  23  24
ENDBRANCH  22  23
ENDBRANCH   5  22
TORSDOF 9
