REMARK  Name = ZINC07987251
REMARK  5 active torsions:
REMARK  status: ('A' for Active; 'I' for Inactive)
REMARK    1  A    between atoms: C_1  and  C_2
REMARK    2  A    between atoms: C_9  and  N_14
REMARK    3  A    between atoms: C_10  and  C_11
REMARK    4  A    between atoms: C_15  and  C_17
REMARK    5  A    between atoms: C_17  and  C_20
REMARK                            x       y       z     vdW  Elec       q    Type
REMARK                         _______ _______ _______ _____ _____    ______ ____
ROOT
ATOM      1  C   UNL     1      -2.610  -8.135   4.165  0.00  0.00    +0.008 C 
ATOM      2  C   UNL     1      -2.097  -7.038   3.229  0.00  0.00    -0.009 C 
ATOM      3  C   UNL     1      -0.684  -6.624   3.650  0.00  0.00    +0.008 C 
ATOM      4  C   UNL     1      -0.070  -5.714   2.584  0.00  0.00    +0.037 C 
ATOM      5  C   UNL     1      -1.038  -4.573   2.298  0.00  0.00    -0.023 A 
ATOM      6  C   UNL     1      -2.340  -4.662   2.644  0.00  0.00    -0.004 A 
ATOM      7  S   UNL     1      -3.051  -3.125   2.128  0.00  0.00    -0.077 S 
ATOM      8  C   UNL     1      -1.642  -2.377   1.452  0.00  0.00    +0.084 A 
ATOM      9  C   UNL     1      -0.653  -3.331   1.648  0.00  0.00    +0.068 A 
ATOM     10  C   UNL     1      -3.019  -5.813   3.320  0.00  0.00    +0.046 C 
ENDROOT
BRANCH   9  11
ATOM     11  C   UNL     1       0.728  -3.095   1.217  0.00  0.00    +0.244 C 
ATOM     12  O   UNL     1       1.522  -2.574   1.977  0.00  0.00    -0.270 OA
ATOM     13  N   UNL     1       1.117  -3.454  -0.022  0.00  0.00    -0.325 N 
ATOM     14  H   UNL     1       0.484  -3.869  -0.629  0.00  0.00    +0.145 HD
ATOM     15  H   UNL     1       2.031  -3.297  -0.308  0.00  0.00    +0.145 HD
ENDBRANCH   9  11
BRANCH   8  16
ATOM     16  N   UNL     1      -1.528  -1.127   0.863  0.00  0.00    -0.279 N 
ATOM     17  C   UNL     1      -2.611  -0.331   0.758  0.00  0.00    +0.228 C 
ATOM     18  O   UNL     1      -3.661  -0.666   1.262  0.00  0.00    -0.274 OA
ATOM     19  H   UNL     1      -0.670  -0.826   0.525  0.00  0.00    +0.155 HD
BRANCH  17  20
ATOM     20  C   UNL     1      -2.514   0.977   0.016  0.00  0.00    +0.072 C 
ATOM     21  C   UNL     1      -3.413   2.123   0.485  0.00  0.00    +0.022 C 
ATOM     22  C   UNL     1      -1.908   2.169   0.760  0.00  0.00    +0.022 C 
BRANCH  20  23
ATOM     23  C   UNL     1      -2.241   0.867  -1.462  0.00  0.00    -0.032 A 
ATOM     24  C   UNL     1      -2.680  -0.239  -2.165  0.00  0.00    +0.006 A 
ATOM     25  C   UNL     1      -2.435  -0.338  -3.522  0.00  0.00    +0.020 A 
ATOM     26  C   UNL     1      -1.746   0.668  -4.175  0.00  0.00    +0.041 A 
ATOM     27  C   UNL     1      -1.302   1.773  -3.470  0.00  0.00    +0.020 A 
ATOM     28  C   UNL     1      -1.548   1.870  -2.113  0.00  0.00    +0.006 A 
ATOM     29 CL   UNL     1      -1.438   0.545  -5.879  0.00  0.00    -0.084 Cl
ENDBRANCH  20  23
ENDBRANCH  17  20
ENDBRANCH   8  16
TORSDOF 4
