REMARK  Name = ZINC40796211
REMARK  4 active torsions:
REMARK  status: ('A' for Active; 'I' for Inactive)
REMARK    1  A    between atoms: C_1  and  C_2
REMARK    2  A    between atoms: C_5  and  O_8
REMARK    3  A    between atoms: O_8  and  C_9
REMARK    4  A    between atoms: C_10  and  N_16
REMARK                            x       y       z     vdW  Elec       q    Type
REMARK                         _______ _______ _______ _____ _____    ______ ____
ROOT
ATOM      1  C   UNL     1       1.148  -4.748  -0.535  0.00  0.00    +0.248 A 
ATOM      2  C   UNL     1       1.170  -6.127  -0.666  0.00  0.00    +0.152 A 
ATOM      3  C   UNL     1       2.323  -6.729  -1.206  0.00  0.00    +0.276 A 
ATOM      4  N   UNL     1       3.355  -5.940  -1.571  0.00  0.00    -0.312 N 
ATOM      5  C   UNL     1       3.274  -4.602  -1.418  0.00  0.00    +0.203 A 
ATOM      6  N   UNL     1       2.210  -4.030  -0.926  0.00  0.00    -0.201 NA
ATOM      7  O   UNL     1       2.388  -7.941  -1.340  0.00  0.00    -0.266 OA
ATOM      8  H   UNL     1       4.157  -6.335  -1.945  0.00  0.00    +0.170 HD
ENDROOT
BRANCH   2   9
ATOM      9  N   UNL     1       0.068  -6.905  -0.270  0.00  0.00    -0.350 N 
ATOM     10  H   UNL     1      -0.720  -6.478   0.101  0.00  0.00    +0.143 HD
ATOM     11  H   UNL     1       0.096  -7.870  -0.367  0.00  0.00    +0.143 HD
ENDBRANCH   2   9
BRANCH   1  12
ATOM     12  O   UNL     1       0.058  -4.129  -0.021  0.00  0.00    -0.436 OA
BRANCH  12  17
ATOM     13  C   UNL     1      -0.015   1.503   0.018  0.00  0.00    +0.044 C 
ATOM     14  C   UNL     1       0.005  -0.004   0.008  0.00  0.00    -0.050 A 
ATOM     15  C   UNL     1      -0.233  -0.689  -1.170  0.00  0.00    +0.007 A 
ATOM     16  C   UNL     1      -0.215  -2.070  -1.182  0.00  0.00    +0.046 A 
ATOM     17  C   UNL     1       0.040  -2.770  -0.011  0.00  0.00    +0.130 A 
ATOM     18  C   UNL     1       0.278  -2.080   1.169  0.00  0.00    +0.046 A 
ATOM     19  C   UNL     1       0.265  -0.699   1.174  0.00  0.00    +0.007 A 
ENDBRANCH  12  17
ENDBRANCH   1  12
TORSDOF 3
