REMARK  Name = ZINC65116179
REMARK  13 active torsions:
REMARK  status: ('A' for Active; 'I' for Inactive)
REMARK    1  A    between atoms: C_1  and  C_2
REMARK    2  A    between atoms: C_2  and  C_3
REMARK    3  A    between atoms: C_4  and  C_12
REMARK    4  A    between atoms: C_5  and  N_8
REMARK    5  A    between atoms: C_9  and  C_11
REMARK    6  A    between atoms: C_15  and  O_31
REMARK    7  A    between atoms: C_16  and  S_18
REMARK    8  A    between atoms: S_18  and  N_21
REMARK    9  A    between atoms: N_21  and  C_22
REMARK   10  A    between atoms: C_23  and  C_30
REMARK   11  A    between atoms: C_25  and  C_29
REMARK   12  A    between atoms: C_27  and  C_28
REMARK   13  A    between atoms: O_31  and  C_32
REMARK                            x       y       z     vdW  Elec       q    Type
REMARK                         _______ _______ _______ _____ _____    ______ ____
ROOT
ATOM      1  C   UNL     1      -1.354  -0.962   2.940  0.00  0.00    -0.009 A 
ATOM      2  C   UNL     1      -0.248  -1.562   3.541  0.00  0.00    +0.012 A 
ATOM      3  C   UNL     1       0.110  -1.214   4.826  0.00  0.00    +0.048 A 
ATOM      4  C   UNL     1      -0.629  -0.268   5.523  0.00  0.00    +0.147 A 
ATOM      5  C   UNL     1      -1.730   0.331   4.928  0.00  0.00    +0.150 A 
ATOM      6  C   UNL     1      -2.091  -0.008   3.640  0.00  0.00    +0.041 A 
ENDROOT
BRANCH   1   8
ATOM      7  C   UNL     1      -0.982  -1.109   0.388  0.00  0.00    +0.093 A 
ATOM      8  C   UNL     1      -1.742  -1.333   1.558  0.00  0.00    +0.067 A 
ATOM      9  C   UNL     1      -2.910  -1.961   1.179  0.00  0.00    +0.232 A 
ATOM     10  O   UNL     1      -2.871  -2.115  -0.155  0.00  0.00    -0.338 OA
ATOM     11  N   UNL     1      -1.655  -1.568  -0.628  0.00  0.00    -0.080 NA
BRANCH   9  12
ATOM     12  N   UNL     1      -3.936  -2.359   2.020  0.00  0.00    -0.254 N 
ATOM     13  C   UNL     1      -5.027  -2.966   1.512  0.00  0.00    +0.216 C 
ATOM     14  O   UNL     1      -5.111  -3.162   0.318  0.00  0.00    -0.276 OA
ATOM     15  C   UNL     1      -6.143  -3.399   2.427  0.00  0.00    +0.109 C 
ATOM     16  H   UNL     1      -3.869  -2.202   2.975  0.00  0.00    +0.158 HD
ENDBRANCH   9  12
BRANCH   7  18
ATOM     17  C   UNL     1       0.191   1.062   0.146  0.00  0.00    +0.010 C 
ATOM     18  C   UNL     1       0.370  -0.446   0.327  0.00  0.00    +0.056 C 
ENDBRANCH   7  18
ENDBRANCH   1   8
BRANCH   5  19
ATOM     19  S   UNL     1      -2.665   1.532   5.816  0.00  0.00    +0.076 S 
ATOM     20  O   UNL     1      -1.728   2.428   6.398  0.00  0.00    -0.150 OA
ATOM     21  O   UNL     1      -3.697   1.970   4.943  0.00  0.00    -0.150 OA
BRANCH  19  22
ATOM     22  N   UNL     1      -3.408   0.745   7.070  0.00  0.00    -0.216 N 
ATOM     23  H   UNL     1      -3.190   0.978   7.986  0.00  0.00    +0.174 HD
BRANCH  22  24
ATOM     24  C   UNL     1      -4.348  -0.255   6.808  0.00  0.00    +0.054 A 
ATOM     25  C   UNL     1      -4.059  -1.579   7.112  0.00  0.00    -0.028 A 
ATOM     26  C   UNL     1      -4.990  -2.564   6.852  0.00  0.00    +0.008 A 
ATOM     27  C   UNL     1      -6.210  -2.234   6.290  0.00  0.00    -0.050 A 
ATOM     28  C   UNL     1      -6.501  -0.917   5.986  0.00  0.00    +0.008 A 
ATOM     29  C   UNL     1      -5.576   0.074   6.248  0.00  0.00    -0.028 A 
ATOM     30  C   UNL     1      -5.896   1.510   5.923  0.00  0.00    +0.046 C 
ATOM     31  C   UNL     1      -7.224  -3.313   6.007  0.00  0.00    +0.044 C 
ATOM     32  C   UNL     1      -2.730  -1.940   7.724  0.00  0.00    +0.046 C 
ENDBRANCH  22  24
ENDBRANCH  19  22
ENDBRANCH   5  19
BRANCH   4  33
ATOM     33  O   UNL     1      -0.273   0.073   6.790  0.00  0.00    -0.493 OA
ATOM     34  C   UNL     1       0.802  -0.660   7.380  0.00  0.00    +0.277 C 
ENDBRANCH   4  33
TORSDOF 7
