REMARK  Name = ZINC01876049
REMARK  11 active torsions:
REMARK  status: ('A' for Active; 'I' for Inactive)
REMARK    1  A    between atoms: C_1  and  C_2
REMARK    2  A    between atoms: C_2  and  C_3
REMARK    3  A    between atoms: C_2  and  O_4
REMARK    4  A    between atoms: O_4  and  C_5
REMARK    5  A    between atoms: C_5  and  C_7
REMARK    6  A    between atoms: C_11  and  N_12
REMARK    7  A    between atoms: C_13  and  C_15
REMARK    8  A    between atoms: C_21  and  C_30
REMARK    9  A    between atoms: C_24  and  C_26
REMARK   10  A    between atoms: C_33  and  O_36
REMARK   11  A    between atoms: O_36  and  C_37
REMARK                            x       y       z     vdW  Elec       q    Type
REMARK                         _______ _______ _______ _____ _____    ______ ____
ROOT
ATOM      1  C   UNL     1      -2.547  -4.795   3.585  0.00  0.00    +0.096 A 
ATOM      2  C   UNL     1      -1.222  -4.446   3.952  0.00  0.00    +0.149 A 
ATOM      3  N   UNL     1      -0.938  -5.047   5.075  0.00  0.00    -0.177 NA
ATOM      4  N   UNL     1      -2.037  -5.799   5.485  0.00  0.00    -0.238 N 
ATOM      5  C   UNL     1      -3.025  -5.636   4.573  0.00  0.00    +0.130 A 
ATOM      6  N   UNL     1      -4.263  -6.244   4.688  0.00  0.00    -0.322 N 
ATOM      7  C   UNL     1      -4.571  -6.852   5.997  0.00  0.00    +0.104 C 
ATOM      8  C   UNL     1      -3.331  -7.609   6.486  0.00  0.00    +0.063 C 
ATOM      9  C   UNL     1      -2.167  -6.634   6.683  0.00  0.00    +0.215 C 
ATOM     10  H   UNL     1      -4.892  -6.269   3.950  0.00  0.00    +0.148 HD
ENDROOT
BRANCH   7  11
ATOM     11  C   UNL     1      -4.932  -5.772   6.984  0.00  0.00    -0.027 A 
ATOM     12  C   UNL     1      -4.236  -4.577   6.986  0.00  0.00    +0.009 A 
ATOM     13  C   UNL     1      -4.564  -3.586   7.890  0.00  0.00    +0.046 A 
ATOM     14  C   UNL     1      -5.594  -3.789   8.796  0.00  0.00    +0.120 A 
ATOM     15  C   UNL     1      -6.292  -4.988   8.793  0.00  0.00    +0.046 A 
ATOM     16  C   UNL     1      -5.963  -5.975   7.883  0.00  0.00    +0.009 A 
BRANCH  14  17
ATOM     17  O   UNL     1      -5.919  -2.816   9.687  0.00  0.00    -0.495 OA
ATOM     18  C   UNL     1      -6.990  -3.094  10.591  0.00  0.00    +0.277 C 
ENDBRANCH  14  17
ENDBRANCH   7  11
BRANCH   1  20
ATOM     19  N   UNL     1      -2.674  -3.519   1.511  0.00  0.00    -0.275 N 
ATOM     20  C   UNL     1      -3.273  -4.345   2.392  0.00  0.00    +0.253 C 
ATOM     21  O   UNL     1      -4.415  -4.717   2.198  0.00  0.00    -0.270 OA
ATOM     22  H   UNL     1      -1.764  -3.222   1.665  0.00  0.00    +0.156 HD
BRANCH  19  27
ATOM     23  C   UNL     1      -2.908  -2.252  -0.622  0.00  0.00    +0.091 A 
ATOM     24  C   UNL     1      -3.829  -1.963  -1.708  0.00  0.00    -0.021 A 
ATOM     25  C   UNL     1      -5.032  -2.563  -1.587  0.00  0.00    -0.004 A 
ATOM     26  S   UNL     1      -4.928  -3.477  -0.076  0.00  0.00    -0.077 S 
ATOM     27  C   UNL     1      -3.359  -3.094   0.384  0.00  0.00    +0.087 A 
ATOM     28  C   UNL     1      -6.187  -2.462  -2.534  0.00  0.00    +0.043 C 
ATOM     29  C   UNL     1      -5.937  -1.274  -3.475  0.00  0.00    +0.005 C 
ATOM     30  C   UNL     1      -4.507  -1.363  -4.016  0.00  0.00    +0.005 C 
ATOM     31  C   UNL     1      -3.506  -1.070  -2.897  0.00  0.00    +0.037 C 
BRANCH  23  32
ATOM     32  C   UNL     1      -1.559  -1.684  -0.593  0.00  0.00    +0.342 C 
ATOM     33  O   UNL     1      -0.636  -2.281  -1.115  0.00  0.00    -0.245 OA
BRANCH  32  34
ATOM     34  O   UNL     1      -1.339  -0.499   0.012  0.00  0.00    -0.458 OA
BRANCH  34  36
ATOM     35  C   UNL     1      -0.019   1.526   0.010  0.00  0.00    +0.052 C 
ATOM     36  C   UNL     1       0.002  -0.004   0.002  0.00  0.00    +0.171 C 
ATOM     37  C   UNL     1       0.742  -0.511   1.242  0.00  0.00    +0.052 C 
ENDBRANCH  34  36
ENDBRANCH  32  34
ENDBRANCH  23  32
ENDBRANCH  19  27
ENDBRANCH   1  20
BRANCH   9  38
ATOM     38  C   UNL     1      -0.868  -7.409   6.911  0.00  0.00    +0.412 C 
ATOM     39  F   UNL     1       0.188  -6.508   7.084  0.00  0.00    -0.168 F 
ATOM     40  F   UNL     1      -0.994  -8.206   8.054  0.00  0.00    -0.168 F 
ATOM     41  F   UNL     1      -0.609  -8.223   5.802  0.00  0.00    -0.168 F 
ENDBRANCH   9  38
TORSDOF 8
