REMARK  Name = ZINC12374672
REMARK  3 active torsions:
REMARK  status: ('A' for Active; 'I' for Inactive)
REMARK    1  A    between atoms: C_3  and  N_18
REMARK    2  A    between atoms: C_6  and  C_7
REMARK    3  A    between atoms: C_9  and  C_13
REMARK                            x       y       z     vdW  Elec       q    Type
REMARK                         _______ _______ _______ _____ _____    ______ ____
ROOT
ATOM      1  C   UNL     1      -1.267  -0.764   0.011  0.00  0.00    +0.080 A 
ATOM      2  C   UNL     1      -1.552  -1.856   0.782  0.00  0.00    +0.075 A 
ATOM      3  C   UNL     1      -2.854  -2.262   0.484  0.00  0.00    +0.179 A 
ATOM      4  N   UNL     1      -3.340  -1.464  -0.433  0.00  0.00    -0.168 NA
ATOM      5  N   UNL     1      -2.367  -0.509  -0.754  0.00  0.00    -0.275 N 
ATOM      6  H   UNL     1      -2.462   0.227  -1.424  0.00  0.00    +0.189 HD
ATOM      7 BR   UNL     1      -0.392  -2.669   2.034  0.00  0.00    -0.046 Br
ENDROOT
BRANCH   1  13
ATOM      8  C   UNL     1      -0.017   1.391   0.010  0.00  0.00    +0.012 A 
ATOM      9  C   UNL     1       1.170   2.094   0.002  0.00  0.00    +0.033 A 
ATOM     10  C   UNL     1       2.378   1.419  -0.013  0.00  0.00    +0.126 A 
ATOM     11  C   UNL     1       2.403   0.035  -0.021  0.00  0.00    +0.033 A 
ATOM     12  C   UNL     1       1.223  -0.679  -0.013  0.00  0.00    +0.012 A 
ATOM     13  C   UNL     1       0.002  -0.004   0.002  0.00  0.00    +0.001 A 
BRANCH  10  14
ATOM     14  N   UNL     1       3.647   2.179  -0.022  0.00  0.00    +0.056 N 
ATOM     15  O   UNL     1       4.712   1.587  -0.035  0.00  0.00    -0.126 OA
ATOM     16  O   UNL     1       3.628   3.397  -0.016  0.00  0.00    -0.126 OA
ENDBRANCH  10  14
ENDBRANCH   1  13
BRANCH   3  17
ATOM     17  C   UNL     1      -3.577  -3.427   1.109  0.00  0.00    +0.437 C 
ATOM     18  F   UNL     1      -4.813  -3.602   0.478  0.00  0.00    -0.164 F 
ATOM     19  F   UNL     1      -2.809  -4.587   0.959  0.00  0.00    -0.164 F 
ATOM     20  F   UNL     1      -3.779  -3.175   2.470  0.00  0.00    -0.164 F 
ENDBRANCH   3  17
TORSDOF 3
