REMARK  Name = ZINC21866910
REMARK  6 active torsions:
REMARK  status: ('A' for Active; 'I' for Inactive)
REMARK    1  A    between atoms: C_1  and  C_2
REMARK    2  A    between atoms: N_4  and  C_5
REMARK    3  A    between atoms: N_16  and  C_28
REMARK    4  A    between atoms: C_17  and  C_19
REMARK    5  A    between atoms: C_17  and  C_20
REMARK    6  A    between atoms: N_22  and  C_23
REMARK                            x       y       z     vdW  Elec       q    Type
REMARK                         _______ _______ _______ _____ _____    ______ ____
ROOT
ATOM      1  C   UNL     1       0.316   5.133  -2.022  0.00  0.00    +0.072 A 
ATOM      2  C   UNL     1       0.501   4.345  -3.231  0.00  0.00    +0.022 A 
ATOM      3  C   UNL     1       1.370   4.497  -4.318  0.00  0.00    +0.012 A 
ATOM      4  C   UNL     1       1.288   3.557  -5.314  0.00  0.00    +0.001 A 
ATOM      5  C   UNL     1       0.392   2.502  -5.257  0.00  0.00    +0.002 A 
ATOM      6  C   UNL     1      -0.479   2.327  -4.197  0.00  0.00    +0.026 A 
ATOM      7  C   UNL     1      -0.422   3.268  -3.166  0.00  0.00    +0.052 A 
ATOM      8  N   UNL     1      -1.124   3.387  -2.012  0.00  0.00    -0.332 N 
ATOM      9  C   UNL     1      -0.674   4.513  -1.307  0.00  0.00    +0.127 A 
ATOM     10  C   UNL     1      -1.248   4.864  -0.005  0.00  0.00    +0.266 C 
ATOM     11  O   UNL     1      -1.003   5.926   0.538  0.00  0.00    -0.268 OA
ATOM     12  N   UNL     1      -2.065   3.947   0.563  0.00  0.00    -0.278 N 
ATOM     13  C   UNL     1      -2.174   2.588   0.045  0.00  0.00    +0.129 C 
ATOM     14  C   UNL     1      -2.204   2.543  -1.482  0.00  0.00    +0.157 C 
ATOM     15  C   UNL     1      -3.460   1.958   0.584  0.00  0.00    +0.043 C 
ENDROOT
BRANCH   1  19
ATOM     16  C   UNL     1       1.954   8.510  -2.195  0.00  0.00    +0.109 C 
ATOM     17  C   UNL     1       1.316   7.206  -2.600  0.00  0.00    +0.214 C 
ATOM     18  O   UNL     1       1.081   6.983  -3.769  0.00  0.00    -0.276 OA
ATOM     19  N   UNL     1       1.006   6.288  -1.663  0.00  0.00    -0.283 N 
ATOM     20  H   UNL     1       1.299   6.450  -0.616  0.00  0.00    +0.155 HD
ENDBRANCH   1  19
BRANCH  12  21
ATOM     21  C   UNL     1      -2.863   4.330   1.731  0.00  0.00    +0.078 C 
ATOM     22  C   UNL     1      -3.798   5.503   1.371  0.00  0.00    +0.022 C 
ATOM     23  C   UNL     1      -3.814   6.381   2.647  0.00  0.00    +0.002 C 
ATOM     24  C   UNL     1      -2.349   6.292   3.142  0.00  0.00    +0.002 C 
ATOM     25  C   UNL     1      -1.941   4.832   2.857  0.00  0.00    +0.022 C 
ENDBRANCH  12  21
BRANCH  13  26
ATOM     26  C   UNL     1      -0.997   1.785   0.533  0.00  0.00    +0.238 C 
ATOM     27  O   UNL     1      -1.145   0.625   0.854  0.00  0.00    -0.273 OA
ATOM     28  N   UNL     1       0.223   2.354   0.609  0.00  0.00    -0.311 N 
ATOM     29  H   UNL     1       0.357   3.407   0.319  0.00  0.00    +0.149 HD
BRANCH  28  30
ATOM     30  C   UNL     1       1.369   1.571   1.078  0.00  0.00    +0.073 C 
ATOM     31  C   UNL     1       1.462   1.641   2.616  0.00  0.00    +0.022 C 
ATOM     32  C   UNL     1       2.985   1.692   2.902  0.00  0.00    +0.002 C 
ATOM     33  C   UNL     1       3.519   2.584   1.754  0.00  0.00    +0.002 C 
ATOM     34  C   UNL     1       2.676   2.170   0.530  0.00  0.00    +0.022 C 
ENDBRANCH  28  30
ENDBRANCH  13  26
TORSDOF 4
