REMARK  Name = ZINC36028078
REMARK  8 active torsions:
REMARK  status: ('A' for Active; 'I' for Inactive)
REMARK    1  A    between atoms: C_1  and  C_2
REMARK    2  A    between atoms: C_2  and  C_3
REMARK    3  A    between atoms: C_3  and  C_5
REMARK    4  A    between atoms: C_3  and  C_6
REMARK    5  A    between atoms: N_10  and  C_29
REMARK    6  A    between atoms: N_15  and  S_18
REMARK    7  A    between atoms: S_18  and  C_21
REMARK    8  A    between atoms: C_29  and  C_30
REMARK                            x       y       z     vdW  Elec       q    Type
REMARK                         _______ _______ _______ _____ _____    ______ ____
ROOT
ATOM      1  C   UNL     1       0.721  -1.971  -1.375  0.00  0.00    +0.022 C 
ATOM      2  C   UNL     1       1.491  -2.546  -0.206  0.00  0.00    +0.201 C 
ATOM      3  O   UNL     1       1.554  -2.066   0.906  0.00  0.00    -0.277 OA
ATOM      4  N   UNL     1       2.095  -3.684  -0.609  0.00  0.00    -0.306 N 
ATOM      5  C   UNL     1       1.775  -3.935  -2.017  0.00  0.00    +0.006 C 
ATOM      6  N   UNL     1       1.273  -2.657  -2.569  0.00  0.00    +0.401 N 
ATOM      7  C   UNL     1       0.689  -5.004  -2.129  0.00  0.00    +0.023 C 
ATOM      8  C   UNL     1       1.201  -6.313  -1.519  0.00  0.00    +0.109 C 
ATOM      9  N   UNL     1       2.476  -6.666  -2.159  0.00  0.00    -0.177 NA
ATOM     10  C   UNL     1       3.560  -5.674  -2.170  0.00  0.00    +0.109 C 
ATOM     11  C   UNL     1       3.028  -4.370  -2.774  0.00  0.00    +0.023 C 
ATOM     12  H   UNL     1       0.549  -2.821  -3.252  0.00  0.00    -0.082 HD
ATOM     13  H   UNL     1       2.029  -2.122  -2.969  0.00  0.00    -0.082 HD
ENDROOT
BRANCH   9  14
ATOM     14  S   UNL     1       2.687  -8.154  -2.854  0.00  0.00    +0.061 S 
ATOM     15  O   UNL     1       4.087  -8.401  -2.866  0.00  0.00    -0.153 OA
ATOM     16  O   UNL     1       1.764  -9.031  -2.224  0.00  0.00    -0.153 OA
BRANCH  14  17
ATOM     17  C   UNL     1       2.185  -8.018  -4.538  0.00  0.00    +0.107 A 
ATOM     18  C   UNL     1       0.871  -8.263  -4.888  0.00  0.00    +0.030 A 
ATOM     19  C   UNL     1       0.476  -8.157  -6.209  0.00  0.00    +0.023 A 
ATOM     20  C   UNL     1       1.396  -7.806  -7.180  0.00  0.00    +0.059 A 
ATOM     21  C   UNL     1       2.713  -7.561  -6.829  0.00  0.00    +0.061 A 
ATOM     22  C   UNL     1       3.105  -7.662  -5.506  0.00  0.00    +0.050 A 
ATOM     23 CL   UNL     1       3.869  -7.122  -8.047  0.00  0.00    -0.082 Cl
ATOM     24 CL   UNL     1       0.901  -7.674  -8.839  0.00  0.00    -0.082 Cl
ENDBRANCH  14  17
ENDBRANCH   9  14
BRANCH   1  25
ATOM     25  C   UNL     1       0.951  -0.462  -1.474  0.00  0.00    -0.020 C 
ATOM     26  C   UNL     1       2.450  -0.182  -1.600  0.00  0.00    +0.006 C 
BRANCH  25  28
ATOM     27  C   UNL     1       0.525   1.738  -0.368  0.00  0.00    +0.004 C 
ATOM     28  C   UNL     1       0.409   0.220  -0.216  0.00  0.00    -0.001 C 
ENDBRANCH  25  28
ENDBRANCH   1  25
BRANCH   4  29
ATOM     29  C   UNL     1       2.940  -4.536   0.231  0.00  0.00    +0.180 C 
BRANCH  29  30
ATOM     30  C   UNL     1       4.354  -4.015   0.212  0.00  0.00    +0.122 A 
ATOM     31  C   UNL     1       4.903  -3.195   1.127  0.00  0.00    +0.046 A 
ATOM     32  C   UNL     1       6.237  -2.963   0.721  0.00  0.00    +0.041 A 
ATOM     33  C   UNL     1       6.424  -3.655  -0.417  0.00  0.00    +0.195 A 
ATOM     34  O   UNL     1       5.282  -4.295  -0.717  0.00  0.00    -0.466 OA
ENDBRANCH  29  30
ENDBRANCH   4  29
TORSDOF 6
