REMARK  Name = ZINC39675256
REMARK  9 active torsions:
REMARK  status: ('A' for Active; 'I' for Inactive)
REMARK    1  A    between atoms: C_1  and  C_2
REMARK    2  A    between atoms: C_2  and  C_4
REMARK    3  A    between atoms: C_2  and  N_14
REMARK    4  A    between atoms: C_4  and  C_5
REMARK    5  A    between atoms: C_5  and  C_6
REMARK    6  A    between atoms: C_9  and  O_12
REMARK    7  A    between atoms: O_12  and  C_13
REMARK    8  A    between atoms: C_15  and  C_17
REMARK    9  A    between atoms: C_28  and  C_30
REMARK                            x       y       z     vdW  Elec       q    Type
REMARK                         _______ _______ _______ _____ _____    ______ ____
ROOT
ATOM      1  C   UNL     1      -4.050  -1.425  -0.872  0.00  0.00    +0.100 C 
ATOM      2  C   UNL     1      -4.682  -0.289  -0.036  0.00  0.00    +0.121 C 
ATOM      3  N   UNL     1      -5.234   0.651  -1.039  0.00  0.00    -0.296 N 
ATOM      4  C   UNL     1      -5.800  -0.224  -2.094  0.00  0.00    +0.115 C 
ATOM      5  C   UNL     1      -4.788  -1.381  -2.220  0.00  0.00    -0.004 C 
ATOM      6  C   UNL     1      -3.805  -1.099  -3.353  0.00  0.00    -0.010 C 
ATOM      7  C   UNL     1      -4.554  -1.117  -4.688  0.00  0.00    -0.082 C 
ATOM      8  N   UNL     1      -5.189  -2.427  -4.878  0.00  0.00    +0.379 N 
ATOM      9  C   UNL     1      -6.199  -2.650  -3.837  0.00  0.00    -0.082 C 
ATOM     10  C   UNL     1      -5.520  -2.697  -2.466  0.00  0.00    -0.010 C 
ATOM     11  C   UNL     1      -5.224   1.998  -1.002  0.00  0.00    +0.247 C 
ATOM     12  O   UNL     1      -4.608   2.578  -0.128  0.00  0.00    -0.270 OA
ATOM     13  H   UNL     1      -5.630  -2.457  -5.785  0.00  0.00    -0.086 HD
ATOM     14  H   UNL     1      -4.487  -3.150  -4.825  0.00  0.00    -0.086 HD
ENDROOT
BRANCH  11  15
ATOM     15  C   UNL     1      -5.961   2.772  -2.023  0.00  0.00    +0.037 A 
ATOM     16  C   UNL     1      -6.995   2.173  -2.744  0.00  0.00    +0.014 A 
ATOM     17  C   UNL     1      -7.679   2.899  -3.696  0.00  0.00    +0.021 A 
ATOM     18  C   UNL     1      -7.342   4.221  -3.937  0.00  0.00    +0.041 A 
ATOM     19  C   UNL     1      -6.317   4.821  -3.224  0.00  0.00    +0.021 A 
ATOM     20  C   UNL     1      -5.629   4.106  -2.267  0.00  0.00    +0.014 A 
ATOM     21 CL   UNL     1      -8.208   5.129  -5.137  0.00  0.00    -0.084 Cl
ENDBRANCH  11  15
BRANCH   1  23
ATOM     22  N   UNL     1      -1.744  -2.204  -1.313  0.00  0.00    -0.312 N 
ATOM     23  C   UNL     1      -2.578  -1.173  -1.072  0.00  0.00    +0.218 C 
ATOM     24  O   UNL     1      -2.143  -0.042  -1.016  0.00  0.00    -0.275 OA
ATOM     25  H   UNL     1      -2.091  -3.108  -1.357  0.00  0.00    +0.149 HD
BRANCH  22  27
ATOM     26  C   UNL     1       0.385  -1.903  -0.146  0.00  0.00    +0.028 C 
ATOM     27  C   UNL     1      -0.313  -1.959  -1.507  0.00  0.00    +0.070 C 
BRANCH  27  28
ATOM     28  C   UNL     1       0.290  -3.089  -2.343  0.00  0.00    +0.026 C 
BRANCH  28  29
ATOM     29  C   UNL     1      -0.319  -3.066  -3.747  0.00  0.00    +0.037 C 
BRANCH  29  30
ATOM     30  C   UNL     1       0.274  -4.180  -4.571  0.00  0.00    -0.047 A 
ATOM     31  C   UNL     1       1.421  -3.956  -5.309  0.00  0.00    +0.007 A 
ATOM     32  C   UNL     1       1.967  -4.975  -6.066  0.00  0.00    +0.046 A 
ATOM     33  C   UNL     1       1.363  -6.224  -6.083  0.00  0.00    +0.120 A 
ATOM     34  C   UNL     1       0.212  -6.446  -5.340  0.00  0.00    +0.046 A 
ATOM     35  C   UNL     1      -0.327  -5.425  -4.582  0.00  0.00    +0.007 A 
BRANCH  33  36
ATOM     36  O   UNL     1       1.897  -7.228  -6.827  0.00  0.00    -0.495 OA
ATOM     37  C   UNL     1       1.222  -8.488  -6.797  0.00  0.00    +0.277 C 
ENDBRANCH  33  36
ENDBRANCH  29  30
ENDBRANCH  28  29
ENDBRANCH  27  28
ENDBRANCH  22  27
ENDBRANCH   1  23
TORSDOF 7
