REMARK  Name = ZINC12636328
REMARK  7 active torsions:
REMARK  status: ('A' for Active; 'I' for Inactive)
REMARK    1  A    between atoms: C_1  and  C_2
REMARK    2  A    between atoms: C_5  and  C_8
REMARK    3  A    between atoms: C_8  and  C_10
REMARK    4  A    between atoms: C_8  and  N_19
REMARK    5  A    between atoms: N_12  and  C_13
REMARK    6  A    between atoms: N_19  and  C_20
REMARK    7  A    between atoms: C_26  and  C_28
REMARK                            x       y       z     vdW  Elec       q    Type
REMARK                         _______ _______ _______ _____ _____    ______ ____
ROOT
ATOM      1  C   UNL     1      -3.096   0.700   0.470  0.00  0.00    +0.197 C 
ENDROOT
BRANCH   1   6
ATOM      2  C   UNL     1       2.277   2.494   1.611  0.00  0.00    +0.044 C 
ATOM      3  C   UNL     1       0.875   2.027   1.316  0.00  0.00    -0.050 A 
ATOM      4  C   UNL     1       0.447   0.794   1.770  0.00  0.00    +0.004 A 
ATOM      5  C   UNL     1      -0.839   0.366   1.500  0.00  0.00    +0.006 A 
ATOM      6  C   UNL     1      -1.696   1.169   0.771  0.00  0.00    -0.018 A 
ATOM      7  C   UNL     1      -1.270   2.405   0.322  0.00  0.00    +0.006 A 
ATOM      8  C   UNL     1       0.016   2.833   0.592  0.00  0.00    +0.004 A 
ENDBRANCH   1   6
BRANCH   1   9
ATOM      9  C   UNL     1      -3.917   0.725   1.734  0.00  0.00    +0.239 C 
ATOM     10  O   UNL     1      -4.674   1.648   1.947  0.00  0.00    -0.273 OA
ATOM     11  N   UNL     1      -3.808  -0.277   2.628  0.00  0.00    -0.311 N 
ATOM     12  H   UNL     1      -3.202  -1.015   2.458  0.00  0.00    +0.149 HD
BRANCH  11  13
ATOM     13  C   UNL     1      -4.606  -0.252   3.857  0.00  0.00    +0.073 C 
ATOM     14  C   UNL     1      -3.880   0.577   4.919  0.00  0.00    +0.022 C 
ATOM     15  C   UNL     1      -4.713   0.603   6.202  0.00  0.00    +0.002 C 
ATOM     16  C   UNL     1      -4.906  -0.826   6.714  0.00  0.00    +0.000 C 
ATOM     17  C   UNL     1      -5.631  -1.655   5.652  0.00  0.00    +0.002 C 
ATOM     18  C   UNL     1      -4.798  -1.681   4.369  0.00  0.00    +0.022 C 
ENDBRANCH  11  13
ENDBRANCH   1   9
BRANCH   1  19
ATOM     19  N   UNL     1      -3.705   1.585  -0.525  0.00  0.00    -0.250 N 
ATOM     20  C   UNL     1      -4.021   1.111  -1.746  0.00  0.00    +0.272 C 
ATOM     21  O   UNL     1      -4.629   1.812  -2.533  0.00  0.00    -0.268 OA
BRANCH  19  22
ATOM     22  C   UNL     1      -3.959   2.924  -0.208  0.00  0.00    +0.038 A 
ATOM     23  C   UNL     1      -3.449   3.470   0.963  0.00  0.00    +0.023 A 
ATOM     24  C   UNL     1      -3.698   4.794   1.270  0.00  0.00    +0.002 A 
ATOM     25  C   UNL     1      -4.462   5.571   0.420  0.00  0.00    +0.000 A 
ATOM     26  C   UNL     1      -4.975   5.029  -0.745  0.00  0.00    +0.002 A 
ATOM     27  C   UNL     1      -4.726   3.708  -1.061  0.00  0.00    +0.023 A 
ENDBRANCH  19  22
BRANCH  20  28
ATOM     28  C   UNL     1      -3.630  -0.258  -2.128  0.00  0.00    +0.157 A 
ATOM     29  C   UNL     1      -4.074  -0.885  -3.284  0.00  0.00    +0.101 A 
ATOM     30  S   UNL     1      -3.280  -2.419  -3.155  0.00  0.00    +0.029 S 
ATOM     31  N   UNL     1      -2.516  -2.201  -1.792  0.00  0.00    -0.110 NA
ATOM     32  N   UNL     1      -2.813  -1.014  -1.404  0.00  0.00    -0.136 NA
ENDBRANCH  20  28
ENDBRANCH   1  19
TORSDOF 6
