REMARK  Name = ZINC36205000
REMARK  14 active torsions:
REMARK  status: ('A' for Active; 'I' for Inactive)
REMARK    1  A    between atoms: C_1  and  C_2
REMARK    2  A    between atoms: C_2  and  C_3
REMARK    3  A    between atoms: C_3  and  C_4
REMARK    4  A    between atoms: C_4  and  O_6
REMARK    5  A    between atoms: O_6  and  C_7
REMARK    6  A    between atoms: C_7  and  C_8
REMARK    7  A    between atoms: C_8  and  C_10
REMARK    8  A    between atoms: C_8  and  O_36
REMARK    9  A    between atoms: C_10  and  N_11
REMARK   10  A    between atoms: N_11  and  C_12
REMARK   11  A    between atoms: N_11  and  C_18
REMARK   12  A    between atoms: C_12  and  C_13
REMARK   13  A    between atoms: C_18  and  C_19
REMARK   14  A    between atoms: C_31  and  C_35
REMARK                            x       y       z     vdW  Elec       q    Type
REMARK                         _______ _______ _______ _____ _____    ______ ____
ROOT
ATOM      1  N   UNL     1      -5.172  -6.757   0.089  0.00  0.00    +0.391 N 
ATOM      2  H   UNL     1      -5.722  -6.551  -0.732  0.00  0.00    -0.080 HD
ENDROOT
BRANCH   1   3
ATOM      3  C   UNL     1      -3.807  -6.246  -0.095  0.00  0.00    -0.043 C 
BRANCH   3   4
ATOM      4  C   UNL     1      -3.244  -6.762  -1.421  0.00  0.00    +0.136 C 
BRANCH   4   5
ATOM      5  O   UNL     1      -3.034  -8.173  -1.333  0.00  0.00    -0.390 OA
ATOM      6  H   UNL     1      -2.415  -8.435  -0.638  0.00  0.00    +0.210 HD
ENDBRANCH   4   5
BRANCH   4   7
ATOM      7  C   UNL     1      -1.914  -6.066  -1.716  0.00  0.00    +0.261 C 
BRANCH   7   8
ATOM      8  O   UNL     1      -1.446  -6.459  -3.007  0.00  0.00    -0.462 OA
BRANCH   8   9
ATOM      9  C   UNL     1      -0.282  -5.934  -3.420  0.00  0.00    +0.307 C 
ATOM     10  O   UNL     1       0.320  -5.164  -2.708  0.00  0.00    -0.251 OA
BRANCH   9  11
ATOM     11  C   UNL     1       0.275  -6.303  -4.770  0.00  0.00    +0.120 C 
BRANCH  11  13
ATOM     12  C   UNL     1       2.166  -5.946  -6.364  0.00  0.00    +0.004 C 
ATOM     13  C   UNL     1       1.600  -5.571  -4.993  0.00  0.00    +0.008 C 
ENDBRANCH  11  13
ENDBRANCH   9  11
ENDBRANCH   8   9
ENDBRANCH   7   8
ENDBRANCH   4   7
ENDBRANCH   3   4
ENDBRANCH   1   3
BRANCH   1  14
ATOM     14  C   UNL     1      -5.782  -6.114   1.260  0.00  0.00    -0.002 C 
BRANCH  14  15
ATOM     15  C   UNL     1      -5.961  -4.643   0.990  0.00  0.00    +0.089 A 
ATOM     16  C   UNL     1      -7.080  -4.058   0.527  0.00  0.00    +0.042 A 
ATOM     17  C   UNL     1      -6.807  -2.675   0.422  0.00  0.00    +0.041 A 
ATOM     18  C   UNL     1      -5.537  -2.497   0.827  0.00  0.00    +0.195 A 
ATOM     19  O   UNL     1      -5.031  -3.691   1.175  0.00  0.00    -0.470 OA
ENDBRANCH  14  15
ENDBRANCH   1  14
BRANCH   1  20
ATOM     20  C   UNL     1      -5.127  -8.211   0.296  0.00  0.00    -0.003 C 
BRANCH  20  21
ATOM     21  C   UNL     1      -6.532  -8.756   0.341  0.00  0.00    +0.094 A 
ATOM     22  N   UNL     1      -6.725 -10.086   0.531  0.00  0.00    -0.312 N 
ATOM     23  H   UNL     1      -5.956 -10.668   0.635  0.00  0.00    +0.170 HD
ATOM     24  C   UNL     1      -7.962 -10.614   0.578  0.00  0.00    +0.260 A 
ATOM     25  O   UNL     1      -8.119 -11.811   0.750  0.00  0.00    -0.267 OA
ATOM     26  C   UNL     1      -9.092  -9.746   0.423  0.00  0.00    +0.075 A 
ATOM     27  C   UNL     1     -10.513 -10.093   0.437  0.00  0.00    -0.023 A 
ATOM     28  C   UNL     1     -11.391  -9.082   0.268  0.00  0.00    -0.004 A 
ATOM     29  S   UNL     1     -10.391  -7.631   0.082  0.00  0.00    -0.073 S 
ATOM     30  C   UNL     1      -8.793  -8.388   0.232  0.00  0.00    +0.116 A 
ATOM     31  N   UNL     1      -7.541  -7.939   0.202  0.00  0.00    -0.229 NA
ATOM     32  C   UNL     1     -12.886  -9.174   0.242  0.00  0.00    +0.046 C 
ATOM     33  C   UNL     1     -13.278 -10.648   0.066  0.00  0.00    -0.009 C 
ATOM     34  C   UNL     1     -12.471 -11.492   1.056  0.00  0.00    +0.008 C 
ATOM     35  C   UNL     1     -11.002 -11.525   0.633  0.00  0.00    +0.037 C 
ATOM     36  C   UNL     1     -14.774 -10.818   0.342  0.00  0.00    +0.008 C 
ENDBRANCH  20  21
ENDBRANCH   1  20
TORSDOF 12
