REMARK  Name = ZINC43427777
REMARK  4 active torsions:
REMARK  status: ('A' for Active; 'I' for Inactive)
REMARK    1  A    between atoms: C_1  and  C_2
REMARK    2  A    between atoms: C_3  and  C_23
REMARK    3  A    between atoms: C_7  and  C_8
REMARK    4  A    between atoms: C_8  and  N_10
REMARK                            x       y       z     vdW  Elec       q    Type
REMARK                         _______ _______ _______ _____ _____    ______ ____
ROOT
ATOM      1  C   UNL     1      -2.400  -0.500  -1.294  0.00  0.00    +0.046 C 
ATOM      2  C   UNL     1      -1.135  -0.965  -0.618  0.00  0.00    -0.015 A 
ATOM      3  C   UNL     1       0.109  -0.677  -1.155  0.00  0.00    +0.064 A 
ATOM      4  N   UNL     1       1.204  -1.092  -0.550  0.00  0.00    -0.152 NA
ATOM      5  N   UNL     1       1.179  -1.768   0.541  0.00  0.00    -0.133 NA
ATOM      6  C   UNL     1       0.045  -2.099   1.141  0.00  0.00    +0.154 A 
ATOM      7  C   UNL     1      -1.181  -1.696   0.576  0.00  0.00    +0.049 A 
ATOM      8  N   UNL     1       0.064  -2.829   2.317  0.00  0.00    -0.306 N 
ATOM      9  C   UNL     1       0.031  -2.162   3.628  0.00  0.00    +0.135 C 
ATOM     10  C   UNL     1      -1.079  -2.799   4.473  0.00  0.00    +0.179 C 
ATOM     11  O   UNL     1      -0.914  -4.220   4.481  0.00  0.00    -0.373 OA
ATOM     12  C   UNL     1      -1.012  -4.822   3.191  0.00  0.00    +0.139 C 
ATOM     13  C   UNL     1       0.114  -4.303   2.299  0.00  0.00    +0.104 C 
ATOM     14  C   UNL     1       1.462  -4.745   2.873  0.00  0.00    +0.025 C 
ATOM     15  C   UNL     1       1.512  -6.271   2.959  0.00  0.00    +0.002 C 
ATOM     16  C   UNL     1       0.395  -6.762   3.884  0.00  0.00    +0.003 C 
ATOM     17  C   UNL     1      -0.931  -6.341   3.303  0.00  0.00    +0.033 C 
ATOM     18  C   UNL     1       0.211   0.112  -2.435  0.00  0.00    +0.068 C 
ENDROOT
BRANCH   7  19
ATOM     19  C   UNL     1      -2.466  -2.038   1.214  0.00  0.00    +0.081 C 
ATOM     20  S   UNL     1      -3.253  -0.895   2.216  0.00  0.00    -0.035 S 
BRANCH  19  21
ATOM     21  N   UNL     1      -3.019  -3.249   1.009  0.00  0.00    -0.352 N 
ATOM     22  H   UNL     1      -2.613  -3.868   0.382  0.00  0.00    +0.143 HD
ATOM     23  H   UNL     1      -3.824  -3.502   1.488  0.00  0.00    +0.143 HD
ENDBRANCH  19  21
ENDBRANCH   7  19
TORSDOF 2
