REMARK  Name = ZINC00798120
REMARK  3 active torsions:
REMARK  status: ('A' for Active; 'I' for Inactive)
REMARK    1  A    between atoms: C_10  and  C_11
REMARK    2  A    between atoms: C_20  and  N_24
REMARK    3  A    between atoms: C_21  and  C_22
REMARK                            x       y       z     vdW  Elec       q    Type
REMARK                         _______ _______ _______ _____ _____    ______ ____
ROOT
ATOM      1  C   UNL     1      -3.753   3.104   0.052  0.00  0.00    +0.099 C 
ATOM      2  C   UNL     1      -4.462   3.361   1.355  0.00  0.00    +0.011 A 
ATOM      3  C   UNL     1      -4.039   2.707   2.500  0.00  0.00    +0.057 A 
ATOM      4  C   UNL     1      -4.677   2.931   3.708  0.00  0.00    +0.167 A 
ATOM      5  C   UNL     1      -5.751   3.816   3.771  0.00  0.00    +0.170 A 
ATOM      6  C   UNL     1      -6.173   4.468   2.625  0.00  0.00    +0.096 A 
ATOM      7  C   UNL     1      -5.530   4.241   1.415  0.00  0.00    +0.138 A 
ATOM      8  O   UNL     1      -5.959   4.890   0.303  0.00  0.00    -0.441 OA
ATOM      9  C   UNL     1      -5.633   4.423  -0.913  0.00  0.00    +0.199 C 
ATOM     10  C   UNL     1      -4.597   3.572  -1.100  0.00  0.00    +0.098 C 
ATOM     11  O   UNL     1      -6.203   3.863   5.058  0.00  0.00    -0.452 OA
ATOM     12  C   UNL     1      -5.141   3.312   5.859  0.00  0.00    +0.466 C 
ATOM     13  O   UNL     1      -4.458   2.422   4.956  0.00  0.00    -0.453 OA
ENDROOT
BRANCH   1  23
ATOM     14  C   UNL     1       1.191   1.779   0.005  0.00  0.00    +0.001 A 
ATOM     15  C   UNL     1      -0.013   1.076   0.013  0.00  0.00    +0.001 A 
ATOM     16  C   UNL     1      -1.206   1.730   0.020  0.00  0.00    +0.009 A 
ATOM     17  C   UNL     1      -1.229   3.135   0.031  0.00  0.00    -0.014 A 
ATOM     18  C   UNL     1      -0.005   3.850   0.023  0.00  0.00    -0.018 A 
ATOM     19  C   UNL     1       1.208   3.139   0.009  0.00  0.00    +0.008 A 
ATOM     20  C   UNL     1      -0.027   5.255   0.027  0.00  0.00    +0.008 A 
ATOM     21  C   UNL     1      -1.221   5.909   0.040  0.00  0.00    +0.001 A 
ATOM     22  C   UNL     1      -2.424   5.206   0.047  0.00  0.00    +0.005 A 
ATOM     23  C   UNL     1      -2.441   3.845   0.043  0.00  0.00    -0.027 A 
ENDBRANCH   1  23
BRANCH   9  24
ATOM     24  N   UNL     1      -6.373   4.821  -1.999  0.00  0.00    -0.328 N 
ATOM     25  H   UNL     1      -6.150   4.492  -2.884  0.00  0.00    +0.145 HD
ATOM     26  H   UNL     1      -7.118   5.430  -1.881  0.00  0.00    +0.145 HD
ENDBRANCH   9  24
BRANCH  10  27
ATOM     27  C   UNL     1      -4.299   3.108  -2.422  0.00  0.00    +0.101 C 
ATOM     28  N   UNL     1      -4.063   2.741  -3.470  0.00  0.00    -0.191 NA
ENDBRANCH  10  27
TORSDOF 3
