REMARK  Name = ZINC13065482
REMARK  12 active torsions:
REMARK  status: ('A' for Active; 'I' for Inactive)
REMARK    1  A    between atoms: C_1  and  C_2
REMARK    2  A    between atoms: C_5  and  C_8
REMARK    3  A    between atoms: C_8  and  N_67
REMARK    4  A    between atoms: C_9  and  C_10
REMARK    5  A    between atoms: C_9  and  N_67
REMARK    6  A    between atoms: C_14  and  C_22
REMARK    7  A    between atoms: C_23  and  C_24
REMARK    8  A    between atoms: C_23  and  N_67
REMARK    9  A    between atoms: N_28  and  C_29
REMARK   10  A    between atoms: C_29  and  C_30
REMARK   11  A    between atoms: C_33  and  O_36
REMARK   12  A    between atoms: O_36  and  C_37
REMARK                            x       y       z     vdW  Elec       q    Type
REMARK                         _______ _______ _______ _____ _____    ______ ____
ROOT
ATOM      1  N   UNL     1       1.572  -2.084  -1.321  0.00  0.00    +0.390 N 
ATOM      2  H   UNL     1       0.850  -1.854  -2.014  0.00  0.00    -0.080 HD
ENDROOT
BRANCH   1   3
ATOM      3  C   UNL     1       2.903  -1.934  -1.948  0.00  0.00    -0.042 C 
BRANCH   3   8
ATOM      4  C   UNL     1       2.820  -4.508  -7.121  0.00  0.00    +0.044 C 
ATOM      5  C   UNL     1       2.841  -3.837  -5.772  0.00  0.00    -0.050 A 
ATOM      6  C   UNL     1       2.370  -2.544  -5.635  0.00  0.00    +0.003 A 
ATOM      7  C   UNL     1       2.390  -1.928  -4.398  0.00  0.00    +0.002 A 
ATOM      8  C   UNL     1       2.881  -2.605  -3.297  0.00  0.00    -0.064 A 
ATOM      9  C   UNL     1       3.356  -3.896  -3.434  0.00  0.00    +0.002 A 
ATOM     10  C   UNL     1       3.332  -4.513  -4.671  0.00  0.00    +0.003 A 
ENDBRANCH   3   8
ENDBRANCH   1   3
BRANCH   1  11
ATOM     11  C   UNL     1       1.380  -3.478  -0.872  0.00  0.00    -0.036 C 
BRANCH  11  12
ATOM     12  C   UNL     1      -0.094  -3.726  -0.683  0.00  0.00    +0.001 A 
ATOM     13  C   UNL     1      -0.827  -4.247  -1.699  0.00  0.00    +0.017 A 
ATOM     14  C   UNL     1      -2.257  -4.475  -1.484  0.00  0.00    -0.001 A 
ATOM     15  C   UNL     1      -3.064  -5.010  -2.494  0.00  0.00    +0.013 A 
ATOM     16  C   UNL     1      -4.395  -5.212  -2.261  0.00  0.00    -0.050 A 
ATOM     17  C   UNL     1      -4.954  -4.890  -1.032  0.00  0.00    +0.005 A 
ATOM     18  C   UNL     1      -4.178  -4.362  -0.022  0.00  0.00    +0.026 A 
ATOM     19  C   UNL     1      -2.820  -4.148  -0.236  0.00  0.00    +0.049 A 
ATOM     20  N   UNL     1      -2.020  -3.622   0.756  0.00  0.00    -0.322 N 
ATOM     21  H   UNL     1      -2.410  -3.397   1.615  0.00  0.00    +0.169 HD
ATOM     22  C   UNL     1      -0.707  -3.421   0.551  0.00  0.00    +0.251 A 
ATOM     23  O   UNL     1      -0.029  -2.958   1.452  0.00  0.00    -0.268 OA
ATOM     24  C   UNL     1      -5.264  -5.788  -3.349  0.00  0.00    +0.044 C 
ENDBRANCH  11  12
ENDBRANCH   1  11
BRANCH   1  25
ATOM     25  C   UNL     1       1.448  -1.161  -0.173  0.00  0.00    +0.001 C 
BRANCH  25  26
ATOM     26  C   UNL     1       1.493   0.257  -0.681  0.00  0.00    +0.135 A 
ATOM     27  N   UNL     1       2.567   0.973  -0.909  0.00  0.00    -0.115 NA
ATOM     28  N   UNL     1       2.191   2.130  -1.335  0.00  0.00    -0.023 NA
ATOM     29  N   UNL     1       0.906   2.170  -1.383  0.00  0.00    -0.044 NA
ATOM     30  N   UNL     1       0.438   1.035  -0.987  0.00  0.00    -0.227 N 
BRANCH  30  31
ATOM     31  C   UNL     1      -0.975   0.662  -0.890  0.00  0.00    +0.182 C 
BRANCH  31  32
ATOM     32  C   UNL     1      -1.471   0.216  -2.242  0.00  0.00    -0.026 A 
ATOM     33  C   UNL     1      -1.915   1.152  -3.157  0.00  0.00    +0.009 A 
ATOM     34  C   UNL     1      -2.365   0.747  -4.399  0.00  0.00    +0.046 A 
ATOM     35  C   UNL     1      -2.381  -0.602  -4.723  0.00  0.00    +0.120 A 
ATOM     36  C   UNL     1      -1.941  -1.540  -3.800  0.00  0.00    +0.046 A 
ATOM     37  C   UNL     1      -1.487  -1.129  -2.562  0.00  0.00    +0.009 A 
BRANCH  35  38
ATOM     38  O   UNL     1      -2.828  -1.004  -5.941  0.00  0.00    -0.495 OA
ATOM     39  C   UNL     1      -3.266   0.017  -6.841  0.00  0.00    +0.277 C 
ENDBRANCH  35  38
ENDBRANCH  31  32
ENDBRANCH  30  31
ENDBRANCH  25  26
ENDBRANCH   1  25
TORSDOF 9
