REMARK  Name = ZINC03586636
REMARK  10 active torsions:
REMARK  status: ('A' for Active; 'I' for Inactive)
REMARK    1  A    between atoms: C_1  and  C_2
REMARK    2  A    between atoms: C_5  and  C_8
REMARK    3  A    between atoms: C_8  and  N_9
REMARK    4  A    between atoms: C_18  and  C_19
REMARK    5  A    between atoms: C_22  and  C_25
REMARK    6  A    between atoms: N_27  and  C_28
REMARK    7  A    between atoms: C_28  and  C_29
REMARK    8  A    between atoms: C_29  and  C_30
REMARK    9  A    between atoms: C_30  and  N_31
REMARK   10  A    between atoms: C_35  and  C_38
REMARK                            x       y       z     vdW  Elec       q    Type
REMARK                         _______ _______ _______ _____ _____    ______ ____
ROOT
ATOM      1  C   UNL     1       0.482  -2.716   0.839  0.00  0.00    -0.021 A 
ATOM      2  C   UNL     1      -0.826  -2.221   0.766  0.00  0.00    +0.009 A 
ATOM      3  C   UNL     1      -1.864  -2.964   1.253  0.00  0.00    +0.013 A 
ATOM      4  C   UNL     1      -1.620  -4.211   1.834  0.00  0.00    +0.037 A 
ATOM      5  C   UNL     1      -0.314  -4.704   1.912  0.00  0.00    +0.013 A 
ATOM      6  C   UNL     1       0.725  -3.966   1.421  0.00  0.00    +0.009 A 
ENDROOT
BRANCH   1  16
ATOM      7  N   UNL     1      -0.110  -0.305  -2.457  0.00  0.00    -0.257 N 
ATOM      8  C   UNL     1       0.678   0.852  -2.420  0.00  0.00    +0.079 A 
ATOM      9  C   UNL     1       0.211   2.028  -2.988  0.00  0.00    +0.027 A 
ATOM     10  C   UNL     1       0.990   3.169  -2.950  0.00  0.00    +0.002 A 
ATOM     11  C   UNL     1       2.235   3.143  -2.347  0.00  0.00    +0.004 A 
ATOM     12  C   UNL     1       2.707   1.975  -1.779  0.00  0.00    +0.048 A 
ATOM     13  C   UNL     1       1.933   0.827  -1.813  0.00  0.00    +0.150 A 
ATOM     14  O   UNL     1       2.396  -0.327  -1.256  0.00  0.00    -0.449 OA
ATOM     15  C   UNL     1       1.444  -1.210  -0.830  0.00  0.00    +0.191 C 
ATOM     16  C   UNL     1       1.599  -1.920   0.310  0.00  0.00    +0.059 C 
ATOM     17  C   UNL     1       0.235  -1.355  -1.672  0.00  0.00    +0.287 C 
ATOM     18  O   UNL     1      -0.425  -2.377  -1.660  0.00  0.00    -0.266 OA
BRANCH   7  19
ATOM     19  C   UNL     1      -1.282  -0.382  -3.332  0.00  0.00    +0.149 C 
BRANCH  19  24
ATOM     20  C   UNL     1       0.372  -1.995  -8.629  0.00  0.00    +0.044 C 
ATOM     21  C   UNL     1      -0.060  -1.574  -7.248  0.00  0.00    -0.050 A 
ATOM     22  C   UNL     1      -0.307  -2.530  -6.280  0.00  0.00    +0.003 A 
ATOM     23  C   UNL     1      -0.703  -2.144  -5.013  0.00  0.00    +0.005 A 
ATOM     24  C   UNL     1      -0.851  -0.802  -4.713  0.00  0.00    -0.030 A 
ATOM     25  C   UNL     1      -0.609   0.153  -5.683  0.00  0.00    +0.005 A 
ATOM     26  C   UNL     1      -0.209  -0.233  -6.949  0.00  0.00    +0.003 A 
ENDBRANCH  19  24
ENDBRANCH   7  19
ENDBRANCH   1  16
BRANCH   4  27
ATOM     27  C   UNL     1      -2.743  -5.011   2.365  0.00  0.00    +0.244 C 
ATOM     28  O   UNL     1      -2.531  -6.096   2.870  0.00  0.00    -0.270 OA
ATOM     29  N   UNL     1      -4.002  -4.537   2.290  0.00  0.00    -0.311 N 
ATOM     30  H   UNL     1      -4.194  -3.554   1.833  0.00  0.00    +0.149 HD
BRANCH  29  31
ATOM     31  C   UNL     1      -5.116  -5.329   2.817  0.00  0.00    +0.102 C 
BRANCH  31  32
ATOM     32  C   UNL     1      -6.427  -4.569   2.608  0.00  0.00    +0.000 C 
BRANCH  32  33
ATOM     33  C   UNL     1      -7.590  -5.397   3.158  0.00  0.00    -0.077 C 
BRANCH  33  34
ATOM     34  N   UNL     1      -8.849  -4.667   2.957  0.00  0.00    +0.380 N 
ATOM     35  C   UNL     1      -8.928  -4.118   1.598  0.00  0.00    -0.079 C 
ATOM     36  C   UNL     1     -10.178  -3.245   1.470  0.00  0.00    -0.018 C 
ATOM     37  C   UNL     1     -11.418  -4.091   1.772  0.00  0.00    -0.001 C 
ATOM     38  C   UNL     1     -11.288  -4.690   3.175  0.00  0.00    -0.031 C 
ATOM     39  C   UNL     1     -10.006  -5.521   3.253  0.00  0.00    -0.076 C 
ATOM     40  C   UNL     1     -12.495  -5.586   3.462  0.00  0.00    +0.005 C 
ATOM     41  H   UNL     1      -8.867  -3.822   3.662  0.00  0.00    -0.082 HD
ENDBRANCH  33  34
ENDBRANCH  32  33
ENDBRANCH  31  32
ENDBRANCH  29  31
ENDBRANCH   4  27
TORSDOF 8
