REMARK  Name = ZINC33032951
REMARK  8 active torsions:
REMARK  status: ('A' for Active; 'I' for Inactive)
REMARK    1  A    between atoms: C_1  and  C_2
REMARK    2  A    between atoms: C_2  and  O_3
REMARK    3  A    between atoms: O_3  and  C_4
REMARK    4  A    between atoms: C_12  and  C_14
REMARK    5  A    between atoms: C_17  and  N_31
REMARK    6  A    between atoms: C_18  and  N_20
REMARK    7  A    between atoms: N_20  and  S_21
REMARK    8  A    between atoms: S_21  and  C_24
REMARK                            x       y       z     vdW  Elec       q    Type
REMARK                         _______ _______ _______ _____ _____    ______ ____
ROOT
ATOM      1  C   UNL     1      -1.484   1.979   0.875  0.00  0.00    +0.039 A 
ATOM      2  C   UNL     1      -1.546   3.087   0.025  0.00  0.00    +0.015 A 
ATOM      3  C   UNL     1      -2.686   3.333  -0.706  0.00  0.00    +0.026 A 
ATOM      4  C   UNL     1      -3.783   2.486  -0.595  0.00  0.00    +0.052 A 
ATOM      5  C   UNL     1      -3.730   1.379   0.256  0.00  0.00    +0.070 A 
ATOM      6  C   UNL     1      -2.586   1.126   0.988  0.00  0.00    +0.039 A 
ENDROOT
BRANCH   1  15
ATOM      7  C   UNL     1       4.415   1.303  -0.788  0.00  0.00    +0.403 C 
ATOM      8  O   UNL     1       4.501   1.616  -1.959  0.00  0.00    -0.226 OA
ATOM      9  N   UNL     1       3.204   1.109  -0.229  0.00  0.00    -0.264 N 
ATOM     10  C   UNL     1       1.979   1.272  -1.024  0.00  0.00    +0.130 C 
ATOM     11  C   UNL     1       1.069   2.286  -0.319  0.00  0.00    +0.127 C 
ATOM     12  N   UNL     1       0.951   1.907   1.096  0.00  0.00    -0.295 N 
ATOM     13  C   UNL     1       2.176   1.749   1.892  0.00  0.00    +0.127 C 
ATOM     14  C   UNL     1       3.086   0.730   1.186  0.00  0.00    +0.130 C 
ATOM     15  C   UNL     1      -0.260   1.713   1.655  0.00  0.00    +0.247 C 
ATOM     16  O   UNL     1      -0.344   1.314   2.800  0.00  0.00    -0.270 OA
BRANCH   7  17
ATOM     17  O   UNL     1       5.530   1.150  -0.049  0.00  0.00    -0.451 OA
BRANCH  17  19
ATOM     18  C   UNL     1       7.944   1.156   0.276  0.00  0.00    +0.048 C 
ATOM     19  C   UNL     1       6.800   1.375  -0.717  0.00  0.00    +0.230 C 
ENDBRANCH  17  19
ENDBRANCH   7  17
ENDBRANCH   1  15
BRANCH   4  20
ATOM     20  N   UNL     1      -4.937   2.741  -1.334  0.00  0.00    -0.332 N 
ATOM     21  C   UNL     1      -4.887   4.077  -1.943  0.00  0.00    +0.086 C 
ATOM     22  C   UNL     1      -6.202   4.349  -2.677  0.00  0.00    -0.063 C 
ATOM     23  N   UNL     1      -6.413   3.315  -3.700  0.00  0.00    +0.381 N 
ATOM     24  C   UNL     1      -6.462   1.979  -3.090  0.00  0.00    -0.063 C 
ATOM     25  C   UNL     1      -5.147   1.706  -2.356  0.00  0.00    +0.086 C 
ATOM     26  H   UNL     1      -7.364   3.502  -4.220  0.00  0.00    -0.086 HD
ATOM     27  H   UNL     1      -5.586   3.343  -4.425  0.00  0.00    -0.086 HD
ENDBRANCH   4  20
BRANCH   5  28
ATOM     28  N   UNL     1      -4.836   0.526   0.367  0.00  0.00    -0.214 N 
ATOM     29  H   UNL     1      -5.249   0.042  -0.530  0.00  0.00    +0.174 HD
BRANCH  28  30
ATOM     30  S   UNL     1      -5.521   0.248   1.848  0.00  0.00    +0.072 S 
ATOM     31  O   UNL     1      -6.628  -0.616   1.628  0.00  0.00    -0.150 OA
ATOM     32  O   UNL     1      -4.459  -0.086   2.731  0.00  0.00    -0.150 OA
BRANCH  30  33
ATOM     33  C   UNL     1      -6.183   1.780   2.413  0.00  0.00    +0.109 A 
ATOM     34  C   UNL     1      -5.401   2.633   3.170  0.00  0.00    +0.031 A 
ATOM     35  C   UNL     1      -5.917   3.837   3.609  0.00  0.00    +0.040 A 
ATOM     36  C   UNL     1      -7.221   4.185   3.300  0.00  0.00    +0.124 A 
ATOM     37  C   UNL     1      -8.005   3.328   2.546  0.00  0.00    +0.040 A 
ATOM     38  C   UNL     1      -7.485   2.126   2.104  0.00  0.00    +0.031 A 
ATOM     39  F   UNL     1      -7.728   5.360   3.733  0.00  0.00    -0.205 F 
ENDBRANCH  30  33
ENDBRANCH  28  30
ENDBRANCH   5  28
TORSDOF 7
