REMARK  Name = ZINC09705856
REMARK  7 active torsions:
REMARK  status: ('A' for Active; 'I' for Inactive)
REMARK    1  A    between atoms: C_1  and  C_2
REMARK    2  A    between atoms: C_7  and  N_8
REMARK    3  A    between atoms: C_9  and  C_11
REMARK    4  A    between atoms: C_12  and  N_20
REMARK    5  A    between atoms: C_21  and  C_23
REMARK    6  A    between atoms: N_25  and  C_26
REMARK    7  A    between atoms: C_32  and  C_34
REMARK                            x       y       z     vdW  Elec       q    Type
REMARK                         _______ _______ _______ _____ _____    ______ ____
ROOT
ATOM      1  C   UNL     1       3.258   2.578  -0.355  0.00  0.00    +0.212 A 
ATOM      2  C   UNL     1       2.591   1.418  -0.067  0.00  0.00    +0.093 A 
ATOM      3  C   UNL     1       1.225   1.819   0.292  0.00  0.00    +0.042 A 
ATOM      4  C   UNL     1       0.080   1.122   0.678  0.00  0.00    +0.013 A 
ATOM      5  C   UNL     1      -1.073   1.807   0.946  0.00  0.00    +0.001 A 
ATOM      6  C   UNL     1      -1.106   3.191   0.845  0.00  0.00    +0.004 A 
ATOM      7  C   UNL     1       0.015   3.897   0.466  0.00  0.00    +0.047 A 
ATOM      8  C   UNL     1       1.196   3.220   0.183  0.00  0.00    +0.138 A 
ATOM      9  O   UNL     1       2.421   3.629  -0.202  0.00  0.00    -0.448 OA
ENDROOT
BRANCH   1  11
ATOM     10  N   UNL     1       5.182   3.857  -1.121  0.00  0.00    -0.279 N 
ATOM     11  C   UNL     1       4.658   2.667  -0.764  0.00  0.00    +0.285 C 
ATOM     12  O   UNL     1       5.352   1.667  -0.783  0.00  0.00    -0.266 OA
ATOM     13  H   UNL     1       4.646   4.662  -1.054  0.00  0.00    +0.155 HD
BRANCH  10  20
ATOM     14  C   UNL     1       5.867   5.990  -2.875  0.00  0.00    +0.045 C 
ATOM     15  C   UNL     1       6.875   4.954  -2.447  0.00  0.00    -0.029 A 
ATOM     16  C   UNL     1       8.177   5.026  -2.904  0.00  0.00    +0.005 A 
ATOM     17  C   UNL     1       9.101   4.073  -2.516  0.00  0.00    +0.000 A 
ATOM     18  C   UNL     1       8.726   3.049  -1.666  0.00  0.00    +0.002 A 
ATOM     19  C   UNL     1       7.428   2.974  -1.201  0.00  0.00    +0.023 A 
ATOM     20  C   UNL     1       6.497   3.930  -1.589  0.00  0.00    +0.037 A 
ENDBRANCH  10  20
ENDBRANCH   1  11
BRANCH   2  21
ATOM     21  N   UNL     1       3.102   0.128  -0.106  0.00  0.00    -0.274 N 
ATOM     22  C   UNL     1       2.278  -0.917  -0.320  0.00  0.00    +0.303 C 
ATOM     23  O   UNL     1       1.101  -0.725  -0.546  0.00  0.00    -0.265 OA
ATOM     24  H   UNL     1       4.052  -0.021   0.021  0.00  0.00    +0.155 HD
BRANCH  22  25
ATOM     25  C   UNL     1       2.813  -2.310  -0.279  0.00  0.00    +0.300 C 
ATOM     26  O   UNL     1       3.990  -2.502  -0.053  0.00  0.00    -0.265 OA
ATOM     27  N   UNL     1       1.990  -3.355  -0.493  0.00  0.00    -0.304 N 
ATOM     28  H   UNL     1       1.049  -3.202  -0.674  0.00  0.00    +0.149 HD
BRANCH  27  29
ATOM     29  C   UNL     1       2.514  -4.722  -0.453  0.00  0.00    +0.076 C 
ATOM     30  C   UNL     1       2.531  -5.220   0.993  0.00  0.00    +0.022 C 
ATOM     31  C   UNL     1       3.079  -6.648   1.035  0.00  0.00    +0.002 C 
ATOM     32  C   UNL     1       2.188  -7.561   0.192  0.00  0.00    +0.000 C 
ATOM     33  C   UNL     1       2.171  -7.064  -1.255  0.00  0.00    +0.005 C 
ATOM     34  C   UNL     1       1.623  -5.636  -1.297  0.00  0.00    +0.006 C 
ATOM     35  C   UNL     1       1.607  -5.138  -2.744  0.00  0.00    +0.009 C 
ENDBRANCH  27  29
ENDBRANCH  22  25
ENDBRANCH   2  21
TORSDOF 5
