REMARK  Name = ZINC66938957
REMARK  5 active torsions:
REMARK  status: ('A' for Active; 'I' for Inactive)
REMARK    1  A    between atoms: C_6  and  C_7
REMARK    2  A    between atoms: C_7  and  C_9
REMARK    3  A    between atoms: C_7  and  N_12
REMARK    4  A    between atoms: N_12  and  N_13
REMARK    5  A    between atoms: C_14  and  C_16
REMARK                            x       y       z     vdW  Elec       q    Type
REMARK                         _______ _______ _______ _____ _____    ______ ____
ROOT
ATOM      1  N   UNL     1      -1.163  -1.942   0.893  0.00  0.00    -0.224 NA
ATOM      2  H   UNL     1      -0.466  -1.781   1.605  0.00  0.00    +0.145 HD
ENDROOT
BRANCH   1   3
ATOM      3  N   UNL     1      -2.366  -2.270   1.451  0.00  0.00    -0.245 N 
ATOM      4  C   UNL     1      -2.454  -3.317   2.295  0.00  0.00    +0.264 C 
ATOM      5  O   UNL     1      -1.462  -3.970   2.559  0.00  0.00    -0.268 OA
ATOM      6  H   UNL     1      -3.156  -1.749   1.241  0.00  0.00    +0.169 HD
BRANCH   4   7
ATOM      7  C   UNL     1      -3.744  -3.669   2.894  0.00  0.00    +0.076 A 
ATOM      8  C   UNL     1      -4.047  -4.688   3.776  0.00  0.00    +0.024 A 
ATOM      9  C   UNL     1      -5.372  -4.794   4.188  0.00  0.00    -0.036 A 
ATOM     10  C   UNL     1      -6.241  -3.882   3.677  0.00  0.00    -0.006 A 
ATOM     11  S   UNL     1      -5.333  -2.890   2.681  0.00  0.00    -0.088 S 
ATOM     12  C   UNL     1      -7.713  -3.768   3.939  0.00  0.00    +0.043 C 
ATOM     13  C   UNL     1      -8.026  -4.311   5.338  0.00  0.00    +0.005 C 
ATOM     14  C   UNL     1      -8.309  -5.806   5.228  0.00  0.00    +0.001 C 
ATOM     15  C   UNL     1      -7.091  -6.544   4.679  0.00  0.00    +0.005 C 
ATOM     16  C   UNL     1      -5.805  -5.884   5.164  0.00  0.00    +0.036 C 
ENDBRANCH   4   7
ENDBRANCH   1   3
BRANCH   1  17
ATOM     17  C   UNL     1      -1.293  -0.775   0.010  0.00  0.00    +0.188 C 
BRANCH  17  23
ATOM     18  C   UNL     1      -0.017   1.378   0.010  0.00  0.00    +0.008 A 
ATOM     19  C   UNL     1       1.170   2.086   0.002  0.00  0.00    +0.038 A 
ATOM     20  C   UNL     1       2.379   1.410  -0.013  0.00  0.00    +0.123 A 
ATOM     21  C   UNL     1       2.396   0.026  -0.021  0.00  0.00    +0.038 A 
ATOM     22  C   UNL     1       1.208  -0.680  -0.013  0.00  0.00    +0.008 A 
ATOM     23  C   UNL     1       0.002  -0.004   0.002  0.00  0.00    -0.020 A 
ATOM     24  F   UNL     1       3.540   2.101  -0.021  0.00  0.00    -0.205 F 
ENDBRANCH  17  23
BRANCH  17  25
ATOM     25  C   UNL     1      -1.612  -1.236  -1.389  0.00  0.00    +0.234 C 
ATOM     26  O   UNL     1      -1.720  -2.420  -1.627  0.00  0.00    -0.274 OA
ATOM     27  N   UNL     1      -1.777  -0.333  -2.375  0.00  0.00    -0.328 N 
ATOM     28  H   UNL     1      -1.690   0.615  -2.184  0.00  0.00    +0.145 HD
ATOM     29  H   UNL     1      -1.982  -0.630  -3.275  0.00  0.00    +0.145 HD
ENDBRANCH  17  25
ENDBRANCH   1  17
TORSDOF 5
