REMARK  Name = ZINC13129240
REMARK  14 active torsions:
REMARK  status: ('A' for Active; 'I' for Inactive)
REMARK    1  A    between atoms: C_1  and  C_2
REMARK    2  A    between atoms: C_4  and  C_18
REMARK    3  A    between atoms: C_5  and  C_17
REMARK    4  A    between atoms: N_6  and  C_7
REMARK    5  A    between atoms: C_11  and  C_13
REMARK    6  A    between atoms: C_18  and  C_20
REMARK    7  A    between atoms: C_20  and  O_21
REMARK    8  A    between atoms: O_21  and  C_22
REMARK    9  A    between atoms: C_22  and  C_24
REMARK   10  A    between atoms: C_26  and  N_34
REMARK   11  A    between atoms: C_29  and  N_30
REMARK   12  A    between atoms: N_30  and  C_31
REMARK   13  A    between atoms: C_31  and  C_32
REMARK   14  A    between atoms: C_32  and  O_33
REMARK                            x       y       z     vdW  Elec       q    Type
REMARK                         _______ _______ _______ _____ _____    ______ ____
ROOT
ATOM      1  C   UNL     1      -0.866   8.514  -1.341  0.00  0.00    +0.202 C 
ATOM      2  O   UNL     1      -1.392   8.381  -2.427  0.00  0.00    -0.288 OA
ENDROOT
BRANCH   1   6
ATOM      3  C   UNL     1       0.913   5.511   2.371  0.00  0.00    +0.064 C 
ATOM      4  C   UNL     1       0.302   6.021   1.091  0.00  0.00    +0.022 A 
ATOM      5  C   UNL     1       0.151   7.314   0.762  0.00  0.00    +0.034 A 
ATOM      6  C   UNL     1      -0.490   7.334  -0.560  0.00  0.00    +0.042 A 
ATOM      7  C   UNL     1      -0.664   6.009  -0.917  0.00  0.00    +0.032 A 
ATOM      8  N   UNL     1      -0.183   5.240   0.079  0.00  0.00    -0.317 N 
ATOM      9  C   UNL     1      -1.285   5.513  -2.197  0.00  0.00    +0.064 C 
BRANCH   8  10
ATOM     10  C   UNL     1      -0.184   3.839   0.079  0.00  0.00    +0.047 A 
ATOM     11  C   UNL     1      -1.387   3.144   0.098  0.00  0.00    +0.026 A 
ATOM     12  C   UNL     1      -1.385   1.763   0.093  0.00  0.00    +0.003 A 
ATOM     13  C   UNL     1      -0.187   1.072   0.081  0.00  0.00    +0.012 A 
ATOM     14  C   UNL     1       1.012   1.761   0.063  0.00  0.00    +0.057 A 
ATOM     15  C   UNL     1       1.016   3.142   0.062  0.00  0.00    +0.038 A 
BRANCH  14  16
ATOM     16  C   UNL     1       2.315   1.004   0.044  0.00  0.00    +0.417 C 
ATOM     17  F   UNL     1       2.055  -0.371   0.050  0.00  0.00    -0.166 F 
ATOM     18  F   UNL     1       3.032   1.338  -1.109  0.00  0.00    -0.166 F 
ATOM     19  F   UNL     1       3.066   1.341   1.175  0.00  0.00    -0.166 F 
ENDBRANCH  14  16
ENDBRANCH   8  10
ENDBRANCH   1   6
BRANCH   1  20
ATOM     20  C   UNL     1      -0.600   9.894  -0.796  0.00  0.00    +0.311 C 
BRANCH  20  21
ATOM     21  O   UNL     1      -1.060  10.887  -1.750  0.00  0.00    -0.453 OA
BRANCH  21  22
ATOM     22  C   UNL     1      -0.895  12.182  -1.412  0.00  0.00    +0.341 C 
ATOM     23  O   UNL     1      -0.381  12.472  -0.350  0.00  0.00    -0.245 OA
BRANCH  22  24
ATOM     24  C   UNL     1      -1.339  13.245  -2.330  0.00  0.00    +0.082 A 
ATOM     25  C   UNL     1      -1.817  12.920  -3.603  0.00  0.00    +0.049 A 
ATOM     26  C   UNL     1      -2.235  13.918  -4.455  0.00  0.00    +0.127 A 
ATOM     27  C   UNL     1      -2.174  15.246  -4.062  0.00  0.00    +0.034 A 
ATOM     28  C   UNL     1      -1.698  15.584  -2.811  0.00  0.00    +0.026 A 
ATOM     29  C   UNL     1      -1.277  14.591  -1.935  0.00  0.00    +0.041 A 
BRANCH  26  30
ATOM     30  N   UNL     1      -2.747  13.572  -5.800  0.00  0.00    +0.056 N 
ATOM     31  O   UNL     1      -3.112  14.453  -6.558  0.00  0.00    -0.126 OA
ATOM     32  O   UNL     1      -2.802  12.406  -6.149  0.00  0.00    -0.126 OA
ENDBRANCH  26  30
BRANCH  29  33
ATOM     33  N   UNL     1      -0.799  14.927  -0.676  0.00  0.00    -0.341 N 
ATOM     34  H   UNL     1      -0.431  14.241  -0.098  0.00  0.00    +0.146 HD
BRANCH  33  35
ATOM     35  C   UNL     1      -0.849  16.319  -0.222  0.00  0.00    +0.129 C 
BRANCH  35  36
ATOM     36  C   UNL     1      -0.264  16.416   1.188  0.00  0.00    +0.174 C 
BRANCH  36  37
ATOM     37  O   UNL     1       1.125  16.080   1.153  0.00  0.00    -0.393 OA
ATOM     38  H   UNL     1       1.562  16.121   2.014  0.00  0.00    +0.209 HD
ENDBRANCH  36  37
ENDBRANCH  35  36
ENDBRANCH  33  35
ENDBRANCH  29  33
ENDBRANCH  22  24
ENDBRANCH  21  22
ENDBRANCH  20  21
ENDBRANCH   1  20
TORSDOF 12
