REMARK  Name = ZINC36923134
REMARK  3 active torsions:
REMARK  status: ('A' for Active; 'I' for Inactive)
REMARK    1  A    between atoms: C_7  and  C_12
REMARK    2  A    between atoms: C_12  and  N_13
REMARK    3  A    between atoms: N_13  and  C_14
REMARK                            x       y       z     vdW  Elec       q    Type
REMARK                         _______ _______ _______ _____ _____    ______ ____
ROOT
ATOM      1  C   UNL     1      -0.017   1.397   0.010  0.00  0.00    +0.036 A 
ATOM      2  C   UNL     1       1.141   2.092   0.002  0.00  0.00    +0.048 A 
ATOM      3  S   UNL     1       2.374   0.802  -0.016  0.00  0.00    -0.090 S 
ATOM      4  C   UNL     1       1.279  -0.592  -0.013  0.00  0.00    +0.102 A 
ATOM      5  C   UNL     1       0.002  -0.004   0.002  0.00  0.00    +0.085 A 
ATOM      6  N   UNL     1      -1.060  -0.875   0.007  0.00  0.00    -0.232 NA
ATOM      7  C   UNL     1      -0.894  -2.158  -0.002  0.00  0.00    +0.128 A 
ATOM      8  N   UNL     1       0.329  -2.751  -0.017  0.00  0.00    -0.309 N 
ATOM      9  H   UNL     1       0.404  -3.718  -0.023  0.00  0.00    +0.170 HD
ATOM     10  C   UNL     1       1.441  -1.978  -0.023  0.00  0.00    +0.266 A 
ATOM     11  O   UNL     1       2.553  -2.479  -0.036  0.00  0.00    -0.267 OA
ENDROOT
BRANCH   7  12
ATOM     12  C   UNL     1      -2.117  -3.039   0.005  0.00  0.00    +0.176 C 
BRANCH  12  13
ATOM     13  N   UNL     1      -3.321  -2.203   0.022  0.00  0.00    -0.337 N 
ATOM     14  H   UNL     1      -3.240  -1.237   0.026  0.00  0.00    +0.147 HD
BRANCH  13  15
ATOM     15  C   UNL     1      -4.584  -2.799   0.031  0.00  0.00    +0.030 A 
ATOM     16  C   UNL     1      -4.701  -4.183   0.030  0.00  0.00    +0.043 A 
ATOM     17  C   UNL     1      -5.953  -4.769   0.039  0.00  0.00    +0.044 A 
ATOM     18  C   UNL     1      -7.088  -3.979   0.050  0.00  0.00    +0.040 A 
ATOM     19  C   UNL     1      -6.975  -2.600   0.050  0.00  0.00    +0.044 A 
ATOM     20  C   UNL     1      -5.726  -2.008   0.046  0.00  0.00    +0.043 A 
ATOM     21 CL   UNL     1      -8.402  -1.612   0.062  0.00  0.00    -0.083 Cl
ATOM     22 CL   UNL     1      -6.100  -6.499   0.038  0.00  0.00    -0.083 Cl
ENDBRANCH  13  15
ENDBRANCH  12  13
ENDBRANCH   7  12
TORSDOF 3
