REMARK  Name = ZINC39592134
REMARK  10 active torsions:
REMARK  status: ('A' for Active; 'I' for Inactive)
REMARK    1  A    between atoms: C_1  and  C_2
REMARK    2  A    between atoms: C_5  and  C_8
REMARK    3  A    between atoms: C_10  and  C_14
REMARK    4  A    between atoms: C_20  and  C_23
REMARK    5  A    between atoms: C_25  and  O_33
REMARK    6  A    between atoms: C_26  and  O_31
REMARK    7  A    between atoms: C_28  and  O_29
REMARK    8  A    between atoms: O_29  and  C_30
REMARK    9  A    between atoms: O_31  and  C_32
REMARK   10  A    between atoms: O_33  and  C_34
REMARK                            x       y       z     vdW  Elec       q    Type
REMARK                         _______ _______ _______ _____ _____    ______ ____
ROOT
ATOM      1  C   UNL     1       1.339  -7.169   0.966  0.00  0.00    +0.181 A 
ATOM      2  N   UNL     1       2.535  -6.980   0.495  0.00  0.00    -0.129 NA
ATOM      3  N   UNL     1       3.369  -7.769   1.077  0.00  0.00    -0.121 NA
ATOM      4  C   UNL     1       2.736  -8.508   1.934  0.00  0.00    +0.211 A 
ATOM      5  N   UNL     1       1.413  -8.146   1.943  0.00  0.00    -0.222 N 
ATOM      6  N   UNL     1       0.565  -8.748   2.824  0.00  0.00    -0.263 N 
ATOM      7  C   UNL     1       1.026 -10.063   3.342  0.00  0.00    +0.186 C 
ATOM      8  S   UNL     1       2.842  -9.819   3.135  0.00  0.00    -0.056 S 
ATOM      9  H   UNL     1       0.329  -8.124   3.582  0.00  0.00    +0.168 HD
ENDROOT
BRANCH   7  10
ATOM     10  C   UNL     1       0.646 -10.255   4.787  0.00  0.00    +0.030 A 
ATOM     11  C   UNL     1      -0.301  -9.432   5.367  0.00  0.00    +0.059 A 
ATOM     12  C   UNL     1      -0.652  -9.606   6.696  0.00  0.00    +0.162 A 
ATOM     13  C   UNL     1      -0.050 -10.611   7.447  0.00  0.00    +0.165 A 
ATOM     14  C   UNL     1       0.899 -11.434   6.865  0.00  0.00    +0.095 A 
ATOM     15  C   UNL     1       1.244 -11.260   5.533  0.00  0.00    +0.130 A 
BRANCH  15  16
ATOM     16  O   UNL     1       2.171 -12.072   4.959  0.00  0.00    -0.495 OA
ATOM     17  C   UNL     1       2.746 -13.086   5.785  0.00  0.00    +0.277 C 
ENDBRANCH  15  16
BRANCH  13  18
ATOM     18  O   UNL     1      -0.393 -10.783   8.752  0.00  0.00    -0.491 OA
ATOM     19  C   UNL     1       0.266 -11.834   9.463  0.00  0.00    +0.277 C 
ENDBRANCH  13  18
BRANCH  12  20
ATOM     20  O   UNL     1      -1.584  -8.795   7.266  0.00  0.00    -0.491 OA
ATOM     21  C   UNL     1      -2.160  -7.785   6.435  0.00  0.00    +0.277 C 
ENDBRANCH  12  20
ENDBRANCH   7  10
BRANCH   1  24
ATOM     22  C   UNL     1       0.061  -4.256  -0.021  0.00  0.00    +0.091 C 
ATOM     23  C   UNL     1       0.071  -5.030   1.081  0.00  0.00    +0.039 C 
ATOM     24  C   UNL     1       0.090  -6.445   0.530  0.00  0.00    +0.222 C 
ATOM     25  N   UNL     1       0.087  -6.239  -0.927  0.00  0.00    -0.171 NA
ATOM     26  N   UNL     1       0.065  -5.025  -1.142  0.00  0.00    -0.153 NA
BRANCH  22  31
ATOM     27  C   UNL     1      -0.018   1.503   0.010  0.00  0.00    +0.044 C 
ATOM     28  C   UNL     1       0.002  -0.004   0.002  0.00  0.00    -0.050 A 
ATOM     29  C   UNL     1       0.006  -0.686  -1.201  0.00  0.00    +0.004 A 
ATOM     30  C   UNL     1       0.025  -2.066  -1.215  0.00  0.00    +0.010 A 
ATOM     31  C   UNL     1       0.041  -2.772  -0.013  0.00  0.00    +0.002 A 
ATOM     32  C   UNL     1       0.037  -2.080   1.196  0.00  0.00    +0.010 A 
ATOM     33  C   UNL     1       0.023  -0.700   1.198  0.00  0.00    +0.004 A 
ENDBRANCH  22  31
ENDBRANCH   1  24
TORSDOF 6
