REMARK  Name = ZINC39856237
REMARK  7 active torsions:
REMARK  status: ('A' for Active; 'I' for Inactive)
REMARK    1  A    between atoms: C_1  and  C_2
REMARK    2  A    between atoms: C_6  and  C_7
REMARK    3  A    between atoms: C_17  and  C_25
REMARK    4  A    between atoms: C_17  and  C_26
REMARK    5  A    between atoms: N_20  and  N_21
REMARK    6  A    between atoms: N_21  and  C_22
REMARK    7  A    between atoms: C_22  and  N_24
REMARK                            x       y       z     vdW  Elec       q    Type
REMARK                         _______ _______ _______ _____ _____    ______ ____
ROOT
ATOM      1  C   UNL     1      -0.013   1.502   0.010  0.00  0.00    +0.048 C 
ATOM      2  C   UNL     1       0.007  -0.004   0.002  0.00  0.00    +0.009 A 
ATOM      3  C   UNL     1       0.015  -0.839  -1.123  0.00  0.00    +0.042 A 
ATOM      4  C   UNL     1       0.032  -2.138  -0.673  0.00  0.00    +0.116 A 
ATOM      5  O   UNL     1       0.038  -2.112   0.658  0.00  0.00    -0.454 OA
ATOM      6  C   UNL     1       0.027  -0.831   1.091  0.00  0.00    +0.193 A 
ATOM      7  C   UNL     1       0.039  -3.327  -1.599  0.00  0.00    +0.081 C 
ATOM      8  C   UNL     1      -0.483  -2.903  -2.975  0.00  0.00    -0.023 C 
ATOM      9  C   UNL     1       0.289  -1.685  -3.494  0.00  0.00    +0.064 C 
ATOM     10  C   UNL     1       0.009  -0.512  -2.566  0.00  0.00    +0.070 C 
ATOM     11  N   UNL     1      -0.218   0.686  -3.008  0.00  0.00    -0.185 NA
ATOM     12  C   UNL     1      -0.316  -4.063  -3.958  0.00  0.00    +0.011 C 
ATOM     13  C   UNL     1      -1.968  -2.548  -2.863  0.00  0.00    +0.011 C 
ENDROOT
BRANCH   6  14
ATOM     14  C   UNL     1       0.033  -0.400   2.493  0.00  0.00    +0.285 C 
ATOM     15  O   UNL     1       0.019   0.786   2.765  0.00  0.00    -0.266 OA
ATOM     16  N   UNL     1       0.054  -1.318   3.480  0.00  0.00    -0.264 N 
ATOM     17  C   UNL     1       0.166  -0.911   4.807  0.00  0.00    +0.125 A 
ATOM     18  C   UNL     1       0.294  -1.864   5.812  0.00  0.00    +0.044 A 
ATOM     19  C   UNL     1       0.405  -1.446   7.126  0.00  0.00    +0.005 A 
ATOM     20  C   UNL     1       0.384  -0.083   7.392  0.00  0.00    +0.020 A 
ATOM     21  C   UNL     1       0.255   0.807   6.345  0.00  0.00    +0.113 A 
ATOM     22  N   UNL     1       0.156   0.380   5.101  0.00  0.00    -0.240 NA
ATOM     23  H   UNL     1      -0.009  -2.262   3.266  0.00  0.00    +0.157 HD
ENDBRANCH   6  14
BRANCH  11  24
ATOM     24  N   UNL     1      -0.211   0.938  -4.386  0.00  0.00    -0.218 N 
ATOM     25  H   UNL     1      -0.036   0.215  -5.010  0.00  0.00    +0.176 HD
BRANCH  24  26
ATOM     26  C   UNL     1      -0.447   2.183  -4.845  0.00  0.00    +0.147 C 
ATOM     27  S   UNL     1      -0.438   2.490  -6.529  0.00  0.00    -0.017 S 
BRANCH  26  28
ATOM     28  N   UNL     1      -0.689   3.186  -3.979  0.00  0.00    -0.339 N 
ATOM     29  H   UNL     1      -0.694   3.012  -3.024  0.00  0.00    +0.144 HD
ATOM     30  H   UNL     1      -0.859   4.082  -4.309  0.00  0.00    +0.144 HD
ENDBRANCH  26  28
ENDBRANCH  24  26
ENDBRANCH  11  24
TORSDOF 4
