REMARK  Name = ZINC21650975
REMARK  8 active torsions:
REMARK  status: ('A' for Active; 'I' for Inactive)
REMARK    1  A    between atoms: C_1  and  C_2
REMARK    2  A    between atoms: C_5  and  C_8
REMARK    3  A    between atoms: C_8  and  C_10
REMARK    4  A    between atoms: C_8  and  N_13
REMARK    5  A    between atoms: C_14  and  C_16
REMARK    6  A    between atoms: C_16  and  N_17
REMARK    7  A    between atoms: C_20  and  C_24
REMARK    8  A    between atoms: C_20  and  C_30
REMARK                            x       y       z     vdW  Elec       q    Type
REMARK                         _______ _______ _______ _____ _____    ______ ____
ROOT
ATOM      1  N   UNL     1       0.946   1.869  -0.620  0.00  0.00    -0.215 N 
ATOM      2  C   UNL     1      -0.243   1.246  -0.738  0.00  0.00    +0.256 C 
ATOM      3  O   UNL     1      -0.473   0.213  -1.331  0.00  0.00    -0.272 OA
ATOM      4  C   UNL     1      -1.235   2.107   0.018  0.00  0.00    +0.164 C 
ATOM      5  N   UNL     1      -0.411   3.216   0.530  0.00  0.00    -0.278 N 
ATOM      6  C   UNL     1       0.845   2.991   0.103  0.00  0.00    +0.310 C 
ATOM      7  O   UNL     1       1.783   3.724   0.347  0.00  0.00    -0.252 OA
ATOM      8  H   UNL     1      -0.872   4.011   1.135  0.00  0.00    +0.152 HD
ENDROOT
BRANCH   4   9
ATOM      9  C   UNL     1      -2.305   2.623  -0.909  0.00  0.00    -0.011 A 
ATOM     10  C   UNL     1      -2.957   1.753  -1.763  0.00  0.00    +0.006 A 
ATOM     11  C   UNL     1      -3.942   2.224  -2.610  0.00  0.00    +0.000 A 
ATOM     12  C   UNL     1      -4.268   3.568  -2.611  0.00  0.00    +0.000 A 
ATOM     13  C   UNL     1      -3.612   4.439  -1.760  0.00  0.00    +0.000 A 
ATOM     14  C   UNL     1      -2.631   3.966  -0.910  0.00  0.00    +0.006 A 
ENDBRANCH   4   9
BRANCH   4  15
ATOM     15  C   UNL     1      -1.846   1.335   1.159  0.00  0.00    -0.011 A 
ATOM     16  C   UNL     1      -2.405   0.091   0.930  0.00  0.00    +0.006 A 
ATOM     17  C   UNL     1      -2.962  -0.620   1.977  0.00  0.00    +0.000 A 
ATOM     18  C   UNL     1      -2.968  -0.082   3.251  0.00  0.00    +0.000 A 
ATOM     19  C   UNL     1      -2.415   1.164   3.478  0.00  0.00    +0.000 A 
ATOM     20  C   UNL     1      -1.854   1.872   2.432  0.00  0.00    +0.006 A 
ENDBRANCH   4  15
BRANCH   1  21
ATOM     21  C   UNL     1       2.194   1.379  -1.209  0.00  0.00    +0.213 C 
BRANCH  21  23
ATOM     22  N   UNL     1       3.436   1.634  -3.333  0.00  0.00    -0.307 N 
ATOM     23  C   UNL     1       2.353   1.949  -2.595  0.00  0.00    +0.231 C 
ATOM     24  O   UNL     1       1.507   2.692  -3.046  0.00  0.00    -0.274 OA
ATOM     25  H   UNL     1       4.204   0.961  -2.924  0.00  0.00    +0.149 HD
BRANCH  22  26
ATOM     26  C   UNL     1       3.591   2.188  -4.680  0.00  0.00    +0.106 C 
BRANCH  26  31
ATOM     27  C   UNL     1       6.951  -1.306  -7.826  0.00  0.00    +0.044 C 
ATOM     28  C   UNL     1       6.075  -0.394  -7.006  0.00  0.00    -0.050 A 
ATOM     29  C   UNL     1       4.965   0.198  -7.579  0.00  0.00    +0.004 A 
ATOM     30  C   UNL     1       4.161   1.033  -6.827  0.00  0.00    +0.006 A 
ATOM     31  C   UNL     1       4.467   1.277  -5.501  0.00  0.00    -0.027 A 
ATOM     32  C   UNL     1       5.580   0.689  -4.929  0.00  0.00    +0.006 A 
ATOM     33  C   UNL     1       6.381  -0.150  -5.680  0.00  0.00    +0.004 A 
ENDBRANCH  26  31
BRANCH  26  34
ATOM     34  C   UNL     1       4.236   3.572  -4.591  0.00  0.00    +0.014 C 
ATOM     35  C   UNL     1       4.769   4.018  -3.228  0.00  0.00    +0.006 C 
ATOM     36  C   UNL     1       3.495   4.648  -3.795  0.00  0.00    +0.006 C 
ENDBRANCH  26  34
ENDBRANCH  22  26
ENDBRANCH  21  23
ENDBRANCH   1  21
TORSDOF 7
