REMARK  Name = ZINC09805621
REMARK  13 active torsions:
REMARK  status: ('A' for Active; 'I' for Inactive)
REMARK    1  A    between atoms: C_4  and  C_7
REMARK    2  A    between atoms: C_10  and  C_12
REMARK    3  A    between atoms: C_12  and  O_13
REMARK    4  A    between atoms: O_13  and  C_14
REMARK    5  A    between atoms: C_14  and  C_16
REMARK    6  A    between atoms: C_16  and  C_18
REMARK    7  A    between atoms: C_16  and  N_31
REMARK    8  A    between atoms: C_18  and  C_19
REMARK    9  A    between atoms: C_19  and  C_20
REMARK   10  A    between atoms: C_20  and  C_21
REMARK   11  A    between atoms: C_21  and  N_22
REMARK   12  A    between atoms: C_23  and  C_25
REMARK   13  A    between atoms: C_32  and  C_34
REMARK                            x       y       z     vdW  Elec       q    Type
REMARK                         _______ _______ _______ _____ _____    ______ ____
ROOT
ATOM      1  C   UNL     1      -3.965  -6.277   0.006  0.00  0.00    +0.182 C 
ENDROOT
BRANCH   1   2
ATOM      2  N   UNL     1      -3.387  -6.751  -1.254  0.00  0.00    -0.298 N 
ATOM      3  C   UNL     1      -3.968  -6.427  -2.426  0.00  0.00    +0.245 C 
ATOM      4  O   UNL     1      -4.972  -5.742  -2.438  0.00  0.00    -0.270 OA
ATOM      5  H   UNL     1      -2.586  -7.298  -1.244  0.00  0.00    +0.150 HD
BRANCH   3   6
ATOM      6  C   UNL     1      -3.384  -6.905  -3.697  0.00  0.00    +0.037 A 
ATOM      7  C   UNL     1      -2.228  -7.687  -3.688  0.00  0.00    +0.013 A 
ATOM      8  C   UNL     1      -1.692  -8.134  -4.878  0.00  0.00    +0.001 A 
ATOM      9  C   UNL     1      -2.291  -7.800  -6.079  0.00  0.00    +0.000 A 
ATOM     10  C   UNL     1      -3.433  -7.020  -6.096  0.00  0.00    +0.001 A 
ATOM     11  C   UNL     1      -3.983  -6.571  -4.913  0.00  0.00    +0.013 A 
ENDBRANCH   3   6
ENDBRANCH   1   2
BRANCH   1  12
ATOM     12  C   UNL     1      -5.372  -6.800   0.141  0.00  0.00    +0.328 C 
ATOM     13  O   UNL     1      -5.974  -7.175  -0.838  0.00  0.00    -0.249 OA
BRANCH  12  14
ATOM     14  O   UNL     1      -5.958  -6.848   1.347  0.00  0.00    -0.455 OA
BRANCH  14  15
ATOM     15  C   UNL     1      -7.315  -7.362   1.402  0.00  0.00    +0.308 C 
BRANCH  15  19
ATOM     16  C   UNL     1      -8.241  -7.916   4.877  0.00  0.00    +0.228 A 
ATOM     17  N   UNL     1      -8.708  -6.703   4.696  0.00  0.00    -0.217 NA
ATOM     18  C   UNL     1      -8.443  -6.325   3.436  0.00  0.00    +0.160 A 
ATOM     19  C   UNL     1      -7.803  -7.341   2.827  0.00  0.00    +0.163 A 
ATOM     20  O   UNL     1      -7.676  -8.332   3.731  0.00  0.00    -0.437 OA
BRANCH  16  24
ATOM     21  C   UNL     1      -8.481 -10.153   8.480  0.00  0.00    +0.000 A 
ATOM     22  C   UNL     1      -9.015  -8.878   8.424  0.00  0.00    +0.001 A 
ATOM     23  C   UNL     1      -8.940  -8.146   7.257  0.00  0.00    +0.013 A 
ATOM     24  C   UNL     1      -8.324  -8.694   6.131  0.00  0.00    +0.037 A 
ATOM     25  C   UNL     1      -7.792  -9.983   6.193  0.00  0.00    +0.013 A 
ATOM     26  C   UNL     1      -7.868 -10.702   7.368  0.00  0.00    +0.001 A 
ENDBRANCH  16  24
ENDBRANCH  15  19
ENDBRANCH  14  15
ENDBRANCH  12  14
ENDBRANCH   1  12
BRANCH   1  27
ATOM     27  C   UNL     1      -3.986  -4.748   0.015  0.00  0.00    +0.034 C 
BRANCH  27  28
ATOM     28  C   UNL     1      -2.551  -4.218   0.004  0.00  0.00    +0.004 C 
BRANCH  28  29
ATOM     29  C   UNL     1      -2.571  -2.688   0.012  0.00  0.00    +0.019 C 
BRANCH  29  30
ATOM     30  C   UNL     1      -1.136  -2.159   0.001  0.00  0.00    +0.104 C 
BRANCH  30  31
ATOM     31  N   UNL     1      -1.156  -0.694   0.009  0.00  0.00    -0.311 N 
ATOM     32  C   UNL     1       0.002  -0.004   0.002  0.00  0.00    +0.244 C 
ATOM     33  O   UNL     1       1.063  -0.597  -0.011  0.00  0.00    -0.270 OA
ATOM     34  H   UNL     1      -2.002  -0.220   0.020  0.00  0.00    +0.149 HD
BRANCH  32  35
ATOM     35  C   UNL     1      -0.018   1.474   0.010  0.00  0.00    +0.037 A 
ATOM     36  C   UNL     1      -1.234   2.159   0.020  0.00  0.00    +0.013 A 
ATOM     37  C   UNL     1      -1.246   3.538   0.033  0.00  0.00    +0.001 A 
ATOM     38  C   UNL     1      -0.056   4.243   0.025  0.00  0.00    +0.000 A 
ATOM     39  C   UNL     1       1.154   3.571   0.010  0.00  0.00    +0.001 A 
ATOM     40  C   UNL     1       1.179   2.192   0.003  0.00  0.00    +0.013 A 
ENDBRANCH  32  35
ENDBRANCH  30  31
ENDBRANCH  29  30
ENDBRANCH  28  29
ENDBRANCH  27  28
ENDBRANCH   1  27
TORSDOF 13
