REMARK  Name = ZINC37522511
REMARK  6 active torsions:
REMARK  status: ('A' for Active; 'I' for Inactive)
REMARK    1  A    between atoms: C_1  and  C_2
REMARK    2  A    between atoms: N_6  and  C_16
REMARK    3  A    between atoms: N_12  and  C_13
REMARK    4  A    between atoms: C_13  and  C_14
REMARK    5  A    between atoms: C_13  and  C_15
REMARK    6  A    between atoms: C_19  and  C_22
REMARK                            x       y       z     vdW  Elec       q    Type
REMARK                         _______ _______ _______ _____ _____    ______ ____
ROOT
ATOM      1  C   UNL     1      -0.119   1.729   1.004  0.00  0.00    +0.038 C 
ATOM      2  C   UNL     1      -0.122   0.317   0.416  0.00  0.00    +0.161 C 
ATOM      3  C   UNL     1      -1.501  -0.273   0.527  0.00  0.00    +0.240 C 
ATOM      4  O   UNL     1      -2.448   0.400   0.178  0.00  0.00    -0.273 OA
ATOM      5  N   UNL     1      -1.731  -1.502   0.992  0.00  0.00    -0.268 N 
ATOM      6  C   UNL     1      -0.708  -2.387   1.530  0.00  0.00    +0.132 C 
ATOM      7  C   UNL     1       0.678  -1.988   1.018  0.00  0.00    +0.129 C 
ATOM      8  N   UNL     1       0.822  -0.529   1.161  0.00  0.00    -0.273 N 
ATOM      9  C   UNL     1       1.777   0.009   1.946  0.00  0.00    +0.303 C 
ATOM     10  O   UNL     1       1.814   1.211   2.121  0.00  0.00    -0.253 OA
ATOM     11  N   UNL     1       2.691  -0.787   2.537  0.00  0.00    -0.297 N 
ATOM     12  H   UNL     1       2.618  -1.751   2.457  0.00  0.00    +0.150 HD
ENDROOT
BRANCH   5  13
ATOM     13  C   UNL     1      -3.047  -1.973   0.961  0.00  0.00    +0.036 A 
ATOM     14  C   UNL     1      -3.521  -2.636  -0.164  0.00  0.00    +0.024 A 
ATOM     15  C   UNL     1      -4.818  -3.101  -0.197  0.00  0.00    +0.010 A 
ATOM     16  C   UNL     1      -5.655  -2.905   0.900  0.00  0.00    -0.018 A 
ATOM     17  C   UNL     1      -5.178  -2.240   2.028  0.00  0.00    +0.010 A 
ATOM     18  C   UNL     1      -3.879  -1.781   2.058  0.00  0.00    +0.024 A 
BRANCH  16  19
ATOM     19  C   UNL     1      -7.052  -3.404   0.867  0.00  0.00    -0.018 A 
ATOM     20  C   UNL     1      -7.529  -4.075  -0.258  0.00  0.00    +0.008 A 
ATOM     21  C   UNL     1      -8.829  -4.537  -0.283  0.00  0.00    +0.001 A 
ATOM     22  C   UNL     1      -9.659  -4.336   0.805  0.00  0.00    +0.000 A 
ATOM     23  C   UNL     1      -9.191  -3.671   1.924  0.00  0.00    +0.001 A 
ATOM     24  C   UNL     1      -7.891  -3.209   1.963  0.00  0.00    +0.008 A 
ENDBRANCH  16  19
ENDBRANCH   5  13
BRANCH  11  25
ATOM     25  C   UNL     1       3.793  -0.195   3.299  0.00  0.00    +0.068 C 
ATOM     26  C   UNL     1       3.330   0.087   4.729  0.00  0.00    +0.027 C 
ATOM     27  C   UNL     1       4.973  -1.169   3.328  0.00  0.00    +0.027 C 
ENDBRANCH  11  25
TORSDOF 3
