REMARK  Name = ZINC16326635
REMARK  8 active torsions:
REMARK  status: ('A' for Active; 'I' for Inactive)
REMARK    1  A    between atoms: C_1  and  C_2
REMARK    2  A    between atoms: C_3  and  C_8
REMARK    3  A    between atoms: C_4  and  N_7
REMARK    4  A    between atoms: C_8  and  O_10
REMARK    5  A    between atoms: O_10  and  C_11
REMARK    6  A    between atoms: C_11  and  C_13
REMARK    7  A    between atoms: C_11  and  C_19
REMARK    8  A    between atoms: C_19  and  C_21
REMARK                            x       y       z     vdW  Elec       q    Type
REMARK                         _______ _______ _______ _____ _____    ______ ____
ROOT
ATOM      1  C   UNL     1      -2.865   3.620  -1.056  0.00  0.00    +0.277 C 
ENDROOT
BRANCH   1   2
ATOM      2  C   UNL     1      -4.130   2.801  -1.028  0.00  0.00    +0.000 A 
ATOM      3  C   UNL     1      -4.213   1.631  -1.760  0.00  0.00    +0.008 A 
ATOM      4  C   UNL     1      -5.371   0.878  -1.731  0.00  0.00    +0.000 A 
ATOM      5  C   UNL     1      -6.450   1.299  -0.977  0.00  0.00    +0.000 A 
ATOM      6  C   UNL     1      -6.369   2.471  -0.248  0.00  0.00    +0.000 A 
ATOM      7  C   UNL     1      -5.209   3.222  -0.274  0.00  0.00    +0.008 A 
ENDBRANCH   1   2
BRANCH   1   8
ATOM      8  C   UNL     1      -2.885   4.534  -2.253  0.00  0.00    +0.210 C 
ATOM      9  O   UNL     1      -2.269   4.236  -3.256  0.00  0.00    -0.288 OA
BRANCH   8  10
ATOM     10  C   UNL     1      -3.625   5.743  -2.209  0.00  0.00    +0.047 A 
ATOM     11  C   UNL     1      -4.376   6.216  -1.155  0.00  0.00    +0.095 A 
ATOM     12  N   UNL     1      -4.929   7.398  -1.488  0.00  0.00    -0.360 N 
ATOM     13  H   UNL     1      -5.498   7.924  -0.904  0.00  0.00    +0.165 HD
ATOM     14  C   UNL     1      -4.578   7.756  -2.774  0.00  0.00    +0.047 A 
ATOM     15  C   UNL     1      -3.750   6.745  -3.286  0.00  0.00    +0.010 A 
ATOM     16  C   UNL     1      -3.243   6.845  -4.578  0.00  0.00    +0.011 A 
ATOM     17  C   UNL     1      -3.556   7.941  -5.352  0.00  0.00    +0.001 A 
ATOM     18  C   UNL     1      -4.374   8.941  -4.848  0.00  0.00    +0.002 A 
ATOM     19  C   UNL     1      -4.884   8.855  -3.570  0.00  0.00    +0.026 A 
ENDBRANCH   8  10
ENDBRANCH   1   8
BRANCH   1  20
ATOM     20  O   UNL     1      -1.717   2.735  -1.143  0.00  0.00    -0.445 OA
BRANCH  20  21
ATOM     21  C   UNL     1      -1.177   2.316   0.021  0.00  0.00    +0.347 C 
ATOM     22  O   UNL     1      -1.654   2.682   1.078  0.00  0.00    -0.245 OA
BRANCH  21  25
ATOM     23  C   UNL     1      -1.192  -0.924   0.008  0.00  0.00    +0.070 C 
ATOM     24  C   UNL     1       0.002  -0.004   0.002  0.00  0.00    +0.097 A 
ATOM     25  C   UNL     1      -0.017   1.422   0.010  0.00  0.00    +0.142 A 
ATOM     26  C   UNL     1       1.341   1.759  -0.001  0.00  0.00    +0.230 A 
ATOM     27  O   UNL     1       2.003   0.593  -0.014  0.00  0.00    -0.339 OA
ATOM     28  N   UNL     1       1.253  -0.353  -0.012  0.00  0.00    -0.081 NA
BRANCH  26  29
ATOM     29  N   UNL     1       1.882   3.018  -0.000  0.00  0.00    -0.327 N 
ATOM     30  H   UNL     1       1.302   3.795   0.009  0.00  0.00    +0.145 HD
ATOM     31  H   UNL     1       2.845   3.132  -0.009  0.00  0.00    +0.145 HD
ENDBRANCH  26  29
ENDBRANCH  21  25
ENDBRANCH  20  21
ENDBRANCH   1  20
TORSDOF 7
