REMARK  Name = ZINC35746091
REMARK  17 active torsions:
REMARK  status: ('A' for Active; 'I' for Inactive)
REMARK    1  A    between atoms: C_1  and  C_2
REMARK    2  A    between atoms: C_2  and  C_3
REMARK    3  A    between atoms: C_2  and  C_4
REMARK    4  A    between atoms: C_4  and  C_5
REMARK    5  A    between atoms: C_5  and  N_6
REMARK    6  A    between atoms: N_6  and  C_7
REMARK    7  A    between atoms: N_6  and  C_26
REMARK    8  A    between atoms: C_7  and  C_8
REMARK    9  A    between atoms: C_14  and  C_19
REMARK   10  A    between atoms: C_26  and  C_27
REMARK   11  A    between atoms: C_27  and  C_29
REMARK   12  A    between atoms: C_27  and  O_35
REMARK   13  A    between atoms: C_29  and  O_30
REMARK   14  A    between atoms: O_30  and  C_31
REMARK   15  A    between atoms: C_31  and  C_32
REMARK   16  A    between atoms: C_31  and  C_33
REMARK   17  A    between atoms: C_31  and  C_34
REMARK                            x       y       z     vdW  Elec       q    Type
REMARK                         _______ _______ _______ _____ _____    ______ ____
ROOT
ATOM      1  C   UNL     1      -3.566  -2.197  -1.175  0.00  0.00    -0.003 C 
ENDROOT
BRANCH   1   2
ATOM      2  C   UNL     1      -5.021  -2.510  -0.937  0.00  0.00    +0.094 A 
ATOM      3  N   UNL     1      -5.942  -2.151  -1.867  0.00  0.00    -0.312 N 
ATOM      4  H   UNL     1      -5.651  -1.696  -2.673  0.00  0.00    +0.170 HD
ATOM      5  C   UNL     1      -7.251  -2.413  -1.694  0.00  0.00    +0.260 A 
ATOM      6  O   UNL     1      -8.065  -2.084  -2.539  0.00  0.00    -0.267 OA
ATOM      7  C   UNL     1      -7.672  -3.084  -0.502  0.00  0.00    +0.080 A 
ATOM      8  C   UNL     1      -9.014  -3.475  -0.088  0.00  0.00    +0.006 A 
ATOM      9  C   UNL     1      -9.171  -4.110   1.099  0.00  0.00    +0.056 A 
ATOM     10  S   UNL     1      -7.508  -4.218   1.732  0.00  0.00    -0.076 S 
ATOM     11  C   UNL     1      -6.650  -3.417   0.402  0.00  0.00    +0.116 A 
ATOM     12  N   UNL     1      -5.374  -3.128   0.158  0.00  0.00    -0.229 NA
BRANCH   8  13
ATOM     13  C   UNL     1     -10.184  -3.184  -0.950  0.00  0.00    +0.019 A 
ATOM     14  C   UNL     1     -11.168  -2.296  -0.517  0.00  0.00    +0.011 A 
ATOM     15  C   UNL     1     -12.256  -2.028  -1.323  0.00  0.00    +0.001 A 
ATOM     16  C   UNL     1     -12.372  -2.638  -2.560  0.00  0.00    +0.003 A 
ATOM     17  C   UNL     1     -11.400  -3.521  -2.996  0.00  0.00    +0.039 A 
ATOM     18  C   UNL     1     -10.303  -3.793  -2.200  0.00  0.00    +0.131 A 
ATOM     19  F   UNL     1      -9.352  -4.650  -2.629  0.00  0.00    -0.205 F 
ENDBRANCH   8  13
ENDBRANCH   1   2
BRANCH   1  20
ATOM     20  N   UNL     1      -2.753  -2.813  -0.117  0.00  0.00    +0.386 N 
ATOM     21  H   UNL     1      -3.110  -2.537   0.785  0.00  0.00    -0.081 HD
BRANCH  20  22
ATOM     22  C   UNL     1      -1.359  -2.369  -0.250  0.00  0.00    -0.078 C 
BRANCH  22  23
ATOM     23  C   UNL     1      -1.277  -0.863   0.008  0.00  0.00    -0.016 C 
BRANCH  23  25
ATOM     24  C   UNL     1       0.265   1.099   0.134  0.00  0.00    +0.007 C 
ATOM     25  C   UNL     1       0.188  -0.423   0.001  0.00  0.00    -0.019 C 
ATOM     26  C   UNL     1       0.922  -1.076   1.174  0.00  0.00    +0.007 C 
ENDBRANCH  23  25
ENDBRANCH  22  23
ENDBRANCH  20  22
BRANCH  20  27
ATOM     27  C   UNL     1      -2.815  -4.275  -0.242  0.00  0.00    -0.044 C 
BRANCH  27  28
ATOM     28  C   UNL     1      -2.072  -4.919   0.931  0.00  0.00    +0.124 C 
BRANCH  28  29
ATOM     29  O   UNL     1      -2.752  -4.614   2.151  0.00  0.00    -0.391 OA
ATOM     30  H   UNL     1      -3.665  -4.932   2.182  0.00  0.00    +0.210 HD
ENDBRANCH  28  29
BRANCH  28  31
ATOM     31  C   UNL     1      -2.029  -6.436   0.737  0.00  0.00    +0.189 C 
BRANCH  31  32
ATOM     32  O   UNL     1      -1.236  -7.026   1.769  0.00  0.00    -0.372 OA
BRANCH  32  33
ATOM     33  C   UNL     1      -1.131  -8.448   1.680  0.00  0.00    +0.061 C 
ATOM     34  C   UNL     1      -0.489  -8.829   0.344  0.00  0.00    +0.041 C 
ATOM     35  C   UNL     1      -0.265  -8.968   2.829  0.00  0.00    +0.041 C 
ATOM     36  C   UNL     1      -2.526  -9.070   1.771  0.00  0.00    +0.041 C 
ENDBRANCH  32  33
ENDBRANCH  31  32
ENDBRANCH  28  31
ENDBRANCH  27  28
ENDBRANCH  20  27
ENDBRANCH   1  20
TORSDOF 12
