REMARK  Name = ZINC10543671
REMARK  6 active torsions:
REMARK  status: ('A' for Active; 'I' for Inactive)
REMARK    1  A    between atoms: C_1  and  C_2
REMARK    2  A    between atoms: C_2  and  C_4
REMARK    3  A    between atoms: C_2  and  O_13
REMARK    4  A    between atoms: N_9  and  C_10
REMARK    5  A    between atoms: O_13  and  C_14
REMARK    6  A    between atoms: C_14  and  C_16
REMARK                            x       y       z     vdW  Elec       q    Type
REMARK                         _______ _______ _______ _____ _____    ______ ____
ROOT
ATOM      1  C   UNL     1       2.023  -0.663   1.045  0.00  0.00    +0.341 C 
ATOM      2  O   UNL     1       2.580  -0.429  -0.008  0.00  0.00    -0.245 OA
ENDROOT
BRANCH   1   3
ATOM      3  C   UNL     1       2.803  -1.151   2.202  0.00  0.00    +0.073 A 
ATOM      4  C   UNL     1       3.001  -2.536   2.411  0.00  0.00    +0.015 A 
ATOM      5  C   UNL     1       2.476  -3.495   1.535  0.00  0.00    +0.011 A 
ATOM      6  C   UNL     1       2.687  -4.819   1.779  0.00  0.00    +0.001 A 
ATOM      7  C   UNL     1       3.418  -5.231   2.892  0.00  0.00    +0.002 A 
ATOM      8  C   UNL     1       3.944  -4.327   3.761  0.00  0.00    +0.028 A 
ATOM      9  C   UNL     1       3.752  -2.950   3.538  0.00  0.00    +0.072 A 
ATOM     10  N   UNL     1       4.268  -2.039   4.360  0.00  0.00    -0.251 NA
ATOM     11  C   UNL     1       4.105  -0.741   4.180  0.00  0.00    +0.046 A 
ATOM     12  C   UNL     1       3.369  -0.255   3.112  0.00  0.00    -0.012 A 
ATOM     13  C   UNL     1       3.107   1.212   2.878  0.00  0.00    +0.038 C 
ATOM     14  C   UNL     1       4.249   2.075   3.413  0.00  0.00    +0.005 C 
ATOM     15  C   UNL     1       3.927   2.465   4.855  0.00  0.00    +0.001 C 
ATOM     16  C   UNL     1       3.807   1.211   5.715  0.00  0.00    +0.006 C 
ATOM     17  C   UNL     1       4.778   0.169   5.176  0.00  0.00    +0.056 C 
ENDBRANCH   1   3
BRANCH   1  18
ATOM     18  O   UNL     1       0.693  -0.477   1.160  0.00  0.00    -0.449 OA
BRANCH  18  20
ATOM     19  C   UNL     1      -0.019   1.526   0.010  0.00  0.00    +0.062 C 
ATOM     20  C   UNL     1       0.002  -0.004   0.002  0.00  0.00    +0.259 C 
BRANCH  20  21
ATOM     21  C   UNL     1      -1.412  -0.526   0.013  0.00  0.00    +0.261 C 
ATOM     22  O   UNL     1      -1.818  -1.157   0.965  0.00  0.00    -0.271 OA
ATOM     23  N   UNL     1      -2.225  -0.290  -1.036  0.00  0.00    -0.237 N 
ATOM     24  C   UNL     1      -3.489  -0.757  -1.027  0.00  0.00    +0.306 C 
ATOM     25  O   UNL     1      -3.896  -1.390  -0.072  0.00  0.00    -0.252 OA
ATOM     26  N   UNL     1      -4.302  -0.522  -2.075  0.00  0.00    -0.296 N 
ATOM     27  H   UNL     1      -1.900   0.215  -1.798  0.00  0.00    +0.159 HD
ATOM     28  H   UNL     1      -3.977  -0.017  -2.837  0.00  0.00    +0.151 HD
BRANCH  26  29
ATOM     29  C   UNL     1      -5.677  -1.029  -2.065  0.00  0.00    +0.075 C 
ATOM     30  C   UNL     1      -6.202  -1.673  -3.350  0.00  0.00    +0.024 C 
ATOM     31  C   UNL     1      -6.707  -0.293  -2.924  0.00  0.00    +0.024 C 
ENDBRANCH  26  29
ENDBRANCH  20  21
ENDBRANCH  18  20
ENDBRANCH   1  18
TORSDOF 5
