REMARK  Name = ZINC44785581
REMARK  5 active torsions:
REMARK  status: ('A' for Active; 'I' for Inactive)
REMARK    1  A    between atoms: C_1  and  C_2
REMARK    2  A    between atoms: C_2  and  C_3
REMARK    3  A    between atoms: C_9  and  C_11
REMARK    4  A    between atoms: C_11  and  C_16
REMARK    5  A    between atoms: N_17  and  O_18
REMARK                            x       y       z     vdW  Elec       q    Type
REMARK                         _______ _______ _______ _____ _____    ______ ____
ROOT
ATOM      1  C   UNL     1      -0.802   1.079   4.284  0.00  0.00    +0.105 C 
ATOM      2  C   UNL     1      -1.249   2.484   4.738  0.00  0.00    +0.024 C 
ATOM      3  C   UNL     1      -2.717   2.590   4.256  0.00  0.00    +0.001 C 
ATOM      4  C   UNL     1      -3.261   1.161   4.502  0.00  0.00    +0.001 C 
ATOM      5  C   UNL     1      -2.081   0.238   4.134  0.00  0.00    +0.024 C 
ENDROOT
BRANCH   1  11
ATOM      6  C   UNL     1       1.032  -0.014   1.053  0.00  0.00    +0.076 C 
ATOM      7  C   UNL     1       1.266  -1.503   0.722  0.00  0.00    +0.024 C 
ATOM      8  C   UNL     1       1.140  -2.191   2.107  0.00  0.00    +0.021 C 
ATOM      9  C   UNL     1       0.034  -1.338   2.778  0.00  0.00    +0.108 C 
ATOM     10  N   UNL     1       0.293   0.043   2.323  0.00  0.00    -0.298 N 
ATOM     11  C   UNL     1      -0.084   1.168   2.962  0.00  0.00    +0.229 C 
ATOM     12  O   UNL     1       0.154   2.252   2.473  0.00  0.00    -0.275 OA
BRANCH   6  14
ATOM     13  C   UNL     1       0.102   2.146   0.208  0.00  0.00    +0.006 C 
ATOM     14  C   UNL     1       0.210   0.642  -0.058  0.00  0.00    +0.019 C 
ENDBRANCH   6  14
ENDBRANCH   1  11
BRANCH   1  15
ATOM     15  C   UNL     1       0.102   0.464   5.321  0.00  0.00    +0.147 C 
ATOM     16  N   UNL     1      -0.292  -0.570   5.989  0.00  0.00    -0.076 NA
ATOM     17  N   UNL     1       1.347   1.002   5.556  0.00  0.00    -0.343 N 
ATOM     18  H   UNL     1       1.613   1.823   5.112  0.00  0.00    +0.144 HD
ATOM     19  H   UNL     1       1.959   0.561   6.166  0.00  0.00    +0.144 HD
BRANCH  16  20
ATOM     20  O   UNL     1       0.558  -1.148   6.964  0.00  0.00    -0.408 OA
ATOM     21  H   UNL     1       0.177  -1.916   7.411  0.00  0.00    +0.328 HD
ENDBRANCH  16  20
ENDBRANCH   1  15
TORSDOF 4
