REMARK  Name = ZINC16328178
REMARK  9 active torsions:
REMARK  status: ('A' for Active; 'I' for Inactive)
REMARK    1  A    between atoms: C_1  and  C_2
REMARK    2  A    between atoms: C_2  and  C_3
REMARK    3  A    between atoms: C_7  and  C_28
REMARK    4  A    between atoms: C_8  and  N_9
REMARK    5  A    between atoms: C_13  and  S_15
REMARK    6  A    between atoms: S_15  and  C_16
REMARK    7  A    between atoms: C_16  and  C_17
REMARK    8  A    between atoms: N_19  and  C_20
REMARK    9  A    between atoms: C_20  and  C_26
REMARK                            x       y       z     vdW  Elec       q    Type
REMARK                         _______ _______ _______ _____ _____    ______ ____
ROOT
ATOM      1  N   UNL     1      -1.078  -0.897  -0.064  0.00  0.00    -0.292 N 
ATOM      2  C   UNL     1      -0.718  -0.190   1.077  0.00  0.00    +0.187 A 
ATOM      3  N   UNL     1      -0.125  -0.620   2.174  0.00  0.00    -0.125 NA
ATOM      4  N   UNL     1       0.144   0.260   3.197  0.00  0.00    -0.133 NA
ATOM      5  C   UNL     1      -0.194   1.530   3.076  0.00  0.00    +0.160 A 
ATOM      6  S   UNL     1      -0.934   1.543   1.450  0.00  0.00    -0.024 S 
ATOM      7  H   UNL     1      -1.502  -0.438  -0.806  0.00  0.00    +0.154 HD
ENDROOT
BRANCH   1  13
ATOM      8  C   UNL     1      -1.857  -3.178   0.074  0.00  0.00    -0.026 A 
ATOM      9  C   UNL     1      -1.609  -4.534  -0.012  0.00  0.00    +0.005 A 
ATOM     10  C   UNL     1      -0.335  -4.988  -0.301  0.00  0.00    +0.001 A 
ATOM     11  C   UNL     1       0.693  -4.087  -0.512  0.00  0.00    +0.005 A 
ATOM     12  C   UNL     1       0.450  -2.730  -0.434  0.00  0.00    -0.029 A 
ATOM     13  C   UNL     1      -0.829  -2.270  -0.144  0.00  0.00    +0.039 A 
ATOM     14  C   UNL     1       1.570  -1.749  -0.665  0.00  0.00    +0.045 C 
BRANCH   8  16
ATOM     15  C   UNL     1      -3.990  -2.374  -0.903  0.00  0.00    +0.009 C 
ATOM     16  C   UNL     1      -3.244  -2.684   0.396  0.00  0.00    +0.033 C 
ENDBRANCH   8  16
ENDBRANCH   1  13
BRANCH   5  17
ATOM     17  S   UNL     1       0.027   2.857   4.213  0.00  0.00    -0.088 S 
BRANCH  17  18
ATOM     18  C   UNL     1       0.845   2.084   5.636  0.00  0.00    +0.172 C 
BRANCH  18  19
ATOM     19  C   UNL     1       1.095   3.124   6.698  0.00  0.00    +0.224 C 
ATOM     20  O   UNL     1       0.755   4.274   6.513  0.00  0.00    -0.275 OA
ATOM     21  N   UNL     1       1.696   2.777   7.853  0.00  0.00    -0.297 N 
ATOM     22  H   UNL     1       1.968   1.858   8.001  0.00  0.00    +0.150 HD
BRANCH  21  23
ATOM     23  C   UNL     1       1.939   3.788   8.885  0.00  0.00    +0.121 C 
ATOM     24  C   UNL     1       2.837   4.890   8.318  0.00  0.00    +0.041 C 
ATOM     25  C   UNL     1       3.091   5.946   9.395  0.00  0.00    +0.003 C 
ATOM     26  C   UNL     1       3.780   5.294  10.596  0.00  0.00    +0.000 C 
ATOM     27  C   UNL     1       2.883   4.192  11.163  0.00  0.00    +0.003 C 
ATOM     28  C   UNL     1       2.629   3.136  10.085  0.00  0.00    +0.041 C 
BRANCH  23  29
ATOM     29  C   UNL     1       0.657   4.371   9.313  0.00  0.00    +0.088 C 
ATOM     30  N   UNL     1      -0.333   4.821   9.643  0.00  0.00    -0.194 NA
ENDBRANCH  23  29
ENDBRANCH  21  23
ENDBRANCH  18  19
ENDBRANCH  17  18
ENDBRANCH   5  17
TORSDOF 7
