REMARK  Name = ZINC09419148
REMARK  3 active torsions:
REMARK  status: ('A' for Active; 'I' for Inactive)
REMARK    1  A    between atoms: C_6  and  C_7
REMARK    2  A    between atoms: C_7  and  C_8
REMARK    3  A    between atoms: C_12  and  C_16
REMARK                            x       y       z     vdW  Elec       q    Type
REMARK                         _______ _______ _______ _____ _____    ______ ____
ROOT
ATOM      1  C   UNL     1       1.156   4.088   1.433  0.00  0.00    +0.223 C 
ATOM      2  O   UNL     1       1.176   3.295   2.351  0.00  0.00    -0.275 OA
ATOM      3  N   UNL     1       1.140   5.411   1.686  0.00  0.00    -0.266 N 
ATOM      4  C   UNL     1       1.145   5.869   3.002  0.00  0.00    +0.197 A 
ATOM      5  C   UNL     1       1.135   7.275   3.423  0.00  0.00    +0.156 A 
ATOM      6  N   UNL     1       1.141   7.311   4.729  0.00  0.00    -0.047 NA
ATOM      7  O   UNL     1       1.165   5.976   5.201  0.00  0.00    -0.240 OA
ATOM      8  N   UNL     1       1.166   5.122   4.071  0.00  0.00    -0.033 NA
ATOM      9  H   UNL     1       1.124   6.045   0.952  0.00  0.00    +0.156 HD
ENDROOT
BRANCH   5  10
ATOM     10  C   UNL     1       1.118   8.452   2.521  0.00  0.00    +0.007 A 
ATOM     11  C   UNL     1       1.801   8.415   1.306  0.00  0.00    +0.010 A 
ATOM     12  C   UNL     1       1.778   9.516   0.478  0.00  0.00    +0.004 A 
ATOM     13  C   UNL     1       1.082  10.663   0.842  0.00  0.00    -0.044 A 
ATOM     14  C   UNL     1       0.402  10.703   2.039  0.00  0.00    -0.044 A 
ATOM     15  C   UNL     1       0.416   9.598   2.877  0.00  0.00    +0.014 A 
ATOM     16  C   UNL     1      -0.380  11.910   2.488  0.00  0.00    +0.035 C 
ATOM     17  C   UNL     1       0.047  13.149   1.703  0.00  0.00    +0.005 C 
ATOM     18  C   UNL     1      -0.008  12.815   0.207  0.00  0.00    +0.005 C 
ATOM     19  C   UNL     1       1.116  11.832  -0.109  0.00  0.00    +0.035 C 
ENDBRANCH   5  10
BRANCH   1  20
ATOM     20  C   UNL     1       1.150   3.592   0.010  0.00  0.00    +0.131 C 
BRANCH  20  26
ATOM     21  C   UNL     1      -0.017   1.378   0.010  0.00  0.00    +0.005 A 
ATOM     22  C   UNL     1       0.002  -0.004   0.002  0.00  0.00    +0.020 A 
ATOM     23  C   UNL     1       1.210  -0.679  -0.013  0.00  0.00    +0.041 A 
ATOM     24  C   UNL     1       2.398   0.030  -0.021  0.00  0.00    +0.020 A 
ATOM     25  C   UNL     1       2.378   1.412  -0.013  0.00  0.00    +0.005 A 
ATOM     26  C   UNL     1       1.171   2.086   0.002  0.00  0.00    -0.039 A 
ATOM     27 CL   UNL     1       1.234  -2.415  -0.022  0.00  0.00    -0.084 Cl
ENDBRANCH  20  26
ENDBRANCH   1  20
TORSDOF 3
