REMARK  Name = ZINC63557092
REMARK  10 active torsions:
REMARK  status: ('A' for Active; 'I' for Inactive)
REMARK    1  A    between atoms: C_1  and  C_2
REMARK    2  A    between atoms: C_2  and  C_3
REMARK    3  A    between atoms: C_3  and  C_4
REMARK    4  A    between atoms: C_3  and  C_6
REMARK    5  A    between atoms: C_4  and  C_5
REMARK    6  A    between atoms: C_10  and  N_13
REMARK    7  A    between atoms: C_14  and  C_16
REMARK    8  A    between atoms: N_21  and  C_23
REMARK    9  A    between atoms: C_23  and  C_24
REMARK   10  A    between atoms: C_24  and  C_25
REMARK                            x       y       z     vdW  Elec       q    Type
REMARK                         _______ _______ _______ _____ _____    ______ ____
ROOT
ATOM      1  C   UNL     1      -0.193  -7.489  -4.807  0.00  0.00    +0.101 C 
ATOM      2  C   UNL     1       0.388  -8.373  -3.679  0.00  0.00    +0.110 C 
ATOM      3  C   UNL     1       0.668  -9.698  -4.354  0.00  0.00    +0.216 C 
ATOM      4  O   UNL     1       0.865 -10.745  -3.774  0.00  0.00    -0.276 OA
ATOM      5  N   UNL     1       0.667  -9.546  -5.690  0.00  0.00    -0.300 N 
ATOM      6  C   UNL     1       0.405  -8.152  -6.068  0.00  0.00    +0.121 C 
ENDROOT
BRANCH   1   8
ATOM      7  N   UNL     1      -0.084  -5.333  -3.599  0.00  0.00    -0.290 N 
ATOM      8  C   UNL     1       0.279  -6.064  -4.672  0.00  0.00    +0.220 C 
ATOM      9  O   UNL     1       0.985  -5.575  -5.529  0.00  0.00    -0.275 OA
ATOM     10  H   UNL     1      -0.648  -5.724  -2.914  0.00  0.00    +0.151 HD
BRANCH   7  14
ATOM     11  C   UNL     1       1.083  -2.228  -1.399  0.00  0.00    +0.133 C 
ATOM     12  N   UNL     1       2.091  -2.588  -2.435  0.00  0.00    -0.241 NA
ATOM     13  N   UNL     1       1.808  -3.885  -3.038  0.00  0.00    -0.227 NA
ATOM     14  C   UNL     1       0.375  -3.948  -3.468  0.00  0.00    +0.216 C 
ATOM     15  S   UNL     1      -0.410  -3.111  -2.021  0.00  0.00    -0.102 S 
ATOM     16  H   UNL     1       3.025  -2.562  -2.055  0.00  0.00    +0.142 HD
ATOM     17  H   UNL     1       2.028  -4.636  -2.402  0.00  0.00    +0.143 HD
BRANCH  11  18
ATOM     18  C   UNL     1       0.850  -0.717  -1.360  0.00  0.00    +0.017 C 
BRANCH  18  20
ATOM     19  C   UNL     1      -0.475   1.111  -0.290  0.00  0.00    +0.004 C 
ATOM     20  C   UNL     1      -0.147  -0.382  -0.249  0.00  0.00    +0.002 C 
ENDBRANCH  18  20
BRANCH  18  21
ATOM     21  C   UNL     1       2.176  -0.004  -1.086  0.00  0.00    +0.002 C 
ATOM     22  C   UNL     1       2.723  -0.448   0.272  0.00  0.00    +0.004 C 
ENDBRANCH  18  21
ENDBRANCH  11  18
ENDBRANCH   7  14
ENDBRANCH   1   8
BRANCH   5  23
ATOM     23  C   UNL     1       0.897 -10.633  -6.646  0.00  0.00    +0.112 C 
BRANCH  23  24
ATOM     24  C   UNL     1      -0.439 -11.284  -7.008  0.00  0.00    +0.052 C 
BRANCH  24  25
ATOM     25  C   UNL     1      -0.203 -12.401  -7.992  0.00  0.00    -0.040 C 
ATOM     26  C   UNL     1      -0.057 -13.716  -7.709  0.00  0.00    +0.000 A 
ATOM     27  C   UNL     1      -0.073 -14.469  -6.450  0.00  0.00    +0.030 A 
ATOM     28  C   UNL     1       0.106 -15.810  -6.485  0.00  0.00    +0.042 A 
ATOM     29  C   UNL     1       0.307 -16.495  -7.692  0.00  0.00    +0.022 A 
ATOM     30  C   UNL     1       0.335 -15.871  -8.889  0.00  0.00    +0.027 A 
ATOM     31  C   UNL     1       0.157 -14.462  -8.969  0.00  0.00    +0.043 A 
ATOM     32  N   UNL     1       0.143 -13.642  -9.991  0.00  0.00    -0.380 N 
ATOM     33  C   UNL     1      -0.087 -12.280  -9.495  0.00  0.00    +0.144 C 
ATOM     34 CL   UNL     1       0.087 -16.705  -4.998  0.00  0.00    -0.084 Cl
ATOM     35  H   UNL     1       0.262 -13.893 -10.921  0.00  0.00    +0.160 HD
ENDBRANCH  24  25
ENDBRANCH  23  24
ENDBRANCH   5  23
TORSDOF 8
