REMARK  Name = ZINC20821111
REMARK  6 active torsions:
REMARK  status: ('A' for Active; 'I' for Inactive)
REMARK    1  A    between atoms: C_4  and  C_7
REMARK    2  A    between atoms: C_9  and  C_17
REMARK    3  A    between atoms: C_17  and  O_19
REMARK    4  A    between atoms: O_19  and  C_20
REMARK    5  A    between atoms: C_20  and  C_21
REMARK    6  A    between atoms: C_21  and  C_23
REMARK                            x       y       z     vdW  Elec       q    Type
REMARK                         _______ _______ _______ _____ _____    ______ ____
ROOT
ATOM      1  C   UNL     1      -4.068   7.622   0.078  0.00  0.00    +0.340 C 
ATOM      2  O   UNL     1      -3.109   8.367   0.060  0.00  0.00    -0.245 OA
ENDROOT
BRANCH   1   5
ATOM      3  C   UNL     1      -7.833   7.931   0.017  0.00  0.00    +0.072 A 
ATOM      4  C   UNL     1      -6.552   7.358  -0.002  0.00  0.00    +0.044 A 
ATOM      5  C   UNL     1      -5.437   8.179   0.094  0.00  0.00    +0.070 A 
ATOM      6  C   UNL     1      -5.672   9.618   0.217  0.00  0.00    +0.014 A 
ATOM      7  C   UNL     1      -4.612  10.526   0.313  0.00  0.00    +0.011 A 
ATOM      8  C   UNL     1      -4.875  11.860   0.421  0.00  0.00    +0.001 A 
ATOM      9  C   UNL     1      -6.186  12.330   0.430  0.00  0.00    +0.002 A 
ATOM     10  C   UNL     1      -7.240  11.475   0.333  0.00  0.00    +0.028 A 
ATOM     11  C   UNL     1      -7.008  10.091   0.220  0.00  0.00    +0.072 A 
ATOM     12  N   UNL     1      -8.021   9.229   0.123  0.00  0.00    -0.247 NA
BRANCH   3  16
ATOM     13  C   UNL     1     -11.224   5.383  -0.280  0.00  0.00    +0.000 A 
ATOM     14  C   UNL     1     -11.397   6.751  -0.166  0.00  0.00    +0.001 A 
ATOM     15  C   UNL     1     -10.300   7.583  -0.070  0.00  0.00    +0.010 A 
ATOM     16  C   UNL     1      -9.015   7.042  -0.086  0.00  0.00    +0.000 A 
ATOM     17  C   UNL     1      -8.847   5.663  -0.205  0.00  0.00    +0.010 A 
ATOM     18  C   UNL     1      -9.951   4.841  -0.296  0.00  0.00    +0.001 A 
ENDBRANCH   3  16
ENDBRANCH   1   5
BRANCH   1  19
ATOM     19  O   UNL     1      -3.884   6.287   0.084  0.00  0.00    -0.453 OA
BRANCH  19  20
ATOM     20  C   UNL     1      -2.512   5.811   0.067  0.00  0.00    +0.311 C 
BRANCH  20  21
ATOM     21  C   UNL     1      -2.504   4.304   0.077  0.00  0.00    +0.200 C 
ATOM     22  O   UNL     1      -3.551   3.692   0.095  0.00  0.00    -0.288 OA
BRANCH  21  23
ATOM     23  C   UNL     1      -1.228   3.577   0.063  0.00  0.00    +0.021 A 
ATOM     24  C   UNL     1      -0.018   4.282   0.042  0.00  0.00    +0.013 A 
ATOM     25  C   UNL     1       1.168   3.604   0.030  0.00  0.00    +0.024 A 
ATOM     26  C   UNL     1       1.180   2.212   0.037  0.00  0.00    +0.037 A 
ATOM     27  C   UNL     1      -0.018   1.503   0.058  0.00  0.00    -0.025 A 
ATOM     28  C   UNL     1      -1.217   2.176   0.065  0.00  0.00    +0.017 A 
ATOM     29  C   UNL     1       0.003  -0.004   0.065  0.00  0.00    +0.046 C 
ATOM     30  C   UNL     1       1.195  -0.502  -0.753  0.00  0.00    +0.101 C 
ATOM     31  C   UNL     1       2.442   0.232  -0.339  0.00  0.00    +0.218 C 
ATOM     32  O   UNL     1       3.505  -0.352  -0.332  0.00  0.00    -0.275 OA
ATOM     33  N   UNL     1       2.392   1.526   0.024  0.00  0.00    -0.285 N 
ATOM     34  H   UNL     1       3.320   2.042   0.311  0.00  0.00    +0.155 HD
ENDBRANCH  21  23
ENDBRANCH  20  21
ENDBRANCH  19  20
ENDBRANCH   1  19
TORSDOF 6
