REMARK  Name = ZINC55036425
REMARK  11 active torsions:
REMARK  status: ('A' for Active; 'I' for Inactive)
REMARK    1  A    between atoms: C_1  and  C_2
REMARK    2  A    between atoms: C_2  and  C_3
REMARK    3  A    between atoms: C_2  and  C_4
REMARK    4  A    between atoms: C_4  and  C_5
REMARK    5  A    between atoms: C_5  and  C_6
REMARK    6  A    between atoms: C_6  and  C_8
REMARK    7  A    between atoms: C_6  and  N_14
REMARK    8  A    between atoms: N_14  and  C_15
REMARK    9  A    between atoms: N_14  and  C_16
REMARK   10  A    between atoms: C_16  and  C_17
REMARK   11  A    between atoms: N_21  and  C_22
REMARK                            x       y       z     vdW  Elec       q    Type
REMARK                         _______ _______ _______ _____ _____    ______ ____
ROOT
ATOM      1  C   UNL     1       3.166  -0.896  -2.643  0.00  0.00    +0.087 C 
ENDROOT
BRANCH   1   2
ATOM      2  C   UNL     1       4.649  -0.648  -2.736  0.00  0.00    -0.030 A 
ATOM      3  C   UNL     1       5.517  -1.328  -1.901  0.00  0.00    +0.005 A 
ATOM      4  C   UNL     1       6.878  -1.101  -1.986  0.00  0.00    +0.000 A 
ATOM      5  C   UNL     1       7.371  -0.195  -2.906  0.00  0.00    +0.000 A 
ATOM      6  C   UNL     1       6.504   0.485  -3.741  0.00  0.00    +0.000 A 
ATOM      7  C   UNL     1       5.143   0.254  -3.659  0.00  0.00    +0.005 A 
ENDBRANCH   1   2
BRANCH   1   8
ATOM      8  N   UNL     1       2.926  -2.233  -2.083  0.00  0.00    -0.291 NA
ATOM      9  C   UNL     1       2.911  -2.194  -0.615  0.00  0.00    +0.106 C 
BRANCH   8  10
ATOM     10  C   UNL     1       1.680  -2.808  -2.607  0.00  0.00    +0.159 C 
BRANCH  10  11
ATOM     11  C   UNL     1       1.663  -4.292  -2.346  0.00  0.00    +0.124 A 
ATOM     12  N   UNL     1       2.131  -5.211  -3.146  0.00  0.00    -0.239 NA
ATOM     13  C   UNL     1       1.946  -6.417  -2.590  0.00  0.00    +0.130 A 
ATOM     14  C   UNL     1       1.341  -6.239  -1.400  0.00  0.00    +0.106 A 
ATOM     15  N   UNL     1       1.166  -4.891  -1.243  0.00  0.00    -0.336 N 
ATOM     16  C   UNL     1       0.551  -4.223  -0.093  0.00  0.00    +0.150 C 
ENDBRANCH  10  11
ENDBRANCH   8  10
ENDBRANCH   1   8
BRANCH   1  17
ATOM     17  C   UNL     1       2.528   0.158  -1.736  0.00  0.00    +0.024 C 
BRANCH  17  18
ATOM     18  C   UNL     1       1.007  -0.001  -1.760  0.00  0.00    +0.005 C 
BRANCH  18  20
ATOM     19  C   UNL     1       0.641   2.469  -1.682  0.00  0.00    +0.007 C 
ATOM     20  C   UNL     1       0.362   1.142  -0.974  0.00  0.00    -0.017 C 
ATOM     21  C   UNL     1      -1.149   0.916  -0.891  0.00  0.00    +0.007 C 
ENDBRANCH  18  20
ENDBRANCH  17  18
ENDBRANCH   1  17
TORSDOF 7
