REMARK  Name = ZINC09783038
REMARK  12 active torsions:
REMARK  status: ('A' for Active; 'I' for Inactive)
REMARK    1  A    between atoms: C_1  and  C_2
REMARK    2  A    between atoms: C_2  and  C_3
REMARK    3  A    between atoms: C_3  and  C_5
REMARK    4  A    between atoms: C_3  and  O_6
REMARK    5  A    between atoms: O_6  and  C_7
REMARK    6  A    between atoms: C_7  and  C_9
REMARK    7  A    between atoms: C_9  and  C_10
REMARK    8  A    between atoms: C_18  and  C_20
REMARK    9  A    between atoms: C_25  and  O_26
REMARK   10  A    between atoms: O_26  and  C_27
REMARK   11  A    between atoms: C_27  and  C_28
REMARK   12  A    between atoms: C_28  and  C_29
REMARK                            x       y       z     vdW  Elec       q    Type
REMARK                         _______ _______ _______ _____ _____    ______ ____
ROOT
ATOM      1  C   UNL     1       0.097   0.242  -0.068  0.00  0.00    +0.173 C 
ATOM      2  C   UNL     1      -1.377  -0.059  -0.038  0.00  0.00    +0.234 C 
ATOM      3  O   UNL     1      -1.977   0.091   1.005  0.00  0.00    -0.274 OA
ATOM      4  N   UNL     1      -2.053  -0.484  -1.106  0.00  0.00    -0.312 N 
ATOM      5  C   UNL     1      -1.453  -0.795  -2.396  0.00  0.00    +0.123 C 
ATOM      6  C   UNL     1      -0.105  -0.088  -2.551  0.00  0.00    +0.127 C 
ATOM      7  N   UNL     1       0.667  -0.292  -1.314  0.00  0.00    -0.284 N 
ATOM      8  C   UNL     1       1.847  -0.942  -1.323  0.00  0.00    +0.251 C 
ATOM      9  O   UNL     1       2.487  -1.055  -0.295  0.00  0.00    -0.270 OA
ATOM     10  H   UNL     1      -3.013  -0.594  -1.017  0.00  0.00    +0.149 HD
ENDROOT
BRANCH   8  11
ATOM     11  C   UNL     1       2.364  -1.516  -2.580  0.00  0.00    +0.080 A 
ATOM     12  C   UNL     1       2.505  -0.712  -3.714  0.00  0.00    +0.032 A 
ATOM     13  C   UNL     1       2.992  -1.254  -4.884  0.00  0.00    +0.019 A 
ATOM     14  C   UNL     1       3.333  -2.596  -4.944  0.00  0.00    +0.019 A 
ATOM     15  C   UNL     1       3.194  -3.402  -3.833  0.00  0.00    +0.047 A 
ATOM     16  C   UNL     1       2.710  -2.873  -2.646  0.00  0.00    +0.133 A 
ATOM     17 BR   UNL     1       3.189  -0.163  -6.416  0.00  0.00    -0.050 Br
BRANCH  16  18
ATOM     18  O   UNL     1       2.572  -3.664  -1.552  0.00  0.00    -0.491 OA
BRANCH  18  19
ATOM     19  C   UNL     1       2.945  -5.036  -1.694  0.00  0.00    +0.233 C 
BRANCH  19  20
ATOM     20  C   UNL     1       2.721  -5.765  -0.367  0.00  0.00    +0.076 C 
BRANCH  20  21
ATOM     21  C   UNL     1       3.114  -7.212  -0.517  0.00  0.00    -0.044 A 
ATOM     22  C   UNL     1       2.176  -8.146  -0.915  0.00  0.00    +0.004 A 
ATOM     23  C   UNL     1       2.538  -9.472  -1.057  0.00  0.00    +0.000 A 
ATOM     24  C   UNL     1       3.836  -9.867  -0.790  0.00  0.00    +0.000 A 
ATOM     25  C   UNL     1       4.772  -8.934  -0.386  0.00  0.00    +0.000 A 
ATOM     26  C   UNL     1       4.412  -7.607  -0.249  0.00  0.00    +0.004 A 
ENDBRANCH  20  21
ENDBRANCH  19  20
ENDBRANCH  18  19
ENDBRANCH  16  18
ENDBRANCH   8  11
BRANCH   1  27
ATOM     27  C   UNL     1       0.312   1.756  -0.013  0.00  0.00    +0.152 C 
BRANCH  27  28
ATOM     28  C   UNL     1       1.788   2.051   0.066  0.00  0.00    +0.310 C 
ATOM     29  O   UNL     1       2.586   1.144   0.077  0.00  0.00    -0.251 OA
BRANCH  28  30
ATOM     30  O   UNL     1       2.215   3.322   0.123  0.00  0.00    -0.462 OA
BRANCH  30  31
ATOM     31  C   UNL     1       3.650   3.532   0.198  0.00  0.00    +0.173 C 
ATOM     32  C   UNL     1       4.085   3.563   1.665  0.00  0.00    +0.052 C 
BRANCH  31  34
ATOM     33  C   UNL     1       3.686   4.786  -1.962  0.00  0.00    +0.007 C 
ATOM     34  C   UNL     1       4.007   4.862  -0.468  0.00  0.00    +0.041 C 
ENDBRANCH  31  34
ENDBRANCH  30  31
ENDBRANCH  28  30
ENDBRANCH  27  28
ENDBRANCH   1  27
TORSDOF 10
