REMARK  Name = ZINC34734788
REMARK  8 active torsions:
REMARK  status: ('A' for Active; 'I' for Inactive)
REMARK    1  A    between atoms: C_1  and  C_2
REMARK    2  A    between atoms: C_2  and  C_3
REMARK    3  A    between atoms: C_2  and  C_4
REMARK    4  A    between atoms: C_4  and  N_5
REMARK    5  A    between atoms: C_20  and  C_22
REMARK    6  A    between atoms: C_20  and  C_23
REMARK    7  A    between atoms: N_26  and  C_27
REMARK    8  A    between atoms: C_27  and  C_28
REMARK                            x       y       z     vdW  Elec       q    Type
REMARK                         _______ _______ _______ _____ _____    ______ ____
ROOT
ATOM      1  N   UNL     1      -1.735   0.365   2.595  0.00  0.00    +0.382 N 
ATOM      2  C   UNL     1      -2.962   0.481   3.393  0.00  0.00    -0.060 C 
ATOM      3  C   UNL     1      -2.596   0.609   4.875  0.00  0.00    +0.089 C 
ATOM      4  N   UNL     1      -1.738  -0.527   5.244  0.00  0.00    -0.304 N 
ATOM      5  C   UNL     1      -0.570  -0.817   4.397  0.00  0.00    +0.089 C 
ATOM      6  C   UNL     1      -1.032  -0.878   2.937  0.00  0.00    -0.060 C 
ATOM      7  C   UNL     1      -2.018  -1.295   6.346  0.00  0.00    +0.202 A 
ATOM      8  N   UNL     1      -3.237  -1.764   6.519  0.00  0.00    -0.208 NA
ATOM      9  C   UNL     1      -3.536  -2.509   7.576  0.00  0.00    +0.118 A 
ATOM     10  C   UNL     1      -2.582  -2.834   8.556  0.00  0.00    +0.076 A 
ATOM     11  C   UNL     1      -3.062  -3.661   9.661  0.00  0.00    -0.018 A 
ATOM     12  C   UNL     1      -4.361  -4.029   9.634  0.00  0.00    +0.021 A 
ATOM     13  S   UNL     1      -5.013  -3.307   8.156  0.00  0.00    -0.071 S 
ATOM     14  C   UNL     1      -5.064  -4.871  10.654  0.00  0.00    +0.203 C 
ATOM     15  O   UNL     1      -4.066  -5.480  11.488  0.00  0.00    -0.368 OA
ATOM     16  C   UNL     1      -3.083  -4.558  11.967  0.00  0.00    +0.068 C 
ATOM     17  C   UNL     1      -2.174  -4.113  10.818  0.00  0.00    +0.071 C 
ATOM     18  C   UNL     1      -3.783  -3.335  12.564  0.00  0.00    +0.041 C 
ATOM     19  C   UNL     1      -2.239  -5.234  13.049  0.00  0.00    +0.041 C 
ATOM     20  C   UNL     1      -1.267  -2.312   8.341  0.00  0.00    +0.264 A 
ATOM     21  O   UNL     1      -0.373  -2.541   9.138  0.00  0.00    -0.267 OA
ATOM     22  N   UNL     1      -1.030  -1.567   7.246  0.00  0.00    -0.276 N 
ATOM     23  H   UNL     1      -1.135   1.153   2.788  0.00  0.00    -0.082 HD
ENDROOT
BRANCH   1  24
ATOM     24  C   UNL     1      -2.080   0.353   1.167  0.00  0.00    -0.076 C 
BRANCH  24  26
ATOM     25  C   UNL     1      -1.657   2.804   0.936  0.00  0.00    +0.005 C 
ATOM     26  C   UNL     1      -2.701   1.697   0.781  0.00  0.00    -0.034 C 
ATOM     27  C   UNL     1      -3.175   1.641  -0.672  0.00  0.00    +0.005 C 
ENDBRANCH  24  26
ENDBRANCH   1  24
BRANCH  22  28
ATOM     28  C   UNL     1       0.315  -1.033   7.017  0.00  0.00    +0.163 C 
BRANCH  28  29
ATOM     29  C   UNL     1       0.444   0.310   7.688  0.00  0.00    -0.027 A 
ATOM     30  C   UNL     1       0.217   1.467   6.966  0.00  0.00    +0.007 A 
ATOM     31  C   UNL     1       0.335   2.699   7.581  0.00  0.00    +0.020 A 
ATOM     32  C   UNL     1       0.679   2.775   8.919  0.00  0.00    +0.041 A 
ATOM     33  C   UNL     1       0.905   1.617   9.641  0.00  0.00    +0.020 A 
ATOM     34  C   UNL     1       0.782   0.385   9.026  0.00  0.00    +0.007 A 
ATOM     35 CL   UNL     1       0.827   4.322   9.691  0.00  0.00    -0.084 Cl
ENDBRANCH  28  29
ENDBRANCH  22  28
TORSDOF 4
