REMARK  Name = ZINC45747941
REMARK  13 active torsions:
REMARK  status: ('A' for Active; 'I' for Inactive)
REMARK    1  A    between atoms: C_1  and  C_2
REMARK    2  A    between atoms: C_2  and  N_3
REMARK    3  A    between atoms: C_5  and  C_14
REMARK    4  A    between atoms: C_14  and  N_15
REMARK    5  A    between atoms: N_15  and  C_16
REMARK    6  A    between atoms: N_15  and  C_17
REMARK    7  A    between atoms: C_17  and  C_18
REMARK    8  A    between atoms: N_20  and  C_21
REMARK    9  A    between atoms: C_26  and  C_27
REMARK   10  A    between atoms: N_29  and  C_30
REMARK   11  A    between atoms: C_30  and  C_31
REMARK   12  A    between atoms: C_31  and  C_32
REMARK   13  A    between atoms: C_31  and  C_33
REMARK                            x       y       z     vdW  Elec       q    Type
REMARK                         _______ _______ _______ _____ _____    ______ ____
ROOT
ATOM      1  C   UNL     1      -5.847  -5.258   3.289  0.00  0.00    +0.201 C 
ATOM      2  O   UNL     1      -5.670  -5.931   2.296  0.00  0.00    -0.278 OA
ATOM      3  N   UNL     1      -6.697  -5.680   4.246  0.00  0.00    -0.286 N 
ATOM      4  H   UNL     1      -6.778  -5.184   5.076  0.00  0.00    +0.155 HD
ENDROOT
BRANCH   3   5
ATOM      5  C   UNL     1      -7.458  -6.829   4.044  0.00  0.00    +0.045 A 
ATOM      6  C   UNL     1      -7.764  -7.245   2.756  0.00  0.00    +0.024 A 
ATOM      7  C   UNL     1      -8.520  -8.383   2.558  0.00  0.00    +0.002 A 
ATOM      8  C   UNL     1      -8.977  -9.118   3.639  0.00  0.00    +0.001 A 
ATOM      9  C   UNL     1      -8.682  -8.721   4.925  0.00  0.00    +0.015 A 
ATOM     10  C   UNL     1      -7.915  -7.574   5.141  0.00  0.00    +0.058 A 
BRANCH  10  11
ATOM     11  C   UNL     1      -7.590  -7.146   6.516  0.00  0.00    +0.246 C 
ATOM     12  O   UNL     1      -7.004  -6.098   6.703  0.00  0.00    -0.270 OA
ATOM     13  N   UNL     1      -7.945  -7.917   7.563  0.00  0.00    -0.311 N 
ATOM     14  H   UNL     1      -8.413  -8.753   7.413  0.00  0.00    +0.149 HD
BRANCH  13  15
ATOM     15  C   UNL     1      -7.623  -7.492   8.927  0.00  0.00    +0.107 C 
BRANCH  15  16
ATOM     16  C   UNL     1      -8.131  -8.538   9.921  0.00  0.00    -0.000 C 
ATOM     17  C   UNL     1      -7.370  -9.849   9.715  0.00  0.00    +0.009 C 
ATOM     18  C   UNL     1      -7.907  -8.037  11.349  0.00  0.00    +0.009 C 
ENDBRANCH  15  16
ENDBRANCH  13  15
ENDBRANCH  10  11
ENDBRANCH   3   5
BRANCH   1  19
ATOM     19  C   UNL     1      -5.116  -3.950   3.454  0.00  0.00    +0.019 C 
BRANCH  19  20
ATOM     20  N   UNL     1      -4.258  -3.719   2.284  0.00  0.00    +0.386 N 
ATOM     21  C   UNL     1      -3.209  -4.746   2.235  0.00  0.00    -0.095 C 
ATOM     22  H   UNL     1      -4.814  -3.766   1.444  0.00  0.00    -0.081 HD
BRANCH  20  23
ATOM     23  C   UNL     1      -3.638  -2.391   2.387  0.00  0.00    -0.032 C 
BRANCH  23  26
ATOM     24  N   UNL     1      -1.383  -0.508   0.004  0.00  0.00    -0.324 N 
ATOM     25  C   UNL     1      -2.094  -0.768   1.267  0.00  0.00    +0.147 C 
ATOM     26  C   UNL     1      -2.844  -2.098   1.112  0.00  0.00    +0.174 C 
ATOM     27  O   UNL     1      -3.737  -1.997   0.001  0.00  0.00    -0.487 OA
ATOM     28  C   UNL     1      -3.239  -1.521  -1.171  0.00  0.00    +0.142 A 
ATOM     29  C   UNL     1      -2.067  -0.767  -1.195  0.00  0.00    +0.072 A 
ATOM     30  C   UNL     1      -1.575  -0.280  -2.395  0.00  0.00    +0.027 A 
ATOM     31  C   UNL     1      -2.251  -0.539  -3.573  0.00  0.00    +0.002 A 
ATOM     32  C   UNL     1      -3.415  -1.284  -3.554  0.00  0.00    +0.004 A 
ATOM     33  C   UNL     1      -3.907  -1.783  -2.357  0.00  0.00    +0.047 A 
BRANCH  24  35
ATOM     34  C   UNL     1      -0.043   1.538  -0.006  0.00  0.00    +0.024 C 
ATOM     35  C   UNL     1      -0.012   0.008  -0.003  0.00  0.00    +0.102 C 
ENDBRANCH  24  35
ENDBRANCH  23  26
ENDBRANCH  20  23
ENDBRANCH  19  20
ENDBRANCH   1  19
TORSDOF 9
