REMARK  Name = ZINC09312235
REMARK  17 active torsions:
REMARK  status: ('A' for Active; 'I' for Inactive)
REMARK    1  A    between atoms: C_1  and  C_2
REMARK    2  A    between atoms: C_2  and  N_77
REMARK    3  A    between atoms: C_3  and  C_4
REMARK    4  A    between atoms: C_3  and  N_77
REMARK    5  A    between atoms: C_5  and  C_6
REMARK    6  A    between atoms: C_5  and  N_77
REMARK    7  A    between atoms: C_6  and  N_7
REMARK    8  A    between atoms: C_8  and  C_28
REMARK    9  A    between atoms: C_11  and  C_12
REMARK   10  A    between atoms: C_11  and  O_23
REMARK   11  A    between atoms: C_19  and  C_22
REMARK   12  A    between atoms: C_31  and  O_37
REMARK   13  A    between atoms: C_32  and  O_34
REMARK   14  A    between atoms: O_34  and  C_35
REMARK   15  A    between atoms: C_35  and  C_36
REMARK   16  A    between atoms: O_37  and  C_38
REMARK   17  A    between atoms: C_38  and  C_39
REMARK                            x       y       z     vdW  Elec       q    Type
REMARK                         _______ _______ _______ _____ _____    ______ ____
ROOT
ATOM      1  N   UNL     1      -3.315   1.994   2.602  0.00  0.00    -0.285 N 
ATOM      2  C   UNL     1      -4.635   1.453   2.937  0.00  0.00    +0.144 C 
ATOM      3  C   UNL     1      -4.955   1.927   4.335  0.00  0.00    +0.071 C 
ATOM      4  C   UNL     1      -6.098   1.656   5.062  0.00  0.00    +0.133 C 
ATOM      5  C   UNL     1      -3.861   2.704   4.744  0.00  0.00    +0.249 C 
ATOM      6  O   UNL     1      -3.746   3.267   5.817  0.00  0.00    -0.282 OA
ATOM      7  C   UNL     1      -2.865   2.720   3.639  0.00  0.00    +0.288 C 
ATOM      8  O   UNL     1      -1.801   3.304   3.670  0.00  0.00    -0.266 OA
ENDROOT
BRANCH   4   9
ATOM      9  C   UNL     1      -6.194   2.082   6.467  0.00  0.00    +0.017 A 
ATOM     10  C   UNL     1      -5.175   1.764   7.373  0.00  0.00    +0.015 A 
ATOM     11  C   UNL     1      -5.263   2.172   8.682  0.00  0.00    +0.046 A 
ATOM     12  C   UNL     1      -6.373   2.895   9.125  0.00  0.00    +0.124 A 
ATOM     13  C   UNL     1      -7.390   3.197   8.223  0.00  0.00    -0.002 A 
ATOM     14  C   UNL     1      -7.310   2.805   6.911  0.00  0.00    +0.019 A 
ATOM     15  C   UNL     1      -8.454   3.957   8.993  0.00  0.00    +0.083 C 
ATOM     16  C   UNL     1      -8.058   3.663  10.459  0.00  0.00    +0.175 C 
ATOM     17  O   UNL     1      -6.650   3.391  10.361  0.00  0.00    -0.488 OA
ATOM     18  C   UNL     1      -8.810   2.441  10.989  0.00  0.00    +0.052 C 
ENDBRANCH   4   9
BRANCH   2  19
ATOM     19  C   UNL     1      -5.665   1.967   1.965  0.00  0.00    -0.019 A 
ATOM     20  C   UNL     1      -5.617   3.282   1.540  0.00  0.00    +0.009 A 
ATOM     21  C   UNL     1      -6.561   3.759   0.649  0.00  0.00    +0.050 A 
ATOM     22  C   UNL     1      -7.557   2.918   0.179  0.00  0.00    +0.162 A 
ATOM     23  C   UNL     1      -7.604   1.594   0.606  0.00  0.00    +0.162 A 
ATOM     24  C   UNL     1      -6.653   1.121   1.496  0.00  0.00    +0.055 A 
BRANCH  23  25
ATOM     25  O   UNL     1      -8.580   0.765   0.147  0.00  0.00    -0.489 OA
BRANCH  25  26
ATOM     26  C   UNL     1      -8.567  -0.580   0.628  0.00  0.00    +0.226 C 
ATOM     27  C   UNL     1      -9.731  -1.355   0.006  0.00  0.00    +0.048 C 
ENDBRANCH  25  26
ENDBRANCH  23  25
BRANCH  22  28
ATOM     28  O   UNL     1      -8.485   3.385  -0.698  0.00  0.00    -0.484 OA
BRANCH  28  29
ATOM     29  C   UNL     1      -8.374   4.754  -1.092  0.00  0.00    +0.256 C 
BRANCH  29  30
ATOM     30  C   UNL     1      -9.481   5.090  -2.058  0.00  0.00    +0.006 C 
ATOM     31  C   UNL     1     -10.158   6.203  -1.918  0.00  0.00    +0.007 C 
ENDBRANCH  29  30
ENDBRANCH  28  29
ENDBRANCH  22  28
ENDBRANCH   2  19
BRANCH   4  32
ATOM     32  O   UNL     1      -7.126   1.000   4.484  0.00  0.00    -0.506 OA
ATOM     33  H   UNL     1      -7.866   0.889   5.147  0.00  0.00    +0.292 HD
ENDBRANCH   4  32
BRANCH   1  34
ATOM     34  C   UNL     1      -2.604   1.784   1.338  0.00  0.00    +0.090 C 
BRANCH  34  35
ATOM     35  C   UNL     1      -1.728   0.534   1.448  0.00  0.00    -0.060 C 
BRANCH  35  36
ATOM     36  N   UNL     1      -0.984   0.363   0.182  0.00  0.00    +0.380 N 
ATOM     37  H   UNL     1      -0.589   1.268  -0.098  0.00  0.00    -0.082 HD
BRANCH  36  39
ATOM     38  C   UNL     1       1.226   0.066   1.183  0.00  0.00    -0.017 C 
ATOM     39  C   UNL     1       0.117  -0.605   0.370  0.00  0.00    -0.082 C 
ENDBRANCH  36  39
BRANCH  36  40
ATOM     40  C   UNL     1      -1.897  -0.112  -0.879  0.00  0.00    -0.082 C 
ATOM     41  C   UNL     1      -1.161  -0.066  -2.220  0.00  0.00    -0.017 C 
ENDBRANCH  36  40
ENDBRANCH  35  36
ENDBRANCH  34  35
ENDBRANCH   1  34
TORSDOF 13
