REMARK  Name = ZINC59908218
REMARK  9 active torsions:
REMARK  status: ('A' for Active; 'I' for Inactive)
REMARK    1  A    between atoms: C_1  and  C_2
REMARK    2  A    between atoms: N_7  and  S_9
REMARK    3  A    between atoms: S_9  and  C_12
REMARK    4  A    between atoms: C_15  and  N_18
REMARK    5  A    between atoms: C_19  and  C_21
REMARK    6  A    between atoms: C_21  and  S_22
REMARK    7  A    between atoms: S_22  and  C_23
REMARK    8  A    between atoms: C_26  and  C_34
REMARK    9  A    between atoms: N_27  and  C_28
REMARK                            x       y       z     vdW  Elec       q    Type
REMARK                         _______ _______ _______ _____ _____    ______ ____
ROOT
ATOM      1  N   UNL     1       4.932  -3.675   6.082  0.00  0.00    -0.285 N 
ATOM      2  C   UNL     1       5.177  -2.761   7.041  0.00  0.00    +0.227 C 
ATOM      3  O   UNL     1       4.410  -1.836   7.209  0.00  0.00    -0.275 OA
ATOM      4  H   UNL     1       5.502  -4.455   5.997  0.00  0.00    +0.155 HD
ENDROOT
BRANCH   1   8
ATOM      5  C   UNL     1       1.724  -3.150   3.476  0.00  0.00    +0.106 A 
ATOM      6  C   UNL     1       2.410  -2.050   3.956  0.00  0.00    +0.030 A 
ATOM      7  C   UNL     1       3.474  -2.220   4.820  0.00  0.00    +0.025 A 
ATOM      8  C   UNL     1       3.854  -3.498   5.207  0.00  0.00    +0.034 A 
ATOM      9  C   UNL     1       3.163  -4.601   4.723  0.00  0.00    +0.025 A 
ATOM     10  C   UNL     1       2.097  -4.424   3.863  0.00  0.00    +0.030 A 
BRANCH   5  11
ATOM     11  S   UNL     1       0.367  -2.928   2.373  0.00  0.00    +0.061 S 
ATOM     12  O   UNL     1       0.234  -4.141   1.644  0.00  0.00    -0.153 OA
ATOM     13  O   UNL     1       0.563  -1.673   1.736  0.00  0.00    -0.153 OA
BRANCH  11  19
ATOM     14  C   UNL     1      -4.096  -4.907   3.761  0.00  0.00    +0.009 C 
ATOM     15  C   UNL     1      -3.240  -3.742   3.261  0.00  0.00    +0.002 C 
ATOM     16  C   UNL     1      -3.745  -2.436   3.878  0.00  0.00    +0.006 C 
ATOM     17  C   UNL     1      -2.910  -1.265   3.353  0.00  0.00    +0.017 C 
ATOM     18  C   UNL     1      -1.447  -1.462   3.766  0.00  0.00    +0.109 C 
ATOM     19  N   UNL     1      -0.998  -2.780   3.300  0.00  0.00    -0.176 NA
ATOM     20  C   UNL     1      -1.781  -3.966   3.672  0.00  0.00    +0.112 C 
ENDBRANCH  11  19
ENDBRANCH   5  11
ENDBRANCH   1   8
BRANCH   2  21
ATOM     21  C   UNL     1       6.404  -2.887   7.906  0.00  0.00    +0.173 C 
BRANCH  21  22
ATOM     22  S   UNL     1       6.452  -1.516   9.093  0.00  0.00    -0.076 S 
BRANCH  22  23
ATOM     23  C   UNL     1       7.925  -1.803  10.017  0.00  0.00    +0.197 A 
ATOM     24  N   UNL     1       8.771  -2.792   9.850  0.00  0.00    -0.122 NA
ATOM     25  N   UNL     1       9.733  -2.693  10.696  0.00  0.00    -0.133 NA
ATOM     26  C   UNL     1       9.562  -1.644  11.450  0.00  0.00    +0.142 A 
ATOM     27  N   UNL     1       8.405  -1.034  11.041  0.00  0.00    -0.274 N 
BRANCH  27  28
ATOM     28  C   UNL     1       7.832   0.133  11.566  0.00  0.00    +0.050 A 
ATOM     29  C   UNL     1       8.491   1.349  11.440  0.00  0.00    +0.026 A 
ATOM     30  C   UNL     1       7.924   2.497  11.957  0.00  0.00    +0.002 A 
ATOM     31  C   UNL     1       6.701   2.437  12.600  0.00  0.00    +0.000 A 
ATOM     32  C   UNL     1       6.042   1.228  12.727  0.00  0.00    +0.002 A 
ATOM     33  C   UNL     1       6.602   0.077  12.207  0.00  0.00    +0.026 A 
ENDBRANCH  27  28
BRANCH  26  34
ATOM     34  C   UNL     1      10.470  -1.185  12.561  0.00  0.00    +0.057 C 
ATOM     35  C   UNL     1      11.964  -1.387  12.259  0.00  0.00    +0.011 C 
ATOM     36  C   UNL     1      12.121  -1.817  13.727  0.00  0.00    +0.001 C 
ATOM     37  C   UNL     1      10.637  -2.218  13.687  0.00  0.00    +0.011 C 
ENDBRANCH  26  34
ENDBRANCH  22  23
ENDBRANCH  21  22
ENDBRANCH   2  21
TORSDOF 8
