REMARK  Name = ZINC03314425
REMARK  7 active torsions:
REMARK  status: ('A' for Active; 'I' for Inactive)
REMARK    1  A    between atoms: C_3  and  S_24
REMARK    2  A    between atoms: C_6  and  N_7
REMARK    3  A    between atoms: C_8  and  C_10
REMARK    4  A    between atoms: C_10  and  O_11
REMARK    5  A    between atoms: O_11  and  C_12
REMARK    6  A    between atoms: C_12  and  C_14
REMARK    7  A    between atoms: S_24  and  N_27
REMARK                            x       y       z     vdW  Elec       q    Type
REMARK                         _______ _______ _______ _____ _____    ______ ____
ROOT
ATOM      1  N   UNL     1       3.064   7.843   1.552  0.00  0.00    -0.283 N 
ATOM      2  C   UNL     1       3.603   7.427   2.715  0.00  0.00    +0.255 C 
ATOM      3  O   UNL     1       4.180   8.216   3.432  0.00  0.00    -0.272 OA
ATOM      4  H   UNL     1       2.661   7.200   0.947  0.00  0.00    +0.155 HD
ENDROOT
BRANCH   1  10
ATOM      5  C   UNL     1       2.026   9.761   0.515  0.00  0.00    +0.025 A 
ATOM      6  C   UNL     1       2.048  11.103   0.189  0.00  0.00    +0.030 A 
ATOM      7  C   UNL     1       3.128  11.887   0.553  0.00  0.00    +0.106 A 
ATOM      8  C   UNL     1       4.186  11.331   1.248  0.00  0.00    +0.030 A 
ATOM      9  C   UNL     1       4.168   9.990   1.581  0.00  0.00    +0.025 A 
ATOM     10  C   UNL     1       3.085   9.201   1.217  0.00  0.00    +0.034 A 
BRANCH   7  11
ATOM     11  S   UNL     1       3.155  13.597   0.131  0.00  0.00    +0.061 S 
ATOM     12  O   UNL     1       1.802  13.995  -0.041  0.00  0.00    -0.153 OA
ATOM     13  O   UNL     1       4.023  14.231   1.060  0.00  0.00    -0.153 OA
BRANCH  11  14
ATOM     14  N   UNL     1       3.877  13.723  -1.354  0.00  0.00    -0.177 NA
ATOM     15  C   UNL     1       5.316  13.908  -1.595  0.00  0.00    +0.109 C 
ATOM     16  C   UNL     1       5.518  13.996  -3.122  0.00  0.00    +0.018 C 
ATOM     17  C   UNL     1       4.119  14.430  -3.631  0.00  0.00    +0.018 C 
ATOM     18  C   UNL     1       3.183  13.675  -2.654  0.00  0.00    +0.109 C 
ENDBRANCH  11  14
ENDBRANCH   7  11
ENDBRANCH   1  10
BRANCH   2  19
ATOM     19  C   UNL     1       3.488   5.981   3.125  0.00  0.00    +0.328 C 
BRANCH  19  20
ATOM     20  O   UNL     1       4.144   5.787   4.406  0.00  0.00    -0.455 OA
BRANCH  20  21
ATOM     21  C   UNL     1       4.131   4.546   4.915  0.00  0.00    +0.311 C 
ATOM     22  O   UNL     1       3.591   3.650   4.311  0.00  0.00    -0.251 OA
BRANCH  21  23
ATOM     23  C   UNL     1       4.792   4.268   6.241  0.00  0.00    +0.105 C 
ATOM     24  C   UNL     1       4.119   5.091   7.367  0.00  0.00    +0.023 C 
ATOM     25  C   UNL     1       3.560   4.002   8.337  0.00  0.00    +0.013 C 
ATOM     26  C   UNL     1       3.118   2.902   7.304  0.00  0.00    +0.016 C 
ATOM     27  C   UNL     1       4.553   2.786   6.671  0.00  0.00    +0.026 C 
ATOM     28  C   UNL     1       5.389   2.630   7.947  0.00  0.00    -0.027 C 
ATOM     29  C   UNL     1       4.816   3.333   8.910  0.00  0.00    -0.027 C 
ENDBRANCH  21  23
ENDBRANCH  20  21
ENDBRANCH  19  20
ENDBRANCH   2  19
TORSDOF 7
