REMARK  Name = ZINC09190779
REMARK  5 active torsions:
REMARK  status: ('A' for Active; 'I' for Inactive)
REMARK    1  A    between atoms: C_4  and  C_7
REMARK    2  A    between atoms: C_7  and  C_9
REMARK    3  A    between atoms: C_17  and  S_19
REMARK    4  A    between atoms: S_19  and  C_20
REMARK    5  A    between atoms: C_20  and  C_21
REMARK                            x       y       z     vdW  Elec       q    Type
REMARK                         _______ _______ _______ _____ _____    ______ ____
ROOT
ATOM      1  C   UNL     1      -3.756   3.074   0.148  0.00  0.00    +0.024 A 
ATOM      2  C   UNL     1      -3.682   1.675   0.232  0.00  0.00    +0.014 A 
ATOM      3  C   UNL     1      -4.816   0.929   0.333  0.00  0.00    +0.030 A 
ATOM      4  C   UNL     1      -6.071   1.554   0.342  0.00  0.00    +0.090 A 
ATOM      5  C   UNL     1      -6.152   2.957   0.253  0.00  0.00    +0.068 A 
ATOM      6  C   UNL     1      -4.999   3.711   0.157  0.00  0.00    +0.039 A 
ATOM      7  N   UNL     1      -7.503   3.268   0.288  0.00  0.00    -0.333 N 
ATOM      8  H   UNL     1      -7.904   4.183   0.244  0.00  0.00    +0.168 HD
ATOM      9  C   UNL     1      -8.182   2.088   0.393  0.00  0.00    +0.168 A 
ATOM     10  N   UNL     1      -7.333   1.087   0.425  0.00  0.00    -0.222 NA
ENDROOT
BRANCH   1  11
ATOM     11  C   UNL     1      -2.521   3.871   0.045  0.00  0.00    +0.193 C 
ATOM     12  O   UNL     1      -1.560   3.428  -0.554  0.00  0.00    -0.287 OA
BRANCH  11  16
ATOM     13  C   UNL     1      -2.317   7.713   1.845  0.00  0.00    +0.000 A 
ATOM     14  C   UNL     1      -3.416   6.903   2.073  0.00  0.00    +0.001 A 
ATOM     15  C   UNL     1      -3.486   5.652   1.496  0.00  0.00    +0.012 A 
ATOM     16  C   UNL     1      -2.450   5.208   0.671  0.00  0.00    +0.022 A 
ATOM     17  C   UNL     1      -1.345   6.030   0.445  0.00  0.00    +0.012 A 
ATOM     18  C   UNL     1      -1.285   7.277   1.032  0.00  0.00    +0.001 A 
ENDBRANCH  11  16
ENDBRANCH   1  11
BRANCH   9  19
ATOM     19  S   UNL     1      -9.935   1.932   0.476  0.00  0.00    -0.079 S 
BRANCH  19  20
ATOM     20  C   UNL     1     -10.085   0.133   0.602  0.00  0.00    +0.172 C 
BRANCH  20  21
ATOM     21  C   UNL     1     -11.542  -0.245   0.687  0.00  0.00    +0.221 C 
ATOM     22  O   UNL     1     -12.394   0.618   0.665  0.00  0.00    -0.275 OA
ATOM     23  N   UNL     1     -11.897  -1.541   0.788  0.00  0.00    -0.329 N 
ATOM     24  H   UNL     1     -11.215  -2.231   0.806  0.00  0.00    +0.145 HD
ATOM     25  H   UNL     1     -12.835  -1.784   0.843  0.00  0.00    +0.145 HD
ENDBRANCH  20  21
ENDBRANCH  19  20
ENDBRANCH   9  19
TORSDOF 5
