REMARK  Name = ZINC39710966
REMARK  9 active torsions:
REMARK  status: ('A' for Active; 'I' for Inactive)
REMARK    1  A    between atoms: C_1  and  C_2
REMARK    2  A    between atoms: C_8  and  C_14
REMARK    3  A    between atoms: C_14  and  C_16
REMARK    4  A    between atoms: C_14  and  N_28
REMARK    5  A    between atoms: N_21  and  C_22
REMARK    6  A    between atoms: N_28  and  C_29
REMARK    7  A    between atoms: N_28  and  C_35
REMARK    8  A    between atoms: C_29  and  C_30
REMARK    9  A    between atoms: C_35  and  C_36
REMARK                            x       y       z     vdW  Elec       q    Type
REMARK                         _______ _______ _______ _____ _____    ______ ____
ROOT
ATOM      1  C   UNL     1       0.837  -1.893   4.998  0.00  0.00    -0.009 C 
ENDROOT
BRANCH   1   9
ATOM      2  C   UNL     1      -3.205  -1.988   9.616  0.00  0.00    +0.045 C 
ATOM      3  C   UNL     1      -2.688  -0.856   8.766  0.00  0.00    -0.029 A 
ATOM      4  C   UNL     1      -2.875   0.429   9.168  0.00  0.00    +0.005 A 
ATOM      5  C   UNL     1      -2.421   1.522   8.429  0.00  0.00    +0.001 A 
ATOM      6  C   UNL     1      -1.760   1.357   7.254  0.00  0.00    +0.009 A 
ATOM      7  C   UNL     1      -1.524  -0.001   6.763  0.00  0.00    -0.007 A 
ATOM      8  C   UNL     1      -0.865  -0.215   5.588  0.00  0.00    -0.006 C 
ATOM      9  C   UNL     1      -0.666  -1.655   5.156  0.00  0.00    +0.088 C 
ATOM     10  C   UNL     1      -1.214  -2.735   6.061  0.00  0.00    +0.223 C 
ATOM     11  O   UNL     1      -1.081  -3.907   5.763  0.00  0.00    -0.275 OA
ATOM     12  N   UNL     1      -1.837  -2.401   7.178  0.00  0.00    -0.284 N 
ATOM     13  C   UNL     1      -2.010  -1.137   7.566  0.00  0.00    +0.043 A 
ATOM     14  H   UNL     1      -2.181  -3.109   7.745  0.00  0.00    +0.155 HD
ENDBRANCH   1   9
BRANCH   1  15
ATOM     15  C   UNL     1       1.102  -3.393   4.846  0.00  0.00    +0.205 C 
ATOM     16  N   UNL     1       2.547  -3.656   4.804  0.00  0.00    -0.152 NA
ATOM     17  N   UNL     1       2.826  -4.176   3.722  0.00  0.00    -0.070 NA
ATOM     18  N   UNL     1       1.714  -4.347   2.899  0.00  0.00    -0.179 N 
ATOM     19  N   UNL     1       0.597  -3.877   3.545  0.00  0.00    -0.185 NA
ATOM     20  H   UNL     1       1.727  -4.737   2.011  0.00  0.00    +0.191 HD
BRANCH  19  21
ATOM     21  C   UNL     1      -0.032  -2.788   2.786  0.00  0.00    +0.080 C 
ATOM     22  C   UNL     1      -1.515  -3.100   2.578  0.00  0.00    +0.021 C 
ATOM     23  C   UNL     1      -2.170  -1.966   1.788  0.00  0.00    +0.002 C 
ATOM     24  C   UNL     1      -1.482  -1.829   0.428  0.00  0.00    +0.000 C 
ATOM     25  C   UNL     1       0.001  -1.516   0.635  0.00  0.00    +0.002 C 
ATOM     26  C   UNL     1       0.656  -2.651   1.426  0.00  0.00    +0.021 C 
ENDBRANCH  19  21
ENDBRANCH   1  15
BRANCH   1  27
ATOM     27  N   UNL     1       1.540  -1.389   6.185  0.00  0.00    +0.389 N 
ATOM     28  H   UNL     1       2.426  -1.864   6.278  0.00  0.00    -0.081 HD
BRANCH  27  29
ATOM     29  C   UNL     1       1.772   0.054   6.040  0.00  0.00    -0.035 C 
BRANCH  29  30
ATOM     30  C   UNL     1       3.055   0.284   5.283  0.00  0.00    -0.027 A 
ATOM     31  C   UNL     1       3.237   0.497   3.957  0.00  0.00    +0.009 A 
ATOM     32  C   UNL     1       4.520   0.686   3.478  0.00  0.00    +0.008 A 
ATOM     33  C   UNL     1       5.558   0.652   4.349  0.00  0.00    +0.045 A 
ATOM     34  S   UNL     1       4.729   0.352   5.901  0.00  0.00    -0.103 S 
ENDBRANCH  29  30
ENDBRANCH  27  29
BRANCH  27  35
ATOM     35  C   UNL     1       0.723  -1.637   7.380  0.00  0.00    -0.046 C 
BRANCH  35  36
ATOM     36  C   UNL     1       0.928  -3.079   7.848  0.00  0.00    +0.102 C 
ATOM     37  C   UNL     1       0.052  -3.356   9.089  0.00  0.00    +0.032 C 
ATOM     38  C   UNL     1       0.989  -4.232   9.965  0.00  0.00    +0.030 C 
ATOM     39  C   UNL     1       2.370  -3.619   9.623  0.00  0.00    +0.160 C 
ATOM     40  O   UNL     1       2.295  -3.277   8.228  0.00  0.00    -0.378 OA
ENDBRANCH  35  36
ENDBRANCH  27  35
ENDBRANCH   1  27
TORSDOF 8
