REMARK  Name = ZINC20295056
REMARK  12 active torsions:
REMARK  status: ('A' for Active; 'I' for Inactive)
REMARK    1  A    between atoms: C_1  and  C_2
REMARK    2  A    between atoms: C_3  and  C_32
REMARK    3  A    between atoms: C_4  and  N_10
REMARK    4  A    between atoms: C_6  and  C_7
REMARK    5  A    between atoms: C_11  and  C_13
REMARK    6  A    between atoms: C_13  and  S_14
REMARK    7  A    between atoms: S_14  and  C_15
REMARK    8  A    between atoms: C_18  and  C_27
REMARK    9  A    between atoms: N_19  and  C_20
REMARK   10  A    between atoms: C_20  and  C_21
REMARK   11  A    between atoms: C_32  and  O_34
REMARK   12  A    between atoms: O_34  and  C_35
REMARK                            x       y       z     vdW  Elec       q    Type
REMARK                         _______ _______ _______ _____ _____    ______ ____
ROOT
ATOM      1  N   UNL     1      -1.508  -2.333  -2.350  0.00  0.00    -0.279 N 
ATOM      2  C   UNL     1      -2.380  -3.202  -2.900  0.00  0.00    +0.228 C 
ATOM      3  O   UNL     1      -2.155  -4.393  -2.861  0.00  0.00    -0.275 OA
ATOM      4  H   UNL     1      -1.712  -1.253  -2.385  0.00  0.00    +0.155 HD
ENDROOT
BRANCH   1   8
ATOM      5  C   UNL     1       2.854  -2.060   0.117  0.00  0.00    +0.046 C 
ATOM      6  C   UNL     1       1.720  -2.772  -0.575  0.00  0.00    -0.015 A 
ATOM      7  C   UNL     1       0.659  -2.067  -1.122  0.00  0.00    +0.091 A 
ATOM      8  C   UNL     1      -0.358  -2.800  -1.743  0.00  0.00    +0.087 A 
ATOM      9  S   UNL     1       0.181  -4.437  -1.566  0.00  0.00    -0.068 S 
ATOM     10  C   UNL     1       1.702  -4.135  -0.686  0.00  0.00    +0.079 A 
BRANCH  10  11
ATOM     11  C   UNL     1       2.687  -5.105  -0.201  0.00  0.00    +0.248 C 
ATOM     12  O   UNL     1       3.680  -4.721   0.388  0.00  0.00    -0.270 OA
ATOM     13  N   UNL     1       2.492  -6.423  -0.407  0.00  0.00    -0.325 N 
ATOM     14  H   UNL     1       3.232  -7.151  -0.043  0.00  0.00    +0.145 HD
ATOM     15  H   UNL     1       1.594  -6.769  -0.940  0.00  0.00    +0.145 HD
ENDBRANCH  10  11
BRANCH   7  16
ATOM     16  C   UNL     1       0.601  -0.602  -1.047  0.00  0.00    +0.342 C 
ATOM     17  O   UNL     1       1.093   0.071  -1.932  0.00  0.00    -0.245 OA
BRANCH  16  18
ATOM     18  O   UNL     1       0.002  -0.004   0.002  0.00  0.00    -0.464 OA
ATOM     19  C   UNL     1      -0.018   1.448   0.010  0.00  0.00    +0.280 C 
ENDBRANCH  16  18
ENDBRANCH   7  16
ENDBRANCH   1   8
BRANCH   2  20
ATOM     20  C   UNL     1      -3.634  -2.693  -3.562  0.00  0.00    +0.173 C 
BRANCH  20  21
ATOM     21  S   UNL     1      -4.591  -4.092  -4.197  0.00  0.00    -0.077 S 
BRANCH  21  22
ATOM     22  C   UNL     1      -5.960  -3.233  -4.898  0.00  0.00    +0.192 A 
ATOM     23  N   UNL     1      -6.146  -1.932  -4.900  0.00  0.00    -0.122 NA
ATOM     24  N   UNL     1      -7.245  -1.643  -5.498  0.00  0.00    -0.125 NA
ATOM     25  C   UNL     1      -7.836  -2.744  -5.909  0.00  0.00    +0.200 A 
ATOM     26  N   UNL     1      -7.030  -3.796  -5.536  0.00  0.00    -0.297 N 
BRANCH  25  27
ATOM     27  C   UNL     1      -9.116  -2.834  -6.628  0.00  0.00    +0.172 A 
ATOM     28  C   UNL     1     -10.044  -1.841  -6.739  0.00  0.00    +0.053 A 
ATOM     29  C   UNL     1     -11.102  -2.360  -7.510  0.00  0.00    +0.042 A 
ATOM     30  C   UNL     1     -10.779  -3.631  -7.822  0.00  0.00    +0.196 A 
ATOM     31  O   UNL     1      -9.579  -3.914  -7.288  0.00  0.00    -0.460 OA
ENDBRANCH  25  27
BRANCH  26  32
ATOM     32  C   UNL     1      -7.269  -5.222  -5.774  0.00  0.00    +0.157 C 
BRANCH  32  33
ATOM     33  C   UNL     1      -8.053  -5.811  -4.599  0.00  0.00    +0.138 C 
ATOM     34  C   UNL     1      -8.364  -7.307  -4.855  0.00  0.00    +0.035 C 
ATOM     35  C   UNL     1      -8.531  -7.827  -3.401  0.00  0.00    +0.031 C 
ATOM     36  C   UNL     1      -7.510  -6.966  -2.626  0.00  0.00    +0.160 C 
ATOM     37  O   UNL     1      -7.252  -5.793  -3.406  0.00  0.00    -0.375 OA
ENDBRANCH  32  33
ENDBRANCH  26  32
ENDBRANCH  21  22
ENDBRANCH  20  21
ENDBRANCH   2  20
TORSDOF 10
