REMARK  Name = ZINC63187702
REMARK  9 active torsions:
REMARK  status: ('A' for Active; 'I' for Inactive)
REMARK    1  A    between atoms: C_1  and  C_2
REMARK    2  A    between atoms: C_5  and  N_8
REMARK    3  A    between atoms: C_9  and  C_36
REMARK    4  A    between atoms: C_12  and  C_15
REMARK    5  A    between atoms: C_13  and  C_14
REMARK    6  A    between atoms: C_15  and  C_17
REMARK    7  A    between atoms: C_17  and  N_18
REMARK    8  A    between atoms: C_21  and  C_26
REMARK    9  A    between atoms: C_26  and  C_27
REMARK                            x       y       z     vdW  Elec       q    Type
REMARK                         _______ _______ _______ _____ _____    ______ ____
ROOT
ATOM      1  N   UNL     1      -0.110  -9.599  -2.567  0.00  0.00    -0.217 N 
ATOM      2  C   UNL     1      -1.270 -10.055  -3.079  0.00  0.00    +0.244 C 
ATOM      3  O   UNL     1      -2.389  -9.832  -2.669  0.00  0.00    -0.273 OA
ATOM      4  C   UNL     1      -0.885 -10.904  -4.274  0.00  0.00    +0.165 C 
ATOM      5  N   UNL     1       0.585 -10.820  -4.300  0.00  0.00    -0.287 N 
ATOM      6  C   UNL     1       0.943 -10.033  -3.269  0.00  0.00    +0.310 C 
ATOM      7  O   UNL     1       2.095  -9.751  -3.003  0.00  0.00    -0.252 OA
ATOM      8  H   UNL     1       1.179 -11.246  -4.937  0.00  0.00    +0.151 HD
ENDROOT
BRANCH   1   9
ATOM      9  C   UNL     1      -0.014  -8.730  -1.392  0.00  0.00    +0.197 C 
BRANCH   9  10
ATOM     10  C   UNL     1      -0.068  -7.288  -1.827  0.00  0.00    +0.178 C 
ATOM     11  O   UNL     1      -0.176  -7.013  -3.006  0.00  0.00    -0.291 OA
BRANCH  10  15
ATOM     12  N   UNL     1       0.062  -4.168  -0.021  0.00  0.00    -0.300 N 
ATOM     13  C   UNL     1       0.177  -5.016   1.173  0.00  0.00    +0.080 C 
ATOM     14  C   UNL     1       0.142  -6.455   0.623  0.00  0.00    +0.062 C 
ATOM     15  C   UNL     1       0.007  -6.264  -0.873  0.00  0.00    +0.015 C 
ATOM     16  C   UNL     1      -0.034  -4.941  -1.129  0.00  0.00    +0.015 C 
ATOM     17  C   UNL     1      -0.171  -4.375  -2.519  0.00  0.00    +0.061 C 
ATOM     18  C   UNL     1      -1.002  -4.773   2.117  0.00  0.00    +0.029 C 
BRANCH  12  23
ATOM     19  C   UNL     1       0.005   1.503   0.010  0.00  0.00    +0.044 C 
ATOM     20  C   UNL     1       0.020  -0.004   0.001  0.00  0.00    -0.050 A 
ATOM     21  C   UNL     1      -1.124  -0.703  -0.336  0.00  0.00    +0.005 A 
ATOM     22  C   UNL     1      -1.114  -2.084  -0.345  0.00  0.00    +0.024 A 
ATOM     23  C   UNL     1       0.048  -2.771  -0.014  0.00  0.00    +0.034 A 
ATOM     24  C   UNL     1       1.196  -2.065   0.324  0.00  0.00    +0.024 A 
ATOM     25  C   UNL     1       1.180  -0.684   0.326  0.00  0.00    +0.005 A 
ENDBRANCH  12  23
ENDBRANCH  10  15
ENDBRANCH   9  10
ENDBRANCH   1   9
BRANCH   4  26
ATOM     26  C   UNL     1      -1.342 -12.351  -4.076  0.00  0.00    +0.065 C 
BRANCH  26  27
ATOM     27  C   UNL     1      -1.057 -13.143  -5.326  0.00  0.00    -0.039 C 
ATOM     28  C   UNL     1       0.031 -13.906  -5.575  0.00  0.00    -0.001 A 
ATOM     29  C   UNL     1       1.231 -14.215  -4.787  0.00  0.00    +0.010 A 
ATOM     30  C   UNL     1       2.171 -15.030  -5.316  0.00  0.00    +0.001 A 
ATOM     31  C   UNL     1       2.030 -15.587  -6.595  0.00  0.00    +0.002 A 
ATOM     32  C   UNL     1       0.956 -15.350  -7.378  0.00  0.00    +0.026 A 
ATOM     33  C   UNL     1      -0.095 -14.507  -6.922  0.00  0.00    +0.043 A 
ATOM     34  N   UNL     1      -1.217 -14.130  -7.484  0.00  0.00    -0.380 N 
ATOM     35  C   UNL     1      -1.934 -13.251  -6.553  0.00  0.00    +0.144 C 
ATOM     36  H   UNL     1      -1.524 -14.391  -8.367  0.00  0.00    +0.160 HD
ENDBRANCH  26  27
ENDBRANCH   4  26
TORSDOF 6
