REMARK  Name = ZINC01335382
REMARK  10 active torsions:
REMARK  status: ('A' for Active; 'I' for Inactive)
REMARK    1  A    between atoms: C_1  and  C_2
REMARK    2  A    between atoms: C_2  and  C_4
REMARK    3  A    between atoms: C_8  and  S_10
REMARK    4  A    between atoms: S_10  and  N_13
REMARK    5  A    between atoms: N_13  and  C_14
REMARK    6  A    between atoms: N_13  and  C_29
REMARK    7  A    between atoms: C_14  and  C_15
REMARK    8  A    between atoms: C_20  and  O_27
REMARK    9  A    between atoms: O_27  and  C_28
REMARK   10  A    between atoms: C_29  and  C_30
REMARK                            x       y       z     vdW  Elec       q    Type
REMARK                         _______ _______ _______ _____ _____    ______ ____
ROOT
ATOM      1  N   UNL     1       5.458   0.800  -1.570  0.00  0.00    -0.170 NA
ENDROOT
BRANCH   1   2
ATOM      2  S   UNL     1       4.853   1.207  -0.084  0.00  0.00    +0.061 S 
ATOM      3  O   UNL     1       5.882   1.914   0.594  0.00  0.00    -0.153 OA
ATOM      4  O   UNL     1       4.258   0.032   0.449  0.00  0.00    -0.153 OA
BRANCH   2   9
ATOM      5  C   UNL     1       1.202   2.828  -0.608  0.00  0.00    +0.019 A 
ATOM      6  C   UNL     1       1.499   4.184  -0.778  0.00  0.00    +0.011 A 
ATOM      7  C   UNL     1       2.808   4.612  -0.725  0.00  0.00    +0.003 A 
ATOM      8  C   UNL     1       3.829   3.701  -0.515  0.00  0.00    +0.028 A 
ATOM      9  C   UNL     1       3.544   2.357  -0.351  0.00  0.00    +0.106 A 
ATOM     10  C   UNL     1       2.239   1.914  -0.396  0.00  0.00    +0.040 A 
BRANCH   5  12
ATOM     11  C   UNL     1      -1.308   3.352  -0.893  0.00  0.00    +0.091 C 
ATOM     12  C   UNL     1      -0.194   2.365  -0.658  0.00  0.00    +0.160 C 
ATOM     13  O   UNL     1      -0.447   1.188  -0.515  0.00  0.00    -0.292 OA
ENDBRANCH   5  12
ENDBRANCH   2   9
ENDBRANCH   1   2
BRANCH   1  14
ATOM     14  C   UNL     1       4.992  -0.415  -2.243  0.00  0.00    +0.150 C 
BRANCH  14  15
ATOM     15  C   UNL     1       4.239  -0.039  -3.494  0.00  0.00    +0.033 A 
ATOM     16  C   UNL     1       4.887   0.005  -4.685  0.00  0.00    +0.020 A 
ATOM     17  C   UNL     1       4.128   0.373  -5.880  0.00  0.00    -0.001 A 
ATOM     18  C   UNL     1       4.743   0.435  -7.137  0.00  0.00    +0.013 A 
ATOM     19  C   UNL     1       4.010   0.781  -8.234  0.00  0.00    +0.046 A 
ATOM     20  C   UNL     1       2.652   1.074  -8.115  0.00  0.00    +0.122 A 
ATOM     21  C   UNL     1       2.026   1.018  -6.882  0.00  0.00    +0.072 A 
ATOM     22  C   UNL     1       2.756   0.667  -5.754  0.00  0.00    +0.053 A 
ATOM     23  N   UNL     1       2.157   0.603  -4.513  0.00  0.00    -0.322 N 
ATOM     24  H   UNL     1       1.184   0.816  -4.424  0.00  0.00    +0.169 HD
ATOM     25  C   UNL     1       2.863   0.259  -3.422  0.00  0.00    +0.254 A 
ATOM     26  O   UNL     1       2.300   0.209  -2.342  0.00  0.00    -0.268 OA
BRANCH  20  27
ATOM     27  O   UNL     1       1.938   1.416  -9.217  0.00  0.00    -0.495 OA
ATOM     28  C   UNL     1       2.643   1.456 -10.460  0.00  0.00    +0.277 C 
ENDBRANCH  20  27
ENDBRANCH  14  15
ENDBRANCH   1  14
BRANCH   1  29
ATOM     29  C   UNL     1       6.460   1.655  -2.213  0.00  0.00    +0.143 C 
BRANCH  29  30
ATOM     30  C   UNL     1       7.859   1.122  -1.902  0.00  0.00    +0.160 C 
ATOM     31  C   UNL     1       8.910   2.078  -2.474  0.00  0.00    +0.192 C 
ATOM     32  O   UNL     1      10.212   1.517  -2.278  0.00  0.00    -0.375 OA
ATOM     33  C   UNL     1      10.376   0.228  -2.876  0.00  0.00    +0.188 C 
ATOM     34  C   UNL     1       9.325  -0.729  -2.304  0.00  0.00    +0.188 C 
ATOM     35  O   UNL     1       8.024  -0.168  -2.500  0.00  0.00    -0.371 OA
ENDBRANCH  29  30
ENDBRANCH   1  29
TORSDOF 8
