REMARK  Name = ZINC19869051
REMARK  3 active torsions:
REMARK  status: ('A' for Active; 'I' for Inactive)
REMARK    1  A    between atoms: C_6  and  O_7
REMARK    2  A    between atoms: O_7  and  C_8
REMARK    3  A    between atoms: C_13  and  N_14
REMARK                            x       y       z     vdW  Elec       q    Type
REMARK                         _______ _______ _______ _____ _____    ______ ____
ROOT
ATOM      1  C   UNL     1       2.350   4.097   0.106  0.00  0.00    +0.153 A 
ATOM      2  C   UNL     1       3.536   3.381   0.095  0.00  0.00    +0.097 A 
ATOM      3  C   UNL     1       4.750   4.045   0.190  0.00  0.00    +0.166 A 
ATOM      4  C   UNL     1       4.778   5.430   0.304  0.00  0.00    +0.164 A 
ATOM      5  C   UNL     1       3.591   6.147   0.320  0.00  0.00    +0.075 A 
ATOM      6  C   UNL     1       2.377   5.484   0.222  0.00  0.00    +0.071 A 
ATOM      7  O   UNL     1       5.961   6.098   0.397  0.00  0.00    -0.485 OA
ATOM      8  C   UNL     1       7.112   5.323   0.752  0.00  0.00    +0.270 C 
ATOM      9  C   UNL     1       7.112   4.046  -0.099  0.00  0.00    +0.270 C 
ATOM     10  O   UNL     1       5.906   3.324   0.176  0.00  0.00    -0.485 OA
ENDROOT
BRANCH   6  11
ATOM     11  N   UNL     1       1.178   6.210   0.240  0.00  0.00    -0.355 N 
ATOM     12  H   UNL     1       1.200   7.306   0.332  0.00  0.00    +0.142 HD
ATOM     13  H   UNL     1       0.215   5.684   0.163  0.00  0.00    +0.142 HD
ENDBRANCH   6  11
BRANCH   1  14
ATOM     14  O   UNL     1       1.160   3.445   0.009  0.00  0.00    -0.454 OA
BRANCH  14  20
ATOM     15  C   UNL     1       1.354   1.369   1.155  0.00  0.00    +0.047 A 
ATOM     16  C   UNL     1       1.372  -0.012   1.123  0.00  0.00    +0.019 A 
ATOM     17  C   UNL     1       1.213  -0.680  -0.078  0.00  0.00    +0.018 A 
ATOM     18  C   UNL     1       1.037   0.034  -1.250  0.00  0.00    +0.019 A 
ATOM     19  C   UNL     1       1.020   1.415  -1.224  0.00  0.00    +0.047 A 
ATOM     20  C   UNL     1       1.178   2.087  -0.020  0.00  0.00    +0.129 A 
ATOM     21 BR   UNL     1       1.237  -2.570  -0.118  0.00  0.00    -0.050 Br
ENDBRANCH  14  20
ENDBRANCH   1  14
TORSDOF 3
