REMARK  Name = ZINC09386419
REMARK  9 active torsions:
REMARK  status: ('A' for Active; 'I' for Inactive)
REMARK    1  A    between atoms: C_1  and  S_2
REMARK    2  A    between atoms: S_2  and  C_5
REMARK    3  A    between atoms: C_10  and  N_11
REMARK    4  A    between atoms: C_12  and  C_14
REMARK    5  A    between atoms: C_14  and  N_15
REMARK    6  A    between atoms: C_18  and  C_22
REMARK    7  A    between atoms: C_18  and  C_29
REMARK    8  A    between atoms: C_22  and  C_23
REMARK    9  A    between atoms: C_29  and  C_30
REMARK                            x       y       z     vdW  Elec       q    Type
REMARK                         _______ _______ _______ _____ _____    ______ ____
ROOT
ATOM      1  N   UNL     1      -0.305   2.389   3.224  0.00  0.00    -0.215 N 
ATOM      2  C   UNL     1      -0.745   3.170   2.218  0.00  0.00    +0.248 C 
ATOM      3  O   UNL     1      -0.390   4.300   1.960  0.00  0.00    -0.273 OA
ATOM      4  C   UNL     1      -1.776   2.342   1.477  0.00  0.00    +0.120 C 
ATOM      5  N   UNL     1      -1.798   1.071   2.221  0.00  0.00    -0.284 N 
ATOM      6  C   UNL     1      -0.907   1.194   3.221  0.00  0.00    +0.310 C 
ATOM      7  O   UNL     1      -0.676   0.318   4.031  0.00  0.00    -0.252 OA
ATOM      8  H   UNL     1      -2.348   0.295   2.027  0.00  0.00    +0.151 HD
ENDROOT
BRANCH   1   9
ATOM      9  C   UNL     1       0.709   2.796   4.200  0.00  0.00    +0.214 C 
BRANCH   9  11
ATOM     10  N   UNL     1       3.170   2.704   4.426  0.00  0.00    -0.283 N 
ATOM     11  C   UNL     1       2.077   2.424   3.690  0.00  0.00    +0.235 C 
ATOM     12  O   UNL     1       2.194   1.872   2.616  0.00  0.00    -0.274 OA
ATOM     13  H   UNL     1       3.085   3.216   5.246  0.00  0.00    +0.155 HD
BRANCH  10  19
ATOM     14  C   UNL     1       5.575   2.922   4.421  0.00  0.00    +0.109 A 
ATOM     15  C   UNL     1       6.816   2.478   4.007  0.00  0.00    +0.029 A 
ATOM     16  C   UNL     1       6.917   1.372   3.183  0.00  0.00    +0.002 A 
ATOM     17  C   UNL     1       5.776   0.707   2.771  0.00  0.00    +0.002 A 
ATOM     18  C   UNL     1       4.533   1.143   3.185  0.00  0.00    +0.025 A 
ATOM     19  C   UNL     1       4.428   2.257   4.008  0.00  0.00    +0.058 A 
BRANCH  14  21
ATOM     20  C   UNL     1       4.589   5.579   4.476  0.00  0.00    +0.200 C 
ATOM     21  S   UNL     1       5.449   4.331   5.472  0.00  0.00    -0.004 S 
ATOM     22  O   UNL     1       4.621   3.908   6.547  0.00  0.00    -0.170 OA
ATOM     23  O   UNL     1       6.792   4.731   5.705  0.00  0.00    -0.170 OA
ENDBRANCH  14  21
ENDBRANCH  10  19
ENDBRANCH   9  11
ENDBRANCH   1   9
BRANCH   4  24
ATOM     24  C   UNL     1      -1.340   2.111   0.029  0.00  0.00    +0.070 C 
BRANCH  24  25
ATOM     25  C   UNL     1      -0.021   1.383   0.011  0.00  0.00    -0.045 A 
ATOM     26  C   UNL     1       1.163   2.097   0.004  0.00  0.00    +0.004 A 
ATOM     27  C   UNL     1       2.373   1.429  -0.019  0.00  0.00    +0.000 A 
ATOM     28  C   UNL     1       2.399   0.047  -0.033  0.00  0.00    +0.000 A 
ATOM     29  C   UNL     1       1.216  -0.667  -0.026  0.00  0.00    +0.000 A 
ATOM     30  C   UNL     1       0.006   0.001  -0.004  0.00  0.00    +0.004 A 
ENDBRANCH  24  25
ENDBRANCH   4  24
BRANCH   4  31
ATOM     31  C   UNL     1      -3.148   3.017   1.524  0.00  0.00    +0.070 C 
BRANCH  31  32
ATOM     32  C   UNL     1      -3.554   3.233   2.959  0.00  0.00    -0.045 A 
ATOM     33  C   UNL     1      -4.272   2.260   3.628  0.00  0.00    +0.004 A 
ATOM     34  C   UNL     1      -4.640   2.457   4.946  0.00  0.00    +0.000 A 
ATOM     35  C   UNL     1      -4.298   3.630   5.592  0.00  0.00    +0.000 A 
ATOM     36  C   UNL     1      -3.583   4.605   4.921  0.00  0.00    +0.000 A 
ATOM     37  C   UNL     1      -3.211   4.407   3.604  0.00  0.00    +0.004 A 
ENDBRANCH  31  32
ENDBRANCH   4  31
TORSDOF 8
