REMARK  Name = ZINC03600743
REMARK  5 active torsions:
REMARK  status: ('A' for Active; 'I' for Inactive)
REMARK    1  A    between atoms: C_4  and  C_7
REMARK    2  A    between atoms: C_7  and  C_8
REMARK    3  A    between atoms: C_7  and  N_14
REMARK    4  A    between atoms: C_15  and  C_17
REMARK    5  A    between atoms: C_17  and  N_18
REMARK                            x       y       z     vdW  Elec       q    Type
REMARK                         _______ _______ _______ _____ _____    ______ ____
ROOT
ATOM      1  C   UNL     1       0.002  -0.004   0.002  0.00  0.00    +0.213 C 
ENDROOT
BRANCH   1   2
ATOM      2  N   UNL     1      -1.372  -0.511   0.012  0.00  0.00    -0.215 N 
ATOM      3  C   UNL     1      -2.094  -0.767  -1.098  0.00  0.00    +0.251 C 
ATOM      4  O   UNL     1      -1.742  -0.628  -2.250  0.00  0.00    -0.272 OA
ATOM      5  C   UNL     1      -3.434  -1.266  -0.604  0.00  0.00    +0.138 C 
ATOM      6  C   UNL     1      -3.677  -2.692  -1.083  0.00  0.00    +0.040 C 
ATOM      7  C   UNL     1      -3.988  -2.654  -2.584  0.00  0.00    +0.008 C 
ATOM      8  C   UNL     1      -5.352  -1.995  -2.778  0.00  0.00    +0.035 C 
ATOM      9  C   UNL     1      -5.412  -0.674  -2.057  0.00  0.00    -0.042 A 
ATOM     10  C   UNL     1      -4.529  -0.340  -1.052  0.00  0.00    -0.012 A 
ATOM     11  C   UNL     1      -4.641   0.891  -0.421  0.00  0.00    +0.006 A 
ATOM     12  C   UNL     1      -5.625   1.784  -0.794  0.00  0.00    +0.000 A 
ATOM     13  C   UNL     1      -6.508   1.450  -1.804  0.00  0.00    +0.000 A 
ATOM     14  C   UNL     1      -6.400   0.226  -2.431  0.00  0.00    +0.004 A 
ATOM     15  N   UNL     1      -3.307  -1.233   0.860  0.00  0.00    -0.281 N 
ATOM     16  C   UNL     1      -2.065  -0.783   1.125  0.00  0.00    +0.310 C 
ATOM     17  O   UNL     1      -1.625  -0.636   2.248  0.00  0.00    -0.252 OA
ATOM     18  H   UNL     1      -3.982  -1.488   1.507  0.00  0.00    +0.152 HD
ENDBRANCH   1   2
BRANCH   1  20
ATOM     19  N   UNL     1       1.139   2.192   0.003  0.00  0.00    -0.303 N 
ATOM     20  C   UNL     1      -0.018   1.503   0.010  0.00  0.00    +0.232 C 
ATOM     21  O   UNL     1      -1.077   2.095   0.018  0.00  0.00    -0.274 OA
ATOM     22  H   UNL     1       1.986   1.719  -0.008  0.00  0.00    +0.150 HD
BRANCH  19  23
ATOM     23  C   UNL     1       1.120   3.657   0.011  0.00  0.00    +0.134 C 
BRANCH  23  27
ATOM     24  C   UNL     1       4.766   5.121   1.687  0.00  0.00    +0.000 A 
ATOM     25  C   UNL     1       3.568   5.738   1.994  0.00  0.00    +0.000 A 
ATOM     26  C   UNL     1       2.388   5.264   1.452  0.00  0.00    +0.006 A 
ATOM     27  C   UNL     1       2.406   4.174   0.602  0.00  0.00    -0.023 A 
ATOM     28  C   UNL     1       3.604   3.554   0.299  0.00  0.00    +0.006 A 
ATOM     29  C   UNL     1       4.785   4.031   0.838  0.00  0.00    +0.000 A 
ENDBRANCH  23  27
BRANCH  23  30
ATOM     30  C   UNL     1       0.976   4.165  -1.400  0.00  0.00    -0.023 A 
ATOM     31  C   UNL     1       1.662   3.550  -2.430  0.00  0.00    +0.006 A 
ATOM     32  C   UNL     1       1.526   4.013  -3.725  0.00  0.00    +0.000 A 
ATOM     33  C   UNL     1       0.712   5.098  -3.990  0.00  0.00    +0.000 A 
ATOM     34  C   UNL     1       0.029   5.717  -2.959  0.00  0.00    +0.000 A 
ATOM     35  C   UNL     1       0.161   5.251  -1.664  0.00  0.00    +0.006 A 
ENDBRANCH  23  30
ENDBRANCH  19  23
ENDBRANCH   1  20
TORSDOF 5
