REMARK  Name = ZINC22318686
REMARK  12 active torsions:
REMARK  status: ('A' for Active; 'I' for Inactive)
REMARK    1  A    between atoms: C_1  and  C_2
REMARK    2  A    between atoms: C_2  and  N_3
REMARK    3  A    between atoms: N_3  and  C_4
REMARK    4  A    between atoms: N_3  and  S_6
REMARK    5  A    between atoms: C_4  and  C_5
REMARK    6  A    between atoms: S_6  and  C_9
REMARK    7  A    between atoms: N_15  and  O_18
REMARK    8  A    between atoms: O_18  and  C_19
REMARK    9  A    between atoms: C_19  and  C_20
REMARK   10  A    between atoms: N_22  and  C_23
REMARK   11  A    between atoms: C_23  and  C_25
REMARK   12  A    between atoms: C_23  and  C_26
REMARK                            x       y       z     vdW  Elec       q    Type
REMARK                         _______ _______ _______ _____ _____    ______ ____
ROOT
ATOM      1  O   UNL     1      -7.611  -1.111  -2.786  0.00  0.00    -0.384 OA
ENDROOT
BRANCH   1   8
ATOM      2  C   UNL     1     -11.165  -2.933  -4.941  0.00  0.00    +0.108 A 
ATOM      3  C   UNL     1     -11.864  -1.996  -5.691  0.00  0.00    +0.031 A 
ATOM      4  C   UNL     1     -11.464  -0.692  -5.726  0.00  0.00    +0.034 A 
ATOM      5  C   UNL     1     -10.337  -0.289  -4.998  0.00  0.00    +0.116 A 
ATOM      6  C   UNL     1      -9.634  -1.242  -4.241  0.00  0.00    +0.132 A 
ATOM      7  C   UNL     1     -10.062  -2.566  -4.223  0.00  0.00    +0.061 A 
ATOM      8  N   UNL     1      -8.595  -0.566  -3.647  0.00  0.00    -0.076 N 
ATOM      9  N   UNL     1      -8.704   0.771  -4.057  0.00  0.00    -0.029 NA
ATOM     10  N   UNL     1      -9.716   0.897  -4.840  0.00  0.00    -0.127 NA
BRANCH   2  11
ATOM     11  S   UNL     1     -11.705  -4.610  -4.916  0.00  0.00    +0.061 S 
ATOM     12  O   UNL     1     -11.210  -5.178  -3.711  0.00  0.00    -0.153 OA
ATOM     13  O   UNL     1     -13.088  -4.596  -5.240  0.00  0.00    -0.153 OA
BRANCH  11  14
ATOM     14  N   UNL     1     -10.936  -5.390  -6.158  0.00  0.00    -0.177 NA
BRANCH  14  16
ATOM     15  C   UNL     1      -9.852  -7.514  -5.614  0.00  0.00    +0.022 C 
ATOM     16  C   UNL     1      -9.639  -6.032  -5.928  0.00  0.00    +0.106 C 
ENDBRANCH  14  16
BRANCH  14  17
ATOM     17  C   UNL     1     -11.553  -5.439  -7.486  0.00  0.00    +0.106 C 
ATOM     18  C   UNL     1     -11.002  -4.300  -8.346  0.00  0.00    +0.022 C 
ENDBRANCH  14  17
ENDBRANCH  11  14
ENDBRANCH   2  11
ENDBRANCH   1   8
BRANCH   1  19
ATOM     19  C   UNL     1      -6.653  -0.158  -2.322  0.00  0.00    +0.358 C 
BRANCH  19  20
ATOM     20  C   UNL     1      -5.660  -0.844  -1.419  0.00  0.00    +0.254 C 
ATOM     21  O   UNL     1      -5.762  -2.031  -1.195  0.00  0.00    -0.272 OA
ATOM     22  N   UNL     1      -4.657  -0.137  -0.860  0.00  0.00    -0.306 N 
ATOM     23  H   UNL     1      -4.564   0.940  -1.063  0.00  0.00    +0.149 HD
BRANCH  22  24
ATOM     24  C   UNL     1      -3.692  -0.803   0.018  0.00  0.00    +0.100 C 
ATOM     25  C   UNL     1      -4.250  -0.858   1.441  0.00  0.00    +0.033 C 
BRANCH  24  26
ATOM     26  C   UNL     1      -2.397  -0.033   0.016  0.00  0.00    -0.024 A 
ATOM     27  C   UNL     1      -2.415   1.349   0.025  0.00  0.00    +0.009 A 
ATOM     28  C   UNL     1      -1.229   2.059   0.019  0.00  0.00    +0.050 A 
ATOM     29  C   UNL     1      -0.017   1.385   0.010  0.00  0.00    +0.162 A 
ATOM     30  C   UNL     1       0.002  -0.004   0.002  0.00  0.00    +0.162 A 
ATOM     31  C   UNL     1      -1.192  -0.710   0.004  0.00  0.00    +0.055 A 
ATOM     32  O   UNL     1       1.181  -0.685  -0.007  0.00  0.00    -0.485 OA
ATOM     33  C   UNL     1       2.347   0.053  -0.387  0.00  0.00    +0.270 C 
ATOM     34  C   UNL     1       2.334   1.392   0.364  0.00  0.00    +0.270 C 
ATOM     35  O   UNL     1       1.143   2.098   0.002  0.00  0.00    -0.485 OA
ENDBRANCH  24  26
ENDBRANCH  22  24
ENDBRANCH  19  20
ENDBRANCH   1  19
TORSDOF 9
