REMARK  Name = ZINC09611044
REMARK  9 active torsions:
REMARK  status: ('A' for Active; 'I' for Inactive)
REMARK    1  A    between atoms: C_1  and  N_2
REMARK    2  A    between atoms: C_6  and  C_7
REMARK    3  A    between atoms: C_7  and  C_8
REMARK    4  A    between atoms: C_11  and  S_20
REMARK    5  A    between atoms: N_12  and  C_13
REMARK    6  A    between atoms: C_13  and  C_14
REMARK    7  A    between atoms: S_20  and  C_21
REMARK    8  A    between atoms: C_21  and  C_22
REMARK    9  A    between atoms: N_24  and  C_25
REMARK                            x       y       z     vdW  Elec       q    Type
REMARK                         _______ _______ _______ _____ _____    ______ ____
ROOT
ATOM      1  C   UNL     1       1.659   4.468   1.454  0.00  0.00    +0.140 A 
ATOM      2  N   UNL     1       2.632   4.420   2.319  0.00  0.00    -0.133 NA
ATOM      3  N   UNL     1       2.417   5.256   3.271  0.00  0.00    -0.122 NA
ATOM      4  C   UNL     1       1.285   5.887   3.064  0.00  0.00    +0.192 A 
ATOM      5  N   UNL     1       0.768   5.408   1.894  0.00  0.00    -0.301 N 
ENDROOT
BRANCH   1   6
ATOM      6  C   UNL     1       1.539   3.645   0.197  0.00  0.00    +0.129 C 
BRANCH   6  12
ATOM      7  C   UNL     1       2.939   0.949   0.818  0.00  0.00    +0.148 C 
ATOM      8  N   UNL     1       1.489   1.157   0.787  0.00  0.00    -0.353 N 
ATOM      9  C   UNL     1       0.544   0.203   1.025  0.00  0.00    +0.085 A 
ATOM     10  C   UNL     1      -0.671   0.774   0.899  0.00  0.00    +0.019 A 
ATOM     11  C   UNL     1      -0.469   2.131   0.581  0.00  0.00    +0.023 A 
ATOM     12  C   UNL     1       0.862   2.337   0.516  0.00  0.00    +0.026 A 
ENDBRANCH   6  12
ENDBRANCH   1   6
BRANCH   5  13
ATOM     13  C   UNL     1      -0.482   5.814   1.248  0.00  0.00    +0.160 C 
BRANCH  13  14
ATOM     14  C   UNL     1      -0.216   6.973   0.323  0.00  0.00    -0.028 A 
ATOM     15  C   UNL     1      -0.192   8.263   0.820  0.00  0.00    +0.005 A 
ATOM     16  C   UNL     1       0.057   9.326  -0.028  0.00  0.00    +0.000 A 
ATOM     17  C   UNL     1       0.271   9.100  -1.375  0.00  0.00    +0.000 A 
ATOM     18  C   UNL     1       0.242   7.811  -1.873  0.00  0.00    +0.000 A 
ATOM     19  C   UNL     1      -0.002   6.747  -1.024  0.00  0.00    +0.005 A 
ENDBRANCH  13  14
ENDBRANCH   5  13
BRANCH   4  20
ATOM     20  S   UNL     1       0.571   7.124   4.095  0.00  0.00    -0.077 S 
BRANCH  20  21
ATOM     21  C   UNL     1       1.821   7.204   5.402  0.00  0.00    +0.173 C 
BRANCH  21  22
ATOM     22  C   UNL     1       1.410   8.228   6.429  0.00  0.00    +0.228 C 
ATOM     23  O   UNL     1       0.374   8.843   6.290  0.00  0.00    -0.275 OA
ATOM     24  N   UNL     1       2.194   8.459   7.500  0.00  0.00    -0.283 N 
ATOM     25  H   UNL     1       3.058   8.025   7.572  0.00  0.00    +0.155 HD
BRANCH  24  26
ATOM     26  C   UNL     1       1.760   9.326   8.511  0.00  0.00    +0.069 A 
ATOM     27  C   UNL     1       0.410   9.624   8.640  0.00  0.00    +0.026 A 
ATOM     28  C   UNL     1      -0.016  10.476   9.641  0.00  0.00    +0.002 A 
ATOM     29  C   UNL     1       0.901  11.040  10.508  0.00  0.00    +0.003 A 
ATOM     30  C   UNL     1       2.247  10.752  10.380  0.00  0.00    +0.040 A 
ATOM     31  C   UNL     1       2.680   9.896   9.384  0.00  0.00    +0.144 A 
ATOM     32  F   UNL     1       3.996   9.613   9.258  0.00  0.00    -0.204 F 
ENDBRANCH  24  26
ENDBRANCH  21  22
ENDBRANCH  20  21
ENDBRANCH   4  20
TORSDOF 8
