REMARK  Name = ZINC39936172
REMARK  7 active torsions:
REMARK  status: ('A' for Active; 'I' for Inactive)
REMARK    1  A    between atoms: C_1  and  C_2
REMARK    2  A    between atoms: C_6  and  C_15
REMARK    3  A    between atoms: N_9  and  C_11
REMARK    4  A    between atoms: C_11  and  C_12
REMARK    5  A    between atoms: C_12  and  C_13
REMARK    6  A    between atoms: C_12  and  C_14
REMARK    7  A    between atoms: C_20  and  N_23
REMARK                            x       y       z     vdW  Elec       q    Type
REMARK                         _______ _______ _______ _____ _____    ______ ____
ROOT
ATOM      1  C   UNL     1      -4.962  -1.328  -0.806  0.00  0.00    +0.253 C 
ATOM      2  O   UNL     1      -3.822  -1.319  -0.378  0.00  0.00    -0.269 OA
ATOM      3  N   UNL     1      -5.931  -1.973  -0.127  0.00  0.00    -0.297 N 
ATOM      4  C   UNL     1      -5.664  -2.542   1.200  0.00  0.00    +0.110 C 
ATOM      5  C   UNL     1      -6.065  -4.021   1.192  0.00  0.00    +0.044 C 
ATOM      6  C   UNL     1      -7.520  -4.148   0.735  0.00  0.00    +0.095 C 
ATOM      7  C   UNL     1      -7.659  -3.603  -0.688  0.00  0.00    +0.044 C 
ATOM      8  C   UNL     1      -7.277  -2.114  -0.699  0.00  0.00    +0.110 C 
ENDROOT
BRANCH   6   9
ATOM      9  N   UNL     1      -7.917  -5.558   0.758  0.00  0.00    -0.289 N 
ATOM     10  C   UNL     1      -8.956  -6.100   1.511  0.00  0.00    +0.070 A 
ATOM     11  C   UNL     1      -9.872  -5.556   2.399  0.00  0.00    +0.028 A 
ATOM     12  C   UNL     1     -10.808  -6.371   3.005  0.00  0.00    +0.002 A 
ATOM     13  C   UNL     1     -10.836  -7.727   2.730  0.00  0.00    +0.002 A 
ATOM     14  C   UNL     1      -9.928  -8.278   1.848  0.00  0.00    +0.028 A 
ATOM     15  C   UNL     1      -8.984  -7.468   1.234  0.00  0.00    +0.067 A 
ATOM     16  N   UNL     1      -7.961  -7.715   0.321  0.00  0.00    -0.306 N 
ATOM     17  H   UNL     1      -7.735  -8.579  -0.058  0.00  0.00    +0.170 HD
ATOM     18  C   UNL     1      -7.343  -6.550   0.051  0.00  0.00    +0.328 A 
ATOM     19  O   UNL     1      -6.406  -6.414  -0.713  0.00  0.00    -0.247 OA
ENDBRANCH   6   9
BRANCH   1  24
ATOM     20  C   UNL     1      -4.099  -0.307  -6.415  0.00  0.00    +0.031 C 
ATOM     21  C   UNL     1      -4.587   0.834  -5.521  0.00  0.00    +0.102 C 
ATOM     22  C   UNL     1      -5.012   0.296  -4.156  0.00  0.00    +0.001 A 
ATOM     23  C   UNL     1      -4.439  -0.375  -3.088  0.00  0.00    +0.028 A 
ATOM     24  C   UNL     1      -5.269  -0.660  -2.018  0.00  0.00    +0.076 A 
ATOM     25  S   UNL     1      -6.822   0.027  -2.555  0.00  0.00    -0.068 S 
ATOM     26  C   UNL     1      -6.349   0.616  -4.052  0.00  0.00    +0.087 A 
ATOM     27  N   UNL     1      -6.799   1.277  -5.169  0.00  0.00    -0.259 N 
ATOM     28  N   UNL     1      -5.802   1.443  -6.086  0.00  0.00    -0.232 NA
ATOM     29  H   UNL     1      -6.045   1.015  -6.967  0.00  0.00    +0.145 HD
BRANCH  27  30
ATOM     30  C   UNL     1      -8.175   1.745  -5.353  0.00  0.00    +0.127 C 
BRANCH  30  31
ATOM     31  C   UNL     1      -8.306   3.170  -4.811  0.00  0.00    +0.002 C 
ATOM     32  C   UNL     1      -9.707   3.704  -5.115  0.00  0.00    +0.009 C 
ATOM     33  C   UNL     1      -8.080   3.162  -3.298  0.00  0.00    +0.009 C 
ENDBRANCH  30  31
ENDBRANCH  27  30
ENDBRANCH   1  24
TORSDOF 4
