REMARK  Name = ZINC15015592
REMARK  4 active torsions:
REMARK  status: ('A' for Active; 'I' for Inactive)
REMARK    1  A    between atoms: C_1  and  C_2
REMARK    2  A    between atoms: C_2  and  N_4
REMARK    3  A    between atoms: C_10  and  C_11
REMARK    4  A    between atoms: C_14  and  C_16
REMARK                            x       y       z     vdW  Elec       q    Type
REMARK                         _______ _______ _______ _____ _____    ______ ____
ROOT
ATOM      1  N   UNL     1       0.000  -0.663  -1.153  0.00  0.00    -0.159 NA
ATOM      2  C   UNL     1       0.018  -1.992  -1.161  0.00  0.00    +0.158 C 
ATOM      3  N   UNL     1       0.025  -2.824  -2.244  0.00  0.00    -0.262 N 
ATOM      4  C   UNL     1       0.044  -4.138  -2.074  0.00  0.00    +0.256 C 
ATOM      5  O   UNL     1       0.050  -4.914  -3.013  0.00  0.00    -0.269 OA
ATOM      6  C   UNL     1       0.056  -4.584  -0.718  0.00  0.00    +0.081 C 
ATOM      7  C   UNL     1       0.077  -5.858  -0.225  0.00  0.00    +0.066 C 
ATOM      8  S   UNL     1       0.045  -3.031   0.161  0.00  0.00    -0.051 S 
ATOM      9  H   UNL     1       0.015  -2.453  -3.139  0.00  0.00    +0.157 HD
ENDROOT
BRANCH   7  10
ATOM     10  C   UNL     1       0.086  -6.075   1.168  0.00  0.00    +0.130 A 
ATOM     11  C   UNL     1       0.113  -7.307   1.797  0.00  0.00    +0.050 A 
ATOM     12  C   UNL     1       0.114  -7.059   3.172  0.00  0.00    +0.050 A 
ATOM     13  C   UNL     1       0.089  -5.692   3.334  0.00  0.00    +0.136 A 
ATOM     14  O   UNL     1       0.078  -5.116   2.118  0.00  0.00    -0.455 OA
BRANCH  13  15
ATOM     15  C   UNL     1       0.080  -4.978   4.625  0.00  0.00    +0.017 A 
ATOM     16  C   UNL     1       0.104  -5.696   5.824  0.00  0.00    +0.013 A 
ATOM     17  C   UNL     1       0.096  -5.022   7.027  0.00  0.00    +0.021 A 
ATOM     18  C   UNL     1       0.064  -3.638   7.049  0.00  0.00    +0.041 A 
ATOM     19  C   UNL     1       0.040  -2.920   5.865  0.00  0.00    +0.021 A 
ATOM     20  C   UNL     1       0.054  -3.581   4.655  0.00  0.00    +0.013 A 
ATOM     21 CL   UNL     1       0.053  -2.798   8.569  0.00  0.00    -0.084 Cl
ENDBRANCH  13  15
ENDBRANCH   7  10
BRANCH   1  23
ATOM     22  C   UNL     1      -0.018   1.503   0.010  0.00  0.00    +0.111 C 
ATOM     23  C   UNL     1       0.002  -0.004   0.002  0.00  0.00    +0.235 C 
ATOM     24  O   UNL     1       0.020  -0.618   1.052  0.00  0.00    -0.274 OA
ENDBRANCH   1  23
TORSDOF 3
