REMARK  Name = ZINC62825832
REMARK  5 active torsions:
REMARK  status: ('A' for Active; 'I' for Inactive)
REMARK    1  A    between atoms: C_1  and  C_2
REMARK    2  A    between atoms: C_4  and  C_20
REMARK    3  A    between atoms: C_5  and  N_19
REMARK    4  A    between atoms: C_6  and  C_8
REMARK    5  A    between atoms: N_16  and  C_17
REMARK                            x       y       z     vdW  Elec       q    Type
REMARK                         _______ _______ _______ _____ _____    ______ ____
ROOT
ATOM      1  C   UNL     1      -0.504   1.530   0.038  0.00  0.00    +0.044 C 
ATOM      2  C   UNL     1      -0.286   0.039   0.014  0.00  0.00    -0.049 A 
ATOM      3  C   UNL     1      -0.102  -0.612  -1.194  0.00  0.00    +0.008 A 
ATOM      4  C   UNL     1       0.099  -1.978  -1.229  0.00  0.00    -0.029 A 
ATOM      5  C   UNL     1       0.116  -2.708  -0.048  0.00  0.00    +0.038 A 
ATOM      6  C   UNL     1      -0.070  -2.052   1.177  0.00  0.00    +0.039 A 
ATOM      7  C   UNL     1      -0.265  -0.670   1.197  0.00  0.00    +0.016 A 
ATOM      8  C   UNL     1       0.298  -2.676  -2.549  0.00  0.00    +0.045 C 
ENDROOT
BRANCH   6   9
ATOM      9  C   UNL     1      -0.053  -2.818   2.439  0.00  0.00    +0.143 A 
ATOM     10  N   UNL     1      -0.712  -3.932   2.655  0.00  0.00    -0.227 NA
ATOM     11  C   UNL     1      -0.473  -4.366   3.917  0.00  0.00    +0.091 A 
ATOM     12  C   UNL     1      -0.910  -5.474   4.650  0.00  0.00    +0.045 A 
ATOM     13  C   UNL     1      -0.481  -5.648   5.946  0.00  0.00    +0.020 A 
ATOM     14  C   UNL     1       0.382  -4.731   6.532  0.00  0.00    +0.017 A 
ATOM     15  C   UNL     1       0.822  -3.634   5.824  0.00  0.00    +0.029 A 
ATOM     16  C   UNL     1       0.401  -3.441   4.516  0.00  0.00    +0.069 A 
ATOM     17  N   UNL     1       0.656  -2.476   3.559  0.00  0.00    -0.327 N 
ATOM     18  C   UNL     1       1.520  -1.304   3.716  0.00  0.00    +0.151 C 
ATOM     19 BR   UNL     1      -1.073  -7.146   6.937  0.00  0.00    -0.050 Br
ENDBRANCH   6   9
BRANCH   5  20
ATOM     20  N   UNL     1       0.317  -4.085  -0.081  0.00  0.00    -0.357 N 
ATOM     21  H   UNL     1       0.349  -4.551  -0.931  0.00  0.00    +0.142 HD
ATOM     22  H   UNL     1       0.425  -4.579   0.747  0.00  0.00    +0.142 HD
ENDBRANCH   5  20
TORSDOF 2
