REMARK  Name = ZINC33262359
REMARK  9 active torsions:
REMARK  status: ('A' for Active; 'I' for Inactive)
REMARK    1  A    between atoms: C_1  and  C_2
REMARK    2  A    between atoms: C_5  and  C_9
REMARK    3  A    between atoms: C_7  and  C_8
REMARK    4  A    between atoms: C_15  and  C_21
REMARK    5  A    between atoms: C_21  and  C_22
REMARK    6  A    between atoms: C_22  and  C_23
REMARK    7  A    between atoms: N_25  and  C_26
REMARK    8  A    between atoms: C_26  and  C_27
REMARK    9  A    between atoms: C_27  and  C_28
REMARK                            x       y       z     vdW  Elec       q    Type
REMARK                         _______ _______ _______ _____ _____    ______ ____
ROOT
ATOM      1  C   UNL     1      -1.875   5.213   0.048  0.00  0.00    +0.094 A 
ATOM      2  C   UNL     1      -0.474   5.162   0.034  0.00  0.00    +0.061 A 
ATOM      3  C   UNL     1      -0.108   3.836   0.024  0.00  0.00    +0.112 A 
ATOM      4  C   UNL     1       1.182   3.140   0.007  0.00  0.00    +0.187 A 
ATOM      5  N   UNL     1       2.438   3.527  -0.003  0.00  0.00    -0.127 NA
ATOM      6  N   UNL     1       3.207   2.494  -0.016  0.00  0.00    -0.134 NA
ATOM      7  C   UNL     1       2.491   1.398  -0.015  0.00  0.00    +0.138 A 
ATOM      8  N   UNL     1       1.184   1.766   0.000  0.00  0.00    -0.283 N 
ATOM      9  C   UNL     1      -0.013   1.076   0.008  0.00  0.00    +0.114 A 
ATOM     10  C   UNL     1      -1.180   1.708   0.017  0.00  0.00    +0.131 A 
ATOM     11  N   UNL     1      -1.259   3.089   0.031  0.00  0.00    -0.234 N 
ATOM     12  N   UNL     1      -2.340   3.978   0.046  0.00  0.00    -0.166 NA
ENDROOT
BRANCH   1  17
ATOM     13  C   UNL     1      -5.066  10.008   0.106  0.00  0.00    +0.044 C 
ATOM     14  C   UNL     1      -4.231   8.753   0.091  0.00  0.00    -0.047 A 
ATOM     15  C   UNL     1      -2.855   8.842  -0.026  0.00  0.00    +0.004 A 
ATOM     16  C   UNL     1      -2.086   7.696  -0.041  0.00  0.00    +0.010 A 
ATOM     17  C   UNL     1      -2.697   6.448   0.063  0.00  0.00    +0.002 A 
ATOM     18  C   UNL     1      -4.083   6.364   0.176  0.00  0.00    +0.013 A 
ATOM     19  C   UNL     1      -4.843   7.517   0.195  0.00  0.00    -0.047 A 
ATOM     20  C   UNL     1      -6.341   7.428   0.323  0.00  0.00    +0.044 C 
ENDBRANCH   1  17
BRANCH   7  21
ATOM     21  C   UNL     1       3.020  -0.013  -0.028  0.00  0.00    +0.086 C 
BRANCH  21  22
ATOM     22  C   UNL     1       3.185  -0.482  -1.474  0.00  0.00    +0.103 C 
BRANCH  22  23
ATOM     23  C   UNL     1       3.715  -1.893  -1.488  0.00  0.00    +0.213 C 
ATOM     24  O   UNL     1       3.938  -2.466  -0.443  0.00  0.00    -0.276 OA
ATOM     25  N   UNL     1       3.940  -2.517  -2.660  0.00  0.00    -0.315 N 
ATOM     26  H   UNL     1       3.738  -1.997  -3.608  0.00  0.00    +0.149 HD
BRANCH  25  27
ATOM     27  C   UNL     1       4.455  -3.889  -2.673  0.00  0.00    +0.108 C 
BRANCH  27  28
ATOM     28  C   UNL     1       4.620  -4.358  -4.120  0.00  0.00    +0.049 C 
BRANCH  28  29
ATOM     29  C   UNL     1       5.149  -5.769  -4.133  0.00  0.00    -0.072 C 
ATOM     30  C   UNL     1       4.295  -6.737  -4.230  0.00  0.00    -0.028 C 
ATOM     31  C   UNL     1       4.669  -8.190  -4.246  0.00  0.00    +0.027 C 
ATOM     32  C   UNL     1       6.159  -8.347  -4.559  0.00  0.00    +0.004 C 
ATOM     33  C   UNL     1       6.950  -7.409  -3.639  0.00  0.00    +0.005 C 
ATOM     34  C   UNL     1       6.634  -5.965  -4.039  0.00  0.00    +0.030 C 
ENDBRANCH  28  29
ENDBRANCH  27  28
ENDBRANCH  25  27
ENDBRANCH  22  23
ENDBRANCH  21  22
ENDBRANCH   7  21
TORSDOF 7
