REMARK  Name = ZINC33936974
REMARK  10 active torsions:
REMARK  status: ('A' for Active; 'I' for Inactive)
REMARK    1  A    between atoms: C_1  and  C_2
REMARK    2  A    between atoms: C_2  and  C_3
REMARK    3  A    between atoms: C_3  and  C_5
REMARK    4  A    between atoms: C_3  and  N_17
REMARK    5  A    between atoms: N_9  and  C_10
REMARK    6  A    between atoms: C_10  and  C_11
REMARK    7  A    between atoms: N_17  and  C_18
REMARK    8  A    between atoms: N_17  and  C_32
REMARK    9  A    between atoms: C_18  and  C_19
REMARK   10  A    between atoms: C_24  and  C_31
REMARK                            x       y       z     vdW  Elec       q    Type
REMARK                         _______ _______ _______ _____ _____    ______ ____
ROOT
ATOM      1  N   UNL     1      -0.824  -1.117  -2.086  0.00  0.00    +0.391 N 
ATOM      2  H   UNL     1       0.013  -1.349  -2.599  0.00  0.00    -0.080 HD
ENDROOT
BRANCH   1   3
ATOM      3  C   UNL     1      -1.828  -2.171  -2.282  0.00  0.00    -0.067 C 
ATOM      4  C   UNL     1      -1.770  -2.667  -3.728  0.00  0.00    -0.015 C 
ATOM      5  C   UNL     1      -2.816  -3.765  -3.932  0.00  0.00    -0.002 C 
ATOM      6  C   UNL     1      -4.209  -3.204  -3.640  0.00  0.00    -0.000 C 
ATOM      7  C   UNL     1      -4.266  -2.708  -2.194  0.00  0.00    -0.002 C 
ATOM      8  C   UNL     1      -3.221  -1.609  -1.990  0.00  0.00    -0.015 C 
ENDBRANCH   1   3
BRANCH   1   9
ATOM      9  C   UNL     1      -0.505  -1.004  -0.656  0.00  0.00    +0.003 C 
BRANCH   9  10
ATOM     10  C   UNL     1       0.186  -2.261  -0.195  0.00  0.00    +0.138 A 
ATOM     11  N   UNL     1       1.019  -2.997  -0.890  0.00  0.00    -0.115 NA
ATOM     12  N   UNL     1       1.392  -3.983  -0.149  0.00  0.00    -0.023 NA
ATOM     13  N   UNL     1       0.819  -3.895   1.000  0.00  0.00    -0.044 NA
ATOM     14  N   UNL     1       0.071  -2.844   1.013  0.00  0.00    -0.228 N 
BRANCH  14  15
ATOM     15  C   UNL     1      -0.751  -2.375   2.131  0.00  0.00    +0.178 C 
BRANCH  15  16
ATOM     16  C   UNL     1      -2.122  -3.052   2.075  0.00  0.00    +0.140 C 
ATOM     17  C   UNL     1      -2.986  -2.619   3.287  0.00  0.00    +0.035 C 
ATOM     18  C   UNL     1      -4.416  -2.845   2.726  0.00  0.00    +0.031 C 
ATOM     19  C   UNL     1      -4.242  -2.488   1.234  0.00  0.00    +0.160 C 
ATOM     20  O   UNL     1      -2.849  -2.610   0.918  0.00  0.00    -0.375 OA
ENDBRANCH  15  16
ENDBRANCH  14  15
ENDBRANCH   9  10
BRANCH   9  22
ATOM     21  C   UNL     1      -0.425   1.443  -0.158  0.00  0.00    +0.002 C 
ATOM     22  C   UNL     1       0.418   0.196  -0.432  0.00  0.00    -0.011 C 
ENDBRANCH   9  22
ENDBRANCH   1   9
BRANCH   1  23
ATOM     23  C   UNL     1      -1.357   0.163  -2.571  0.00  0.00    -0.036 C 
BRANCH  23  24
ATOM     24  C   UNL     1      -1.537   0.098  -4.066  0.00  0.00    +0.001 A 
ATOM     25  C   UNL     1      -2.782   0.163  -4.599  0.00  0.00    +0.017 A 
ATOM     26  C   UNL     1      -2.923   0.097  -6.055  0.00  0.00    -0.001 A 
ATOM     27  C   UNL     1      -4.181   0.160  -6.663  0.00  0.00    +0.010 A 
ATOM     28  C   UNL     1      -4.279   0.096  -8.024  0.00  0.00    +0.004 A 
ATOM     29  C   UNL     1      -3.141  -0.031  -8.809  0.00  0.00    -0.048 A 
ATOM     30  C   UNL     1      -1.892  -0.095  -8.232  0.00  0.00    +0.029 A 
ATOM     31  C   UNL     1      -1.767  -0.031  -6.847  0.00  0.00    +0.049 A 
ATOM     32  N   UNL     1      -0.530  -0.092  -6.243  0.00  0.00    -0.322 N 
ATOM     33  H   UNL     1       0.266  -0.180  -6.790  0.00  0.00    +0.169 HD
ATOM     34  C   UNL     1      -0.410  -0.025  -4.905  0.00  0.00    +0.251 A 
ATOM     35  O   UNL     1       0.701  -0.077  -4.405  0.00  0.00    -0.268 OA
ATOM     36  C   UNL     1      -3.274  -0.100 -10.309  0.00  0.00    +0.044 C 
ENDBRANCH  23  24
ENDBRANCH   1  23
TORSDOF 8
