REMARK  Name = ZINC63829913
REMARK  8 active torsions:
REMARK  status: ('A' for Active; 'I' for Inactive)
REMARK    1  A    between atoms: C_1  and  O_2
REMARK    2  A    between atoms: O_2  and  C_3
REMARK    3  A    between atoms: C_6  and  N_9
REMARK    4  A    between atoms: C_15  and  C_17
REMARK    5  A    between atoms: C_17  and  C_19
REMARK    6  A    between atoms: C_17  and  N_29
REMARK    7  A    between atoms: C_19  and  C_20
REMARK    8  A    between atoms: C_30  and  C_32
REMARK                            x       y       z     vdW  Elec       q    Type
REMARK                         _______ _______ _______ _____ _____    ______ ____
ROOT
ATOM      1  C   UNL     1      -8.373  -5.768  -1.240  0.00  0.00    +0.163 C 
ENDROOT
BRANCH   1   8
ATOM      2  N   UNL     1      -4.889  -2.581   0.035  0.00  0.00    -0.327 N 
ATOM      3  C   UNL     1      -6.138  -1.814   0.150  0.00  0.00    +0.124 C 
ATOM      4  C   UNL     1      -7.044  -2.174  -1.034  0.00  0.00    +0.126 C 
ATOM      5  N   UNL     1      -7.119  -3.638  -1.139  0.00  0.00    -0.297 N 
ATOM      6  C   UNL     1      -5.871  -4.405  -1.254  0.00  0.00    +0.126 C 
ATOM      7  C   UNL     1      -4.964  -4.044  -0.076  0.00  0.00    +0.124 C 
ATOM      8  C   UNL     1      -8.312  -4.266  -1.131  0.00  0.00    +0.236 C 
ATOM      9  O   UNL     1      -9.335  -3.623  -1.035  0.00  0.00    -0.274 OA
BRANCH   2  13
ATOM     10  C   UNL     1      -1.201  -0.638   0.008  0.00  0.00    +0.120 A 
ATOM     11  C   UNL     1      -1.254  -2.024   0.025  0.00  0.00    +0.047 A 
ATOM     12  C   UNL     1      -2.476  -2.668   0.034  0.00  0.00    +0.027 A 
ATOM     13  C   UNL     1      -3.651  -1.928   0.027  0.00  0.00    +0.030 A 
ATOM     14  C   UNL     1      -3.597  -0.541   0.010  0.00  0.00    +0.027 A 
ATOM     15  C   UNL     1      -2.374   0.102   0.007  0.00  0.00    +0.047 A 
BRANCH  10  17
ATOM     16  C   UNL     1       1.169  -0.828   0.001  0.00  0.00    +0.277 C 
ATOM     17  O   UNL     1       0.002  -0.004  -0.001  0.00  0.00    -0.495 OA
ENDBRANCH  10  17
ENDBRANCH   2  13
ENDBRANCH   1   8
BRANCH   1  18
ATOM     18  N   UNL     1      -9.710  -6.171  -1.682  0.00  0.00    -0.299 N 
ATOM     19  C   UNL     1     -10.789  -5.854  -0.940  0.00  0.00    +0.251 C 
ATOM     20  O   UNL     1     -10.653  -5.233   0.098  0.00  0.00    -0.270 OA
ATOM     21  H   UNL     1      -9.819  -6.666  -2.509  0.00  0.00    +0.150 HD
BRANCH  19  22
ATOM     22  C   UNL     1     -12.127  -6.258  -1.383  0.00  0.00    +0.074 A 
ATOM     23  C   UNL     1     -13.354  -6.030  -0.777  0.00  0.00    +0.021 A 
ATOM     24  C   UNL     1     -14.448  -6.536  -1.437  0.00  0.00    +0.008 A 
ATOM     25  C   UNL     1     -14.264  -7.205  -2.602  0.00  0.00    +0.046 A 
ATOM     26  S   UNL     1     -12.602  -7.162  -2.844  0.00  0.00    -0.092 S 
ENDBRANCH  19  22
ENDBRANCH   1  18
BRANCH   1  27
ATOM     27  C   UNL     1      -8.078  -6.391   0.126  0.00  0.00    +0.065 C 
BRANCH  27  28
ATOM     28  C   UNL     1      -8.018  -7.891  -0.009  0.00  0.00    -0.039 C 
ATOM     29  C   UNL     1      -6.911  -8.648  -0.184  0.00  0.00    -0.001 A 
ATOM     30  C   UNL     1      -5.486  -8.314  -0.299  0.00  0.00    +0.010 A 
ATOM     31  C   UNL     1      -4.591  -9.312  -0.475  0.00  0.00    +0.001 A 
ATOM     32  C   UNL     1      -4.989 -10.655  -0.550  0.00  0.00    +0.002 A 
ATOM     33  C   UNL     1      -6.279 -11.039  -0.453  0.00  0.00    +0.026 A 
ATOM     34  C   UNL     1      -7.305 -10.072  -0.266  0.00  0.00    +0.043 A 
ATOM     35  N   UNL     1      -8.605 -10.191  -0.146  0.00  0.00    -0.380 N 
ATOM     36  C   UNL     1      -9.183  -8.855   0.032  0.00  0.00    +0.144 C 
ATOM     37  H   UNL     1      -9.102 -11.024  -0.168  0.00  0.00    +0.160 HD
ENDBRANCH  27  28
ENDBRANCH   1  27
TORSDOF 7
