REMARK  Name = ZINC26106739
REMARK  10 active torsions:
REMARK  status: ('A' for Active; 'I' for Inactive)
REMARK    1  A    between atoms: C_1  and  C_2
REMARK    2  A    between atoms: C_5  and  C_38
REMARK    3  A    between atoms: N_8  and  C_10
REMARK    4  A    between atoms: C_13  and  C_19
REMARK    5  A    between atoms: C_15  and  N_16
REMARK    6  A    between atoms: N_21  and  C_22
REMARK    7  A    between atoms: N_21  and  C_35
REMARK    8  A    between atoms: C_22  and  C_23
REMARK    9  A    between atoms: C_26  and  C_29
REMARK   10  A    between atoms: N_31  and  C_32
REMARK                            x       y       z     vdW  Elec       q    Type
REMARK                         _______ _______ _______ _____ _____    ______ ____
ROOT
ATOM      1  C   UNL     1      -2.746   3.909  -0.728  0.00  0.00    +0.247 C 
ATOM      2  O   UNL     1      -2.696   5.114  -0.573  0.00  0.00    -0.270 OA
ATOM      3  N   UNL     1      -3.673   3.183  -0.073  0.00  0.00    -0.290 N 
ENDROOT
BRANCH   1   7
ATOM      4  C   UNL     1       0.004   1.989  -3.332  0.00  0.00    +0.060 A 
ATOM      5  C   UNL     1      -0.256   1.448  -2.075  0.00  0.00    +0.026 A 
ATOM      6  C   UNL     1      -1.151   2.065  -1.232  0.00  0.00    +0.015 A 
ATOM      7  C   UNL     1      -1.791   3.241  -1.633  0.00  0.00    +0.039 A 
ATOM      8  C   UNL     1      -1.527   3.782  -2.895  0.00  0.00    +0.047 A 
ATOM      9  C   UNL     1      -0.635   3.157  -3.736  0.00  0.00    +0.148 A 
BRANCH   4  15
ATOM     10  C   UNL     1       0.867  -1.964  -6.013  0.00  0.00    +0.009 C 
ATOM     11  C   UNL     1       1.361  -0.570  -5.623  0.00  0.00    +0.003 C 
ATOM     12  C   UNL     1       2.771  -0.673  -5.036  0.00  0.00    +0.009 C 
ATOM     13  C   UNL     1       3.234   0.718  -4.593  0.00  0.00    +0.003 C 
ATOM     14  C   UNL     1       2.239   1.281  -3.575  0.00  0.00    +0.108 C 
ATOM     15  N   UNL     1       0.905   1.360  -4.185  0.00  0.00    -0.328 N 
ATOM     16  C   UNL     1       0.420   0.030  -4.575  0.00  0.00    +0.108 C 
ATOM     17  C   UNL     1       3.301   1.645  -5.808  0.00  0.00    +0.009 C 
ENDBRANCH   4  15
BRANCH   9  18
ATOM     18  N   UNL     1      -0.355   3.728  -5.073  0.00  0.00    +0.058 N 
ATOM     19  O   UNL     1      -0.914   4.751  -5.427  0.00  0.00    -0.126 OA
ATOM     20  O   UNL     1       0.434   3.176  -5.818  0.00  0.00    -0.126 OA
ENDBRANCH   9  18
ENDBRANCH   1   7
BRANCH   3  21
ATOM     21  C   UNL     1      -4.706   3.856   0.719  0.00  0.00    +0.077 C 
ATOM     22  C   UNL     1      -4.931   5.348   0.464  0.00  0.00    +0.024 C 
ATOM     23  C   UNL     1      -4.245   4.886   1.752  0.00  0.00    +0.024 C 
ENDBRANCH   3  21
BRANCH   3  24
ATOM     24  C   UNL     1      -3.648   1.720  -0.152  0.00  0.00    +0.143 C 
BRANCH  24  25
ATOM     25  C   UNL     1      -3.680   1.141   1.239  0.00  0.00    -0.030 A 
ATOM     26  C   UNL     1      -2.503   0.993   1.951  0.00  0.00    +0.006 A 
ATOM     27  C   UNL     1      -2.525   0.469   3.227  0.00  0.00    +0.013 A 
ATOM     28  C   UNL     1      -3.738   0.078   3.796  0.00  0.00    +0.037 A 
ATOM     29  C   UNL     1      -4.922   0.225   3.070  0.00  0.00    +0.013 A 
ATOM     30  C   UNL     1      -4.886   0.755   1.797  0.00  0.00    +0.006 A 
BRANCH  28  31
ATOM     31  C   UNL     1      -3.770  -0.489   5.161  0.00  0.00    +0.244 C 
ATOM     32  O   UNL     1      -4.827  -0.829   5.654  0.00  0.00    -0.270 OA
ATOM     33  N   UNL     1      -2.625  -0.629   5.858  0.00  0.00    -0.308 N 
ATOM     34  H   UNL     1      -1.668  -0.322   5.412  0.00  0.00    +0.149 HD
BRANCH  33  35
ATOM     35  C   UNL     1      -2.656  -1.191   7.211  0.00  0.00    +0.073 C 
ATOM     36  C   UNL     1      -1.806  -0.503   8.281  0.00  0.00    +0.024 C 
ATOM     37  C   UNL     1      -1.382  -1.864   7.726  0.00  0.00    +0.024 C 
ENDBRANCH  33  35
ENDBRANCH  28  31
ENDBRANCH  24  25
ENDBRANCH   3  24
TORSDOF 8
