REMARK  Name = ZINC19236500
REMARK  9 active torsions:
REMARK  status: ('A' for Active; 'I' for Inactive)
REMARK    1  A    between atoms: C_1  and  C_2
REMARK    2  A    between atoms: C_12  and  C_14
REMARK    3  A    between atoms: C_14  and  N_15
REMARK    4  A    between atoms: N_15  and  C_16
REMARK    5  A    between atoms: N_15  and  C_22
REMARK    6  A    between atoms: C_16  and  C_17
REMARK    7  A    between atoms: C_22  and  C_23
REMARK    8  A    between atoms: N_27  and  C_28
REMARK    9  A    between atoms: C_28  and  C_29
REMARK                            x       y       z     vdW  Elec       q    Type
REMARK                         _______ _______ _______ _____ _____    ______ ____
ROOT
ATOM      1  N   UNL     1       1.515  -2.876   5.328  0.00  0.00    +0.390 N 
ATOM      2  H   UNL     1       1.920  -1.958   5.432  0.00  0.00    -0.080 HD
ENDROOT
BRANCH   1   3
ATOM      3  C   UNL     1       0.120  -2.748   4.885  0.00  0.00    -0.036 C 
BRANCH   3  15
ATOM      4  C   UNL     1      -3.357  -0.095   9.792  0.00  0.00    +0.046 C 
ATOM      5  C   UNL     1      -2.737   0.521   8.565  0.00  0.00    -0.026 A 
ATOM      6  C   UNL     1      -2.856   1.876   8.336  0.00  0.00    +0.005 A 
ATOM      7  C   UNL     1      -2.289   2.456   7.210  0.00  0.00    +0.001 A 
ATOM      8  C   UNL     1      -1.602   1.695   6.306  0.00  0.00    +0.010 A 
ATOM      9  C   UNL     1      -1.468   0.319   6.519  0.00  0.00    -0.001 A 
ATOM     10  C   UNL     1      -2.037  -0.272   7.663  0.00  0.00    +0.052 A 
ATOM     11  N   UNL     1      -1.898  -1.628   7.870  0.00  0.00    -0.322 N 
ATOM     12  H   UNL     1      -2.294  -2.035   8.656  0.00  0.00    +0.169 HD
ATOM     13  C   UNL     1      -1.222  -2.395   6.996  0.00  0.00    +0.251 A 
ATOM     14  O   UNL     1      -1.120  -3.591   7.211  0.00  0.00    -0.268 OA
ATOM     15  C   UNL     1      -0.629  -1.851   5.837  0.00  0.00    +0.001 A 
ATOM     16  C   UNL     1      -0.739  -0.526   5.571  0.00  0.00    +0.017 A 
ENDBRANCH   3  15
ENDBRANCH   1   3
BRANCH   1  17
ATOM     17  C   UNL     1       2.277  -3.638   4.329  0.00  0.00    -0.035 C 
BRANCH  17  18
ATOM     18  C   UNL     1       2.350  -2.851   3.046  0.00  0.00    -0.027 A 
ATOM     19  C   UNL     1       3.222  -1.876   2.690  0.00  0.00    +0.009 A 
ATOM     20  C   UNL     1       3.098  -1.288   1.445  0.00  0.00    +0.008 A 
ATOM     21  C   UNL     1       2.107  -1.702   0.618  0.00  0.00    +0.045 A 
ATOM     22  S   UNL     1       1.314  -2.967   1.596  0.00  0.00    -0.103 S 
ENDBRANCH  17  18
ENDBRANCH   1  17
BRANCH   1  23
ATOM     23  C   UNL     1       1.557  -3.579   6.617  0.00  0.00    +0.001 C 
BRANCH  23  24
ATOM     24  C   UNL     1       2.974  -3.603   7.130  0.00  0.00    +0.135 A 
ATOM     25  N   UNL     1       3.878  -4.521   6.890  0.00  0.00    -0.115 NA
ATOM     26  N   UNL     1       4.960  -4.185   7.504  0.00  0.00    -0.023 NA
ATOM     27  N   UNL     1       4.769  -3.075   8.129  0.00  0.00    -0.044 NA
ATOM     28  N   UNL     1       3.558  -2.682   7.918  0.00  0.00    -0.227 N 
BRANCH  28  29
ATOM     29  C   UNL     1       2.936  -1.464   8.442  0.00  0.00    +0.182 C 
BRANCH  29  30
ATOM     30  C   UNL     1       2.294  -1.760   9.773  0.00  0.00    -0.026 A 
ATOM     31  C   UNL     1       0.980  -2.184   9.827  0.00  0.00    +0.005 A 
ATOM     32  C   UNL     1       0.391  -2.456  11.048  0.00  0.00    +0.000 A 
ATOM     33  C   UNL     1       1.117  -2.304  12.215  0.00  0.00    +0.000 A 
ATOM     34  C   UNL     1       2.432  -1.880  12.161  0.00  0.00    +0.000 A 
ATOM     35  C   UNL     1       3.022  -1.613  10.939  0.00  0.00    +0.005 A 
ENDBRANCH  29  30
ENDBRANCH  28  29
ENDBRANCH  23  24
ENDBRANCH   1  23
TORSDOF 8
