REMARK  Name = ZINC15959315
REMARK  4 active torsions:
REMARK  status: ('A' for Active; 'I' for Inactive)
REMARK    1  A    between atoms: C_4  and  C_7
REMARK    2  A    between atoms: N_25  and  C_28
REMARK    3  A    between atoms: C_33  and  C_34
REMARK    4  A    between atoms: N_36  and  C_37
REMARK                            x       y       z     vdW  Elec       q    Type
REMARK                         _______ _______ _______ _____ _____    ______ ____
ROOT
ATOM      1  C   UNL     1       4.282  -0.421   4.951  0.00  0.00    +0.155 C 
ATOM      2  C   UNL     1       4.962   0.895   4.628  0.00  0.00    +0.046 A 
ATOM      3  C   UNL     1       5.365   1.244   3.387  0.00  0.00    -0.015 A 
ATOM      4  C   UNL     1       5.978   2.555   3.500  0.00  0.00    +0.003 A 
ATOM      5  C   UNL     1       6.570   3.404   2.561  0.00  0.00    +0.010 A 
ATOM      6  C   UNL     1       7.055   4.601   3.028  0.00  0.00    +0.001 A 
ATOM      7  C   UNL     1       6.969   4.960   4.363  0.00  0.00    +0.002 A 
ATOM      8  C   UNL     1       6.389   4.137   5.314  0.00  0.00    +0.026 A 
ATOM      9  C   UNL     1       5.887   2.916   4.868  0.00  0.00    +0.047 A 
ATOM     10  N   UNL     1       5.268   1.888   5.519  0.00  0.00    -0.356 N 
ATOM     11  H   UNL     1       5.073   1.865   6.469  0.00  0.00    +0.166 HD
ATOM     12  C   UNL     1       5.197   0.415   2.138  0.00  0.00    +0.069 C 
ATOM     13  C   UNL     1       4.955  -1.048   2.526  0.00  0.00    +0.170 C 
ATOM     14  N   UNL     1       4.018  -1.092   3.670  0.00  0.00    -0.260 N 
ATOM     15  C   UNL     1       2.938  -1.769   3.273  0.00  0.00    +0.317 C 
ATOM     16  O   UNL     1       1.994  -2.024   3.994  0.00  0.00    -0.252 OA
ATOM     17  N   UNL     1       3.018  -2.138   1.986  0.00  0.00    -0.192 N 
ATOM     18  C   UNL     1       4.180  -1.745   1.426  0.00  0.00    +0.248 C 
ATOM     19  O   UNL     1       4.532  -1.914   0.279  0.00  0.00    -0.273 OA
ENDROOT
BRANCH   1  23
ATOM     20  C   UNL     1       0.631   0.292   7.051  0.00  0.00    +0.000 A 
ATOM     21  C   UNL     1       1.768  -0.076   7.746  0.00  0.00    +0.000 A 
ATOM     22  C   UNL     1       2.949  -0.307   7.066  0.00  0.00    +0.006 A 
ATOM     23  C   UNL     1       2.994  -0.170   5.691  0.00  0.00    -0.021 A 
ATOM     24  C   UNL     1       1.859   0.204   4.997  0.00  0.00    +0.006 A 
ATOM     25  C   UNL     1       0.676   0.430   5.676  0.00  0.00    +0.000 A 
ENDBRANCH   1  23
BRANCH  17  26
ATOM     26  C   UNL     1       2.019  -2.839   1.308  0.00  0.00    +0.058 A 
ATOM     27  C   UNL     1       2.027  -4.226   1.294  0.00  0.00    +0.025 A 
ATOM     28  C   UNL     1       1.037  -4.918   0.624  0.00  0.00    +0.002 A 
ATOM     29  C   UNL     1       0.031  -4.234  -0.039  0.00  0.00    +0.001 A 
ATOM     30  C   UNL     1       0.004  -2.856  -0.031  0.00  0.00    +0.015 A 
ATOM     31  C   UNL     1       1.002  -2.144   0.639  0.00  0.00    +0.059 A 
BRANCH  31  32
ATOM     32  C   UNL     1       0.982  -0.668   0.647  0.00  0.00    +0.246 C 
ATOM     33  O   UNL     1       1.849  -0.052   1.235  0.00  0.00    -0.270 OA
ATOM     34  N   UNL     1       0.002  -0.004   0.002  0.00  0.00    -0.308 N 
ATOM     35  H   UNL     1      -0.690  -0.496  -0.467  0.00  0.00    +0.149 HD
BRANCH  34  36
ATOM     36  C   UNL     1      -0.018   1.461   0.010  0.00  0.00    +0.073 C 
ATOM     37  C   UNL     1      -0.768   1.972   1.257  0.00  0.00    +0.022 C 
ATOM     38  C   UNL     1      -1.536   3.220   0.752  0.00  0.00    +0.002 C 
ATOM     39  C   UNL     1      -1.983   2.796  -0.668  0.00  0.00    +0.002 C 
ATOM     40  C   UNL     1      -0.790   1.984  -1.214  0.00  0.00    +0.022 C 
ENDBRANCH  34  36
ENDBRANCH  31  32
ENDBRANCH  17  26
TORSDOF 4
