REMARK  Name = ZINC27851941
REMARK  6 active torsions:
REMARK  status: ('A' for Active; 'I' for Inactive)
REMARK    1  A    between atoms: C_11  and  C_14
REMARK    2  A    between atoms: C_14  and  C_15
REMARK    3  A    between atoms: N_17  and  C_18
REMARK    4  A    between atoms: C_21  and  N_24
REMARK    5  A    between atoms: N_27  and  C_28
REMARK    6  A    between atoms: C_28  and  C_29
REMARK                            x       y       z     vdW  Elec       q    Type
REMARK                         _______ _______ _______ _____ _____    ______ ____
ROOT
ATOM      1  C   UNL     1       5.021   6.393  -0.754  0.00  0.00    +0.222 C 
ATOM      2  O   UNL     1       6.124   6.784  -1.073  0.00  0.00    -0.275 OA
ATOM      3  N   UNL     1       4.220   5.816  -1.672  0.00  0.00    -0.285 N 
ATOM      4  H   UNL     1       3.251   5.393  -1.368  0.00  0.00    +0.155 HD
ENDROOT
BRANCH   3   5
ATOM      5  C   UNL     1       4.621   5.754  -3.013  0.00  0.00    +0.034 A 
ATOM      6  C   UNL     1       3.678   5.866  -4.025  0.00  0.00    +0.025 A 
ATOM      7  C   UNL     1       4.074   5.812  -5.347  0.00  0.00    +0.025 A 
ATOM      8  C   UNL     1       5.414   5.633  -5.663  0.00  0.00    +0.035 A 
ATOM      9  C   UNL     1       6.357   5.515  -4.650  0.00  0.00    +0.025 A 
ATOM     10  C   UNL     1       5.961   5.576  -3.329  0.00  0.00    +0.025 A 
BRANCH   8  11
ATOM     11  N   UNL     1       5.816   5.572  -7.004  0.00  0.00    -0.269 N 
ATOM     12  C   UNL     1       5.190   6.326  -7.929  0.00  0.00    +0.304 C 
ATOM     13  O   UNL     1       4.224   6.995  -7.617  0.00  0.00    -0.253 OA
ATOM     14  N   UNL     1       5.635   6.338  -9.202  0.00  0.00    -0.297 N 
ATOM     15  H   UNL     1       6.641   4.909  -7.301  0.00  0.00    +0.156 HD
ATOM     16  H   UNL     1       6.509   5.732  -9.484  0.00  0.00    +0.150 HD
BRANCH  14  17
ATOM     17  C   UNL     1       4.955   7.157 -10.208  0.00  0.00    +0.137 C 
BRANCH  17  18
ATOM     18  C   UNL     1       5.655   6.992 -11.558  0.00  0.00    +0.135 C 
ATOM     19  C   UNL     1       5.034   7.941 -12.606  0.00  0.00    +0.035 C 
ATOM     20  C   UNL     1       5.048   7.119 -13.914  0.00  0.00    +0.031 C 
ATOM     21  C   UNL     1       5.677   5.769 -13.501  0.00  0.00    +0.160 C 
ATOM     22  O   UNL     1       5.429   5.665 -12.082  0.00  0.00    -0.375 OA
ENDBRANCH  17  18
ENDBRANCH  14  17
ENDBRANCH   8  11
ENDBRANCH   3   5
BRANCH   1  23
ATOM     23  C   UNL     1       4.546   6.553   0.667  0.00  0.00    +0.135 C 
BRANCH  23  34
ATOM     24  C   UNL     1       4.103  12.182   0.075  0.00  0.00    +0.001 A 
ATOM     25  C   UNL     1       3.586  10.939  -0.279  0.00  0.00    +0.001 A 
ATOM     26  C   UNL     1       4.137   9.789   0.205  0.00  0.00    +0.009 A 
ATOM     27  C   UNL     1       5.236   9.856   1.067  0.00  0.00    -0.007 A 
ATOM     28  C   UNL     1       5.765  11.120   1.429  0.00  0.00    -0.017 A 
ATOM     29  C   UNL     1       5.176  12.283   0.908  0.00  0.00    +0.008 A 
ATOM     30  C   UNL     1       6.871  11.185   2.297  0.00  0.00    +0.012 A 
ATOM     31  C   UNL     1       7.441  10.059   2.794  0.00  0.00    +0.047 A 
ATOM     32  C   UNL     1       6.959   8.787   2.469  0.00  0.00    +0.136 A 
ATOM     33  C   UNL     1       5.862   8.658   1.611  0.00  0.00    +0.031 A 
ATOM     34  C   UNL     1       5.621   7.222   1.484  0.00  0.00    +0.007 A 
ATOM     35  C   UNL     1       6.552   6.619   2.242  0.00  0.00    +0.200 A 
ATOM     36  O   UNL     1       7.338   7.541   2.821  0.00  0.00    -0.463 OA
ENDBRANCH  23  34
ENDBRANCH   1  23
TORSDOF 6
