REMARK  Name = ZINC39725577
REMARK  5 active torsions:
REMARK  status: ('A' for Active; 'I' for Inactive)
REMARK    1  A    between atoms: C_1  and  C_2
REMARK    2  A    between atoms: C_7  and  N_8
REMARK    3  A    between atoms: C_9  and  S_23
REMARK    4  A    between atoms: S_23  and  C_24
REMARK    5  A    between atoms: C_24  and  C_25
REMARK                            x       y       z     vdW  Elec       q    Type
REMARK                         _______ _______ _______ _____ _____    ______ ____
ROOT
ATOM      1  N   UNL     1      -0.281  -0.238   2.411  0.00  0.00    -0.234 N 
ATOM      2  C   UNL     1      -1.514   0.144   3.105  0.00  0.00    +0.259 C 
ATOM      3  N   UNL     1      -1.460   1.020   4.277  0.00  0.00    -0.248 NA
ATOM      4  C   UNL     1      -0.331   1.466   4.714  0.00  0.00    +0.101 C 
ATOM      5  C   UNL     1       0.085   2.342   5.834  0.00  0.00    +0.028 A 
ATOM      6  C   UNL     1      -0.590   3.014   6.836  0.00  0.00    +0.012 A 
ATOM      7  C   UNL     1       0.118   3.773   7.755  0.00  0.00    +0.001 A 
ATOM      8  C   UNL     1       1.496   3.860   7.672  0.00  0.00    +0.002 A 
ATOM      9  C   UNL     1       2.186   3.196   6.677  0.00  0.00    +0.028 A 
ATOM     10  C   UNL     1       1.492   2.423   5.739  0.00  0.00    +0.074 A 
ATOM     11  N   UNL     1       1.918   1.686   4.684  0.00  0.00    -0.240 NA
ATOM     12  C   UNL     1       0.945   1.103   4.040  0.00  0.00    +0.152 C 
ATOM     13  C   UNL     1       0.909   0.216   2.859  0.00  0.00    +0.274 C 
ATOM     14  O   UNL     1       1.939  -0.099   2.294  0.00  0.00    -0.268 OA
ENDROOT
BRANCH   1  21
ATOM     15  C   UNL     1      -0.379  -3.049   2.841  0.00  0.00    +0.045 C 
ATOM     16  C   UNL     1      -0.385  -2.453   1.456  0.00  0.00    -0.029 A 
ATOM     17  C   UNL     1      -0.445  -3.276   0.349  0.00  0.00    +0.005 A 
ATOM     18  C   UNL     1      -0.451  -2.730  -0.921  0.00  0.00    +0.000 A 
ATOM     19  C   UNL     1      -0.397  -1.358  -1.088  0.00  0.00    +0.002 A 
ATOM     20  C   UNL     1      -0.337  -0.529   0.015  0.00  0.00    +0.024 A 
ATOM     21  C   UNL     1      -0.337  -1.074   1.293  0.00  0.00    +0.042 A 
ENDBRANCH   1  21
BRANCH   2  22
ATOM     22  S   UNL     1      -2.592   0.945   1.885  0.00  0.00    -0.106 S 
BRANCH  22  23
ATOM     23  C   UNL     1      -1.704   2.465   1.446  0.00  0.00    +0.168 C 
BRANCH  23  24
ATOM     24  C   UNL     1      -2.462   3.195   0.367  0.00  0.00    +0.229 C 
ATOM     25  O   UNL     1      -3.498   2.735  -0.064  0.00  0.00    -0.275 OA
ATOM     26  N   UNL     1      -1.988   4.359  -0.120  0.00  0.00    -0.264 N 
ATOM     27  C   UNL     1      -2.686   5.032  -1.115  0.00  0.00    +0.164 A 
ATOM     28  N   UNL     1      -3.818   4.692  -1.692  0.00  0.00    -0.233 NA
ATOM     29  C   UNL     1      -4.359   5.446  -2.631  0.00  0.00    +0.120 A 
ATOM     30  C   UNL     1      -3.697   6.580  -2.968  0.00  0.00    +0.068 A 
ATOM     31  S   UNL     1      -2.294   6.485  -1.868  0.00  0.00    -0.061 S 
ATOM     32  H   UNL     1      -1.159   4.726   0.224  0.00  0.00    +0.157 HD
ENDBRANCH  23  24
ENDBRANCH  22  23
ENDBRANCH   2  22
TORSDOF 4
