REMARK  Name = ZINC13071241
REMARK  7 active torsions:
REMARK  status: ('A' for Active; 'I' for Inactive)
REMARK    1  A    between atoms: C_1  and  C_2
REMARK    2  A    between atoms: C_5  and  S_10
REMARK    3  A    between atoms: C_7  and  C_8
REMARK    4  A    between atoms: S_10  and  N_13
REMARK    5  A    between atoms: N_13  and  C_14
REMARK    6  A    between atoms: C_14  and  C_16
REMARK    7  A    between atoms: C_14  and  C_17
REMARK                            x       y       z     vdW  Elec       q    Type
REMARK                         _______ _______ _______ _____ _____    ______ ____
ROOT
ATOM      1  S   UNL     1      -2.737   3.596   0.051  0.00  0.00    +0.059 S 
ATOM      2  O   UNL     1      -2.938   5.003   0.053  0.00  0.00    -0.153 OA
ATOM      3  O   UNL     1      -2.819   2.816  -1.134  0.00  0.00    -0.153 OA
ENDROOT
BRANCH   1   8
ATOM      4  C   UNL     1      -6.744   1.244   3.915  0.00  0.00    +0.044 C 
ATOM      5  C   UNL     1      -5.745   1.833   2.954  0.00  0.00    -0.036 A 
ATOM      6  C   UNL     1      -5.223   1.060   1.938  0.00  0.00    +0.006 A 
ATOM      7  C   UNL     1      -4.310   1.602   1.050  0.00  0.00    +0.029 A 
ATOM      8  C   UNL     1      -3.906   2.918   1.182  0.00  0.00    +0.106 A 
ATOM      9  C   UNL     1      -4.419   3.703   2.193  0.00  0.00    +0.044 A 
ATOM     10  C   UNL     1      -5.345   3.164   3.089  0.00  0.00    +0.068 A 
BRANCH  10  11
ATOM     11  C   UNL     1      -5.899   3.999   4.175  0.00  0.00    +0.387 C 
ATOM     12  O   UNL     1      -6.786   3.564   4.883  0.00  0.00    -0.241 OA
ATOM     13  O   UNL     1      -5.421   5.241   4.380  0.00  0.00    -0.241 OA
ENDBRANCH  10  11
ENDBRANCH   1   8
BRANCH   1  14
ATOM     14  N   UNL     1      -1.231   3.333   0.687  0.00  0.00    -0.183 NA
ATOM     15  H   UNL     1      -0.679   4.085   0.955  0.00  0.00    +0.149 HD
BRANCH  14  16
ATOM     16  C   UNL     1      -0.731   1.965   0.844  0.00  0.00    +0.105 C 
ATOM     17  C   UNL     1       0.089   1.577  -0.388  0.00  0.00    +0.031 C 
BRANCH  16  18
ATOM     18  C   UNL     1       0.140   1.886   2.072  0.00  0.00    -0.011 A 
ATOM     19  C   UNL     1       0.789   3.017   2.533  0.00  0.00    +0.008 A 
ATOM     20  C   UNL     1       1.587   2.946   3.658  0.00  0.00    +0.020 A 
ATOM     21  C   UNL     1       1.738   1.742   4.325  0.00  0.00    +0.042 A 
ATOM     22  C   UNL     1       1.089   0.611   3.864  0.00  0.00    +0.040 A 
ATOM     23  C   UNL     1       0.285   0.684   2.741  0.00  0.00    +0.047 A 
ATOM     24 CL   UNL     1      -0.536  -0.734   2.167  0.00  0.00    -0.083 Cl
ATOM     25 CL   UNL     1       2.741   1.653   5.739  0.00  0.00    -0.083 Cl
ENDBRANCH  16  18
ENDBRANCH  14  16
ENDBRANCH   1  14
TORSDOF 5
