REMARK  Name = ZINC21722953
REMARK  7 active torsions:
REMARK  status: ('A' for Active; 'I' for Inactive)
REMARK    1  A    between atoms: C_1  and  C_2
REMARK    2  A    between atoms: C_2  and  C_3
REMARK    3  A    between atoms: C_3  and  N_4
REMARK    4  A    between atoms: C_17  and  C_19
REMARK    5  A    between atoms: C_22  and  O_25
REMARK    6  A    between atoms: O_25  and  C_26
REMARK    7  A    between atoms: C_30  and  C_33
REMARK                            x       y       z     vdW  Elec       q    Type
REMARK                         _______ _______ _______ _____ _____    ______ ____
ROOT
ATOM      1  N   UNL     1       2.936   5.350  -2.651  0.00  0.00    -0.299 N 
ATOM      2  C   UNL     1       1.942   4.897  -1.860  0.00  0.00    +0.307 C 
ATOM      3  O   UNL     1       0.793   5.233  -2.075  0.00  0.00    -0.252 OA
ATOM      4  N   UNL     1       2.222   4.072  -0.832  0.00  0.00    -0.242 N 
ATOM      5  C   UNL     1       3.543   3.694  -0.601  0.00  0.00    +0.060 A 
ATOM      6  C   UNL     1       4.229   2.878  -1.485  0.00  0.00    +0.025 A 
ATOM      7  C   UNL     1       5.499   2.435  -1.157  0.00  0.00    +0.002 A 
ATOM      8  C   UNL     1       6.080   2.804   0.042  0.00  0.00    +0.002 A 
ATOM      9  C   UNL     1       5.407   3.637   0.918  0.00  0.00    +0.025 A 
ATOM     10  C   UNL     1       4.144   4.095   0.583  0.00  0.00    +0.053 A 
ATOM     11  N   UNL     1       3.432   4.971   1.392  0.00  0.00    -0.316 N 
ATOM     12  C   UNL     1       2.266   4.676   2.021  0.00  0.00    +0.017 C 
ATOM     13  C   UNL     1       1.218   4.064   1.443  0.00  0.00    +0.037 C 
ATOM     14  C   UNL     1       1.147   3.593   0.011  0.00  0.00    +0.148 C 
ATOM     15  C   UNL     1       0.043   3.806   2.189  0.00  0.00    +0.163 C 
ATOM     16  O   UNL     1      -0.897   3.270   1.637  0.00  0.00    -0.292 OA
ATOM     17  C   UNL     1      -0.081   4.171   3.638  0.00  0.00    +0.091 C 
ATOM     18  C   UNL     1       1.317   4.145   4.268  0.00  0.00    +0.068 C 
ATOM     19  C   UNL     1       2.201   5.107   3.477  0.00  0.00    +0.063 C 
ATOM     20  H   UNL     1       3.975   5.046  -2.456  0.00  0.00    +0.150 HD
ATOM     21  H   UNL     1       3.806   5.992   1.560  0.00  0.00    +0.152 HD
ENDROOT
BRANCH  14  22
ATOM     22  C   UNL     1       1.171   2.086   0.002  0.00  0.00    -0.022 A 
ATOM     23  C   UNL     1       2.279   1.410   0.477  0.00  0.00    +0.009 A 
ATOM     24  C   UNL     1       2.303   0.029   0.470  0.00  0.00    +0.046 A 
ATOM     25  C   UNL     1       1.213  -0.680  -0.013  0.00  0.00    +0.120 A 
ATOM     26  C   UNL     1       0.102   0.000  -0.489  0.00  0.00    +0.046 A 
ATOM     27  C   UNL     1       0.083   1.381  -0.480  0.00  0.00    +0.009 A 
BRANCH  25  28
ATOM     28  O   UNL     1       1.235  -2.039  -0.021  0.00  0.00    -0.495 OA
ATOM     29  C   UNL     1       0.078  -2.703  -0.534  0.00  0.00    +0.277 C 
ENDBRANCH  25  28
ENDBRANCH  14  22
BRANCH  18  30
ATOM     30  C   UNL     1       1.238   4.590   5.706  0.00  0.00    +0.109 A 
ATOM     31  C   UNL     1       1.628   3.872   6.774  0.00  0.00    +0.045 A 
ATOM     32  C   UNL     1       1.376   4.667   7.916  0.00  0.00    +0.041 A 
ATOM     33  C   UNL     1       0.847   5.823   7.477  0.00  0.00    +0.195 A 
ATOM     34  O   UNL     1       0.771   5.773   6.137  0.00  0.00    -0.468 OA
ENDBRANCH  18  30
BRANCH   1  35
ATOM     35  C   UNL     1       2.631   6.246  -3.769  0.00  0.00    +0.105 C 
BRANCH  35  37
ATOM     36  C   UNL     1       3.608   7.544  -5.667  0.00  0.00    +0.005 C 
ATOM     37  C   UNL     1       3.926   6.608  -4.499  0.00  0.00    +0.015 C 
ENDBRANCH  35  37
ENDBRANCH   1  35
TORSDOF 5
