REMARK  Name = ZINC59040358
REMARK  7 active torsions:
REMARK  status: ('A' for Active; 'I' for Inactive)
REMARK    1  A    between atoms: C_1  and  S_2
REMARK    2  A    between atoms: S_2  and  C_3
REMARK    3  A    between atoms: C_8  and  N_9
REMARK    4  A    between atoms: C_10  and  C_12
REMARK    5  A    between atoms: C_12  and  S_13
REMARK    6  A    between atoms: S_13  and  C_14
REMARK    7  A    between atoms: N_19  and  N_20
REMARK                            x       y       z     vdW  Elec       q    Type
REMARK                         _______ _______ _______ _____ _____    ______ ____
ROOT
ATOM      1  C   UNL     1      -0.330  -7.915  -0.208  0.00  0.00    +0.211 A 
ATOM      2  N   UNL     1      -0.345  -9.242  -0.369  0.00  0.00    -0.186 NA
ATOM      3  C   UNL     1      -0.987  -9.803   0.634  0.00  0.00    +0.232 A 
ATOM      4  N   UNL     1      -1.400  -8.823   1.465  0.00  0.00    -0.245 N 
ATOM      5  N   UNL     1      -0.960  -7.614   0.903  0.00  0.00    -0.144 NA
ATOM      6  N   UNL     1      -1.203 -11.159   0.805  0.00  0.00    -0.205 N 
ATOM      7  H   UNL     1      -1.690 -11.478   1.580  0.00  0.00    +0.177 HD
ATOM      8  H   UNL     1      -1.899  -8.932   2.289  0.00  0.00    +0.192 HD
ENDROOT
BRANCH   6   9
ATOM      9  N   UNL     1      -0.717 -12.070  -0.141  0.00  0.00    -0.189 NA
ATOM     10  C   UNL     1      -0.998 -13.315  -0.035  0.00  0.00    +0.037 C 
ATOM     11  C   UNL     1      -1.764 -13.837   1.160  0.00  0.00    +0.052 C 
ATOM     12  C   UNL     1      -2.946 -14.671   0.654  0.00  0.00    +0.006 C 
ATOM     13  C   UNL     1      -2.433 -15.759  -0.290  0.00  0.00    +0.001 C 
ATOM     14  C   UNL     1      -1.799 -15.117  -1.525  0.00  0.00    +0.006 C 
ATOM     15  C   UNL     1      -0.579 -14.299  -1.104  0.00  0.00    +0.052 C 
ENDBRANCH   6   9
BRANCH   1  16
ATOM     16  S   UNL     1       0.419  -6.758  -1.306  0.00  0.00    -0.075 S 
BRANCH  16  17
ATOM     17  C   UNL     1       0.102  -5.149  -0.531  0.00  0.00    +0.173 C 
BRANCH  17  19
ATOM     18  N   UNL     1       0.587  -2.768  -0.998  0.00  0.00    -0.284 N 
ATOM     19  C   UNL     1       0.699  -4.056  -1.380  0.00  0.00    +0.228 C 
ATOM     20  O   UNL     1       1.281  -4.336  -2.407  0.00  0.00    -0.275 OA
ATOM     21  H   UNL     1       0.193  -2.550  -0.139  0.00  0.00    +0.155 HD
BRANCH  18  27
ATOM     22  C   UNL     1       1.407  -0.510  -1.309  0.00  0.00    +0.029 A 
ATOM     23  C   UNL     1       1.858   0.497  -2.151  0.00  0.00    +0.016 A 
ATOM     24  C   UNL     1       1.937   0.276  -3.513  0.00  0.00    +0.001 A 
ATOM     25  C   UNL     1       1.567  -0.947  -4.041  0.00  0.00    +0.002 A 
ATOM     26  C   UNL     1       1.116  -1.956  -3.211  0.00  0.00    +0.024 A 
ATOM     27  C   UNL     1       1.038  -1.745  -1.842  0.00  0.00    +0.047 A 
BRANCH  22  29
ATOM     28  C   UNL     1       1.876   1.479   0.632  0.00  0.00    +0.090 C 
ATOM     29  S   UNL     1       1.306  -0.231   0.427  0.00  0.00    -0.127 S 
ENDBRANCH  22  29
ENDBRANCH  18  27
ENDBRANCH  17  19
ENDBRANCH  16  17
ENDBRANCH   1  16
TORSDOF 6
