REMARK  Name = ZINC28535678
REMARK  5 active torsions:
REMARK  status: ('A' for Active; 'I' for Inactive)
REMARK    1  A    between atoms: C_6  and  C_7
REMARK    2  A    between atoms: C_7  and  S_8
REMARK    3  A    between atoms: S_8  and  C_9
REMARK    4  A    between atoms: N_15  and  N_16
REMARK    5  A    between atoms: N_17  and  C_18
REMARK                            x       y       z     vdW  Elec       q    Type
REMARK                         _______ _______ _______ _____ _____    ______ ____
ROOT
ATOM      1  C   UNL     1      -0.017   1.361   0.011  0.00  0.00    +0.210 A 
ATOM      2  N   UNL     1       1.099   2.031  -0.201  0.00  0.00    -0.121 NA
ATOM      3  N   UNL     1       2.249   1.460  -0.214  0.00  0.00    -0.126 NA
ATOM      4  C   UNL     1       2.374   0.165  -0.016  0.00  0.00    +0.212 A 
ATOM      5  C   UNL     1       1.211  -0.617   0.218  0.00  0.00    +0.312 A 
ATOM      6  O   UNL     1       1.290  -1.819   0.405  0.00  0.00    -0.262 OA
ATOM      7  N   UNL     1       0.013   0.013   0.227  0.00  0.00    -0.205 N 
ATOM      8  N   UNL     1       3.634  -0.434  -0.035  0.00  0.00    -0.294 N 
ATOM      9  H   UNL     1       3.725  -1.528   0.037  0.00  0.00    +0.154 HD
ENDROOT
BRANCH   8  10
ATOM     10  C   UNL     1       4.781   0.355  -0.147  0.00  0.00    +0.035 A 
ATOM     11  C   UNL     1       5.883  -0.114  -0.853  0.00  0.00    +0.043 A 
ATOM     12  C   UNL     1       7.014   0.672  -0.967  0.00  0.00    +0.044 A 
ATOM     13  C   UNL     1       7.054   1.920  -0.369  0.00  0.00    +0.040 A 
ATOM     14  C   UNL     1       5.961   2.387   0.339  0.00  0.00    +0.044 A 
ATOM     15  C   UNL     1       4.824   1.608   0.451  0.00  0.00    +0.043 A 
ATOM     16 CL   UNL     1       6.016   3.953   1.086  0.00  0.00    -0.083 Cl
ATOM     17 CL   UNL     1       8.388   0.090  -1.854  0.00  0.00    -0.083 Cl
ENDBRANCH   8  10
BRANCH   7  18
ATOM     18  N   UNL     1      -1.140  -0.684   0.446  0.00  0.00    -0.293 N 
ATOM     19  H   UNL     1      -1.102  -1.770   0.618  0.00  0.00    +0.163 HD
ATOM     20  H   UNL     1      -2.108  -0.161   0.450  0.00  0.00    +0.163 HD
ENDBRANCH   7  18
BRANCH   1  21
ATOM     21  S   UNL     1      -1.560   2.211   0.008  0.00  0.00    -0.080 S 
BRANCH  21  22
ATOM     22  C   UNL     1      -0.989   3.898  -0.315  0.00  0.00    +0.112 C 
BRANCH  22  28
ATOM     23  C   UNL     1      -2.816   5.069  -1.562  0.00  0.00    +0.006 A 
ATOM     24  C   UNL     1      -3.906   5.918  -1.605  0.00  0.00    +0.020 A 
ATOM     25  C   UNL     1      -4.347   6.536  -0.449  0.00  0.00    +0.041 A 
ATOM     26  C   UNL     1      -3.700   6.299   0.751  0.00  0.00    +0.020 A 
ATOM     27  C   UNL     1      -2.614   5.446   0.794  0.00  0.00    +0.006 A 
ATOM     28  C   UNL     1      -2.174   4.828  -0.362  0.00  0.00    -0.037 A 
ATOM     29 CL   UNL     1      -5.712   7.607  -0.503  0.00  0.00    -0.084 Cl
ENDBRANCH  22  28
ENDBRANCH  21  22
ENDBRANCH   1  21
TORSDOF 5
