REMARK  Name = ZINC59385912
REMARK  10 active torsions:
REMARK  status: ('A' for Active; 'I' for Inactive)
REMARK    1  A    between atoms: C_1  and  C_2
REMARK    2  A    between atoms: C_2  and  O_3
REMARK    3  A    between atoms: O_3  and  C_4
REMARK    4  A    between atoms: C_7  and  C_10
REMARK    5  A    between atoms: C_12  and  C_19
REMARK    6  A    between atoms: C_13  and  C_18
REMARK    7  A    between atoms: N_21  and  N_22
REMARK    8  A    between atoms: C_23  and  C_24
REMARK    9  A    between atoms: C_27  and  O_30
REMARK   10  A    between atoms: O_30  and  C_31
REMARK                            x       y       z     vdW  Elec       q    Type
REMARK                         _______ _______ _______ _____ _____    ______ ____
ROOT
ATOM      1  C   UNL     1       1.275  -5.998  -1.753  0.00  0.00    +0.142 C 
ATOM      2  C   UNL     1       2.686  -6.507  -1.534  0.00  0.00    +0.057 C 
ATOM      3  C   UNL     1       3.317  -7.077  -2.582  0.00  0.00    +0.019 C 
ATOM      4  N   UNL     1       2.704  -7.189  -3.799  0.00  0.00    -0.273 N 
ATOM      5  C   UNL     1       1.461  -6.757  -4.047  0.00  0.00    +0.304 C 
ATOM      6  O   UNL     1       1.000  -6.901  -5.162  0.00  0.00    -0.252 OA
ATOM      7  N   UNL     1       0.706  -6.167  -3.100  0.00  0.00    -0.288 N 
ATOM      8  C   UNL     1       4.721  -7.597  -2.408  0.00  0.00    +0.061 C 
ATOM      9  H   UNL     1       3.197  -7.606  -4.523  0.00  0.00    +0.156 HD
ATOM     10  H   UNL     1      -0.192  -5.861  -3.302  0.00  0.00    +0.151 HD
ENDROOT
BRANCH   1  14
ATOM     11  C   UNL     1       1.221  -1.829  -0.814  0.00  0.00    +0.121 A 
ATOM     12  C   UNL     1       0.812  -2.759   0.130  0.00  0.00    +0.046 A 
ATOM     13  C   UNL     1       0.830  -4.106  -0.176  0.00  0.00    +0.009 A 
ATOM     14  C   UNL     1       1.256  -4.527  -1.422  0.00  0.00    -0.022 A 
ATOM     15  C   UNL     1       1.665  -3.603  -2.365  0.00  0.00    +0.009 A 
ATOM     16  C   UNL     1       1.643  -2.254  -2.066  0.00  0.00    +0.046 A 
BRANCH  11  17
ATOM     17  O   UNL     1       1.204  -0.503  -0.516  0.00  0.00    -0.492 OA
BRANCH  17  19
ATOM     18  C   UNL     1       0.808   1.384   0.941  0.00  0.00    +0.048 C 
ATOM     19  C   UNL     1       0.758  -0.138   0.792  0.00  0.00    +0.225 C 
ENDBRANCH  17  19
ENDBRANCH  11  17
ENDBRANCH   1  14
BRANCH   2  20
ATOM     20  C   UNL     1       3.320  -6.389  -0.273  0.00  0.00    +0.263 C 
ATOM     21  O   UNL     1       3.071  -7.188   0.611  0.00  0.00    -0.269 OA
ATOM     22  N   UNL     1       4.199  -5.392  -0.052  0.00  0.00    -0.203 N 
ATOM     23  H   UNL     1       4.451  -4.798  -0.776  0.00  0.00    +0.178 HD
BRANCH  22  24
ATOM     24  N   UNL     1       4.750  -5.213   1.224  0.00  0.00    -0.187 NA
ATOM     25  C   UNL     1       5.596  -4.253   1.437  0.00  0.00    +0.138 C 
BRANCH  25  26
ATOM     26  C   UNL     1       6.176  -4.065   2.779  0.00  0.00    -0.005 A 
ATOM     27  C   UNL     1       5.819  -4.923   3.823  0.00  0.00    +0.013 A 
ATOM     28  C   UNL     1       6.363  -4.744   5.076  0.00  0.00    +0.046 A 
ATOM     29  C   UNL     1       7.265  -3.713   5.303  0.00  0.00    +0.120 A 
ATOM     30  C   UNL     1       7.622  -2.857   4.269  0.00  0.00    +0.046 A 
ATOM     31  C   UNL     1       7.087  -3.032   3.011  0.00  0.00    +0.013 A 
BRANCH  29  32
ATOM     32  O   UNL     1       7.799  -3.540   6.540  0.00  0.00    -0.495 OA
ATOM     33  C   UNL     1       8.720  -2.459   6.704  0.00  0.00    +0.277 C 
ENDBRANCH  29  32
ENDBRANCH  25  26
ENDBRANCH  22  24
ENDBRANCH   2  20
TORSDOF 7
