REMARK  Name = ZINC38740509
REMARK  8 active torsions:
REMARK  status: ('A' for Active; 'I' for Inactive)
REMARK    1  A    between atoms: C_1  and  N_2
REMARK    2  A    between atoms: N_2  and  C_3
REMARK    3  A    between atoms: N_2  and  C_31
REMARK    4  A    between atoms: C_3  and  C_4
REMARK    5  A    between atoms: C_4  and  C_5
REMARK    6  A    between atoms: C_5  and  N_6
REMARK    7  A    between atoms: C_7  and  C_9
REMARK    8  A    between atoms: C_15  and  C_17
REMARK                            x       y       z     vdW  Elec       q    Type
REMARK                         _______ _______ _______ _____ _____    ______ ____
ROOT
ATOM      1  C   UNL     1      -4.413  -2.982   5.087  0.00  0.00    +0.091 C 
ATOM      2  C   UNL     1      -5.149  -3.821   4.039  0.00  0.00    +0.040 C 
ATOM      3  C   UNL     1      -6.455  -4.309   4.594  0.00  0.00    -0.030 C 
ATOM      4  C   UNL     1      -6.745  -4.331   5.855  0.00  0.00    -0.030 C 
ATOM      5  C   UNL     1      -5.819  -3.861   6.939  0.00  0.00    +0.040 C 
ATOM      6  C   UNL     1      -4.388  -3.761   6.408  0.00  0.00    +0.091 C 
ENDROOT
BRANCH   6   7
ATOM      7  C   UNL     1      -3.522  -3.037   7.407  0.00  0.00    +0.220 C 
ATOM      8  O   UNL     1      -3.345  -1.842   7.301  0.00  0.00    -0.275 OA
ATOM      9  N   UNL     1      -2.945  -3.718   8.416  0.00  0.00    -0.298 N 
ATOM     10  C   UNL     1      -3.063  -5.181   8.496  0.00  0.00    +0.126 C 
ATOM     11  C   UNL     1      -1.654  -5.783   8.570  0.00  0.00    +0.125 C 
ATOM     12  N   UNL     1      -0.895  -5.075   9.611  0.00  0.00    -0.314 N 
ATOM     13  C   UNL     1      -0.777  -3.613   9.531  0.00  0.00    +0.125 C 
ATOM     14  C   UNL     1      -2.181  -3.011   9.454  0.00  0.00    +0.126 C 
ATOM     15  C   UNL     1      -0.300  -5.777  10.652  0.00  0.00    +0.099 A 
ATOM     16  C   UNL     1      -0.307  -7.169  10.639  0.00  0.00    +0.042 A 
ATOM     17  C   UNL     1       0.289  -7.855  11.682  0.00  0.00    +0.005 A 
ATOM     18  C   UNL     1       0.875  -7.123  12.707  0.00  0.00    +0.018 A 
ATOM     19  C   UNL     1       0.845  -5.744  12.656  0.00  0.00    +0.084 A 
ATOM     20  N   UNL     1       0.274  -5.116  11.645  0.00  0.00    -0.350 N 
ATOM     21  H   UNL     1       0.271  -4.146  11.632  0.00  0.00    +0.166 HD
ENDBRANCH   6   7
BRANCH   1  23
ATOM     22  N   UNL     1      -2.781  -2.056   3.475  0.00  0.00    -0.315 N 
ATOM     23  C   UNL     1      -3.002  -2.722   4.626  0.00  0.00    +0.217 C 
ATOM     24  O   UNL     1      -2.065  -3.112   5.290  0.00  0.00    -0.275 OA
ATOM     25  H   UNL     1      -3.530  -1.744   2.944  0.00  0.00    +0.149 HD
BRANCH  22  26
ATOM     26  C   UNL     1      -1.409  -1.802   3.027  0.00  0.00    +0.105 C 
BRANCH  26  27
ATOM     27  C   UNL     1      -1.438  -1.035   1.704  0.00  0.00    +0.037 C 
BRANCH  27  28
ATOM     28  C   UNL     1      -0.006  -0.770   1.236  0.00  0.00    +0.106 C 
BRANCH  28  30
ATOM     29  C   UNL     1      -0.042   1.430  -0.028  0.00  0.00    +0.129 C 
ATOM     30  N   UNL     1      -0.034  -0.035  -0.031  0.00  0.00    -0.333 N 
BRANCH  30  31
ATOM     31  C   UNL     1      -0.052  -0.731  -1.242  0.00  0.00    +0.029 A 
ATOM     32  C   UNL     1      -0.049  -2.120  -1.246  0.00  0.00    +0.023 A 
ATOM     33  C   UNL     1      -0.068  -2.805  -2.445  0.00  0.00    +0.002 A 
ATOM     34  C   UNL     1      -0.088  -2.110  -3.640  0.00  0.00    +0.000 A 
ATOM     35  C   UNL     1      -0.091  -0.727  -3.639  0.00  0.00    +0.002 A 
ATOM     36  C   UNL     1      -0.078  -0.036  -2.444  0.00  0.00    +0.023 A 
ENDBRANCH  30  31
ENDBRANCH  28  30
ENDBRANCH  27  28
ENDBRANCH  26  27
ENDBRANCH  22  26
ENDBRANCH   1  23
TORSDOF 7
