REMARK  Name = ZINC30683787
REMARK  8 active torsions:
REMARK  status: ('A' for Active; 'I' for Inactive)
REMARK    1  A    between atoms: C_1  and  C_2
REMARK    2  A    between atoms: C_4  and  C_30
REMARK    3  A    between atoms: N_8  and  N_9
REMARK    4  A    between atoms: C_10  and  C_12
REMARK    5  A    between atoms: C_16  and  C_17
REMARK    6  A    between atoms: C_17  and  C_18
REMARK    7  A    between atoms: C_17  and  C_19
REMARK    8  A    between atoms: C_23  and  C_26
REMARK                            x       y       z     vdW  Elec       q    Type
REMARK                         _______ _______ _______ _____ _____    ______ ____
ROOT
ATOM      1  C   UNL     1       4.684   0.958  -0.241  0.00  0.00    +0.079 A 
ATOM      2  C   UNL     1       4.198  -0.211   0.388  0.00  0.00    +0.148 A 
ATOM      3  N   UNL     1       2.912  -0.075   0.557  0.00  0.00    -0.172 NA
ATOM      4  N   UNL     1       2.516   1.165   0.044  0.00  0.00    -0.218 N 
ATOM      5  C   UNL     1       3.604   1.794  -0.439  0.00  0.00    +0.061 A 
ATOM      6  C   UNL     1       1.212   1.669   0.039  0.00  0.00    +0.154 A 
ATOM      7  C   UNL     1       0.135   0.791   0.067  0.00  0.00    +0.049 A 
ATOM      8  C   UNL     1      -1.151   1.302   0.056  0.00  0.00    +0.017 A 
ATOM      9  C   UNL     1      -1.315   2.680   0.030  0.00  0.00    +0.073 A 
ATOM     10  C   UNL     1      -0.199   3.494   0.004  0.00  0.00    +0.125 A 
ATOM     11  N   UNL     1       1.014   2.977   0.009  0.00  0.00    -0.236 NA
ENDROOT
BRANCH   1  13
ATOM     12  N   UNL     1       7.058   0.375  -0.256  0.00  0.00    -0.230 N 
ATOM     13  C   UNL     1       6.083   1.234  -0.614  0.00  0.00    +0.263 C 
ATOM     14  O   UNL     1       6.358   2.236  -1.246  0.00  0.00    -0.269 OA
ATOM     15  H   UNL     1       6.810  -0.531   0.316  0.00  0.00    +0.173 HD
BRANCH  12  23
ATOM     16  C   UNL     1       9.636  -3.429   1.596  0.00  0.00    +0.066 C 
ATOM     17  C   UNL     1      10.005  -2.195   0.814  0.00  0.00    +0.044 A 
ATOM     18  C   UNL     1      11.325  -1.951   0.471  0.00  0.00    +0.046 A 
ATOM     19  C   UNL     1      11.622  -0.804  -0.250  0.00  0.00    +0.044 A 
ATOM     20  N   UNL     1      10.641   0.018  -0.586  0.00  0.00    -0.219 NA
ATOM     21  C   UNL     1       9.389  -0.245  -0.242  0.00  0.00    +0.232 A 
ATOM     22  N   UNL     1       9.073  -1.329   0.451  0.00  0.00    -0.219 NA
ATOM     23  N   UNL     1       8.388   0.637  -0.611  0.00  0.00    -0.232 N 
ATOM     24  C   UNL     1      13.043  -0.498  -0.645  0.00  0.00    +0.066 C 
ATOM     25  H   UNL     1       8.636   1.543  -1.182  0.00  0.00    +0.173 HD
ENDBRANCH  12  23
ENDBRANCH   1  13
BRANCH   9  26
ATOM     26  C   UNL     1      -2.697   3.283   0.023  0.00  0.00    +0.419 C 
ATOM     27  F   UNL     1      -2.597   4.678  -0.011  0.00  0.00    -0.166 F 
ATOM     28  F   UNL     1      -3.394   2.837  -1.105  0.00  0.00    -0.166 F 
ATOM     29  F   UNL     1      -3.381   2.893   1.179  0.00  0.00    -0.166 F 
ENDBRANCH   9  26
BRANCH   5  30
ATOM     30  C   UNL     1       3.636   3.158  -1.079  0.00  0.00    +0.032 C 
ATOM     31  C   UNL     1       4.584   4.067  -0.294  0.00  0.00    +0.014 C 
ATOM     32  C   UNL     1       4.128   3.033  -2.522  0.00  0.00    +0.014 C 
ENDBRANCH   5  30
TORSDOF 4
