REMARK  Name = ZINC32528098
REMARK  11 active torsions:
REMARK  status: ('A' for Active; 'I' for Inactive)
REMARK    1  A    between atoms: C_1  and  C_2
REMARK    2  A    between atoms: C_2  and  C_3
REMARK    3  A    between atoms: C_3  and  C_5
REMARK    4  A    between atoms: C_3  and  S_26
REMARK    5  A    between atoms: N_7  and  C_8
REMARK    6  A    between atoms: C_11  and  S_14
REMARK    7  A    between atoms: S_14  and  N_17
REMARK    8  A    between atoms: N_17  and  C_18
REMARK    9  A    between atoms: C_18  and  C_19
REMARK   10  A    between atoms: C_19  and  C_20
REMARK   11  A    between atoms: S_26  and  C_27
REMARK                            x       y       z     vdW  Elec       q    Type
REMARK                         _______ _______ _______ _____ _____    ______ ____
ROOT
ATOM      1  C   UNL     1      -4.352   0.477   5.053  0.00  0.00    +0.034 A 
ATOM      2  C   UNL     1      -3.370  -0.350   5.582  0.00  0.00    +0.025 A 
ATOM      3  C   UNL     1      -2.037  -0.062   5.365  0.00  0.00    +0.030 A 
ATOM      4  C   UNL     1      -1.680   1.048   4.621  0.00  0.00    +0.105 A 
ATOM      5  C   UNL     1      -2.656   1.876   4.098  0.00  0.00    +0.030 A 
ATOM      6  C   UNL     1      -3.991   1.591   4.308  0.00  0.00    +0.025 A 
ENDROOT
BRANCH   1   9
ATOM      7  C   UNL     1      -6.092  -0.387   6.427  0.00  0.00    +0.231 C 
ATOM      8  O   UNL     1      -5.285  -0.571   7.314  0.00  0.00    -0.274 OA
ATOM      9  N   UNL     1      -5.704   0.187   5.271  0.00  0.00    -0.285 N 
ATOM     10  H   UNL     1      -6.449   0.428   4.499  0.00  0.00    +0.155 HD
BRANCH   7  11
ATOM     11  C   UNL     1      -7.529  -0.801   6.617  0.00  0.00    +0.138 C 
BRANCH  11  13
ATOM     12  C   UNL     1      -7.535  -2.141   4.509  0.00  0.00    +0.005 C 
ATOM     13  C   UNL     1      -7.741  -2.195   6.024  0.00  0.00    +0.020 C 
ENDBRANCH  11  13
BRANCH  11  14
ATOM     14  S   UNL     1      -7.918  -0.832   8.385  0.00  0.00    -0.093 S 
BRANCH  14  15
ATOM     15  C   UNL     1      -9.670  -1.006   8.309  0.00  0.00    +0.098 A 
ATOM     16  C   UNL     1     -10.410  -1.021   9.501  0.00  0.00    +0.035 A 
ATOM     17  C   UNL     1     -11.765  -1.149   9.457  0.00  0.00    +0.012 A 
ATOM     18  C   UNL     1     -12.384  -1.276   8.196  0.00  0.00    +0.000 A 
ATOM     19  C   UNL     1     -13.775  -1.419   8.079  0.00  0.00    +0.010 A 
ATOM     20  C   UNL     1     -14.339  -1.539   6.845  0.00  0.00    +0.001 A 
ATOM     21  C   UNL     1     -13.552  -1.523   5.696  0.00  0.00    +0.002 A 
ATOM     22  C   UNL     1     -12.200  -1.387   5.773  0.00  0.00    +0.028 A 
ATOM     23  C   UNL     1     -11.582  -1.260   7.029  0.00  0.00    +0.072 A 
ATOM     24  N   UNL     1     -10.255  -1.125   7.134  0.00  0.00    -0.240 NA
ENDBRANCH  14  15
ENDBRANCH  11  14
ENDBRANCH   7  11
ENDBRANCH   1   9
BRANCH   4  25
ATOM     25  S   UNL     1       0.022   1.412   4.346  0.00  0.00    +0.058 S 
ATOM     26  O   UNL     1       0.745   0.795   5.403  0.00  0.00    -0.153 OA
ATOM     27  O   UNL     1       0.101   2.806   4.081  0.00  0.00    -0.153 OA
BRANCH  25  28
ATOM     28  N   UNL     1       0.469   0.639   2.952  0.00  0.00    -0.190 NA
ATOM     29  H   UNL     1       1.085  -0.270   3.015  0.00  0.00    +0.148 HD
BRANCH  28  30
ATOM     30  C   UNL     1      -0.128   1.032   1.673  0.00  0.00    +0.110 C 
BRANCH  30  31
ATOM     31  C   UNL     1       0.700   0.451   0.524  0.00  0.00    +0.052 C 
BRANCH  31  32
ATOM     32  C   UNL     1       0.086   0.855  -0.791  0.00  0.00    -0.046 A 
ATOM     33  C   UNL     1      -0.868   0.050  -1.385  0.00  0.00    +0.003 A 
ATOM     34  C   UNL     1      -1.434   0.423  -2.590  0.00  0.00    +0.000 A 
ATOM     35  C   UNL     1      -1.040   1.596  -3.205  0.00  0.00    +0.000 A 
ATOM     36  C   UNL     1      -0.082   2.398  -2.614  0.00  0.00    +0.000 A 
ATOM     37  C   UNL     1       0.481   2.028  -1.407  0.00  0.00    +0.003 A 
ENDBRANCH  31  32
ENDBRANCH  30  31
ENDBRANCH  28  30
ENDBRANCH  25  28
ENDBRANCH   4  25
TORSDOF 10
