REMARK  Name = ZINC22449212
REMARK  4 active torsions:
REMARK  status: ('A' for Active; 'I' for Inactive)
REMARK    1  A    between atoms: C_1  and  C_2
REMARK    2  A    between atoms: C_3  and  C_16
REMARK    3  A    between atoms: C_16  and  C_17
REMARK    4  A    between atoms: C_21  and  N_23
REMARK                            x       y       z     vdW  Elec       q    Type
REMARK                         _______ _______ _______ _____ _____    ______ ____
ROOT
ATOM      1  C   UNL     1      -2.504   4.054   0.048  0.00  0.00    +0.066 C 
ATOM      2  C   UNL     1      -1.211   3.280   0.031  0.00  0.00    +0.050 A 
ATOM      3  C   UNL     1      -1.234   1.916   0.018  0.00  0.00    +0.042 A 
ATOM      4  C   UNL     1      -0.015   1.216   0.009  0.00  0.00    +0.256 A 
ATOM      5  O   UNL     1       0.002  -0.004   0.002  0.00  0.00    -0.267 OA
ATOM      6  N   UNL     1       1.138   1.920   0.002  0.00  0.00    -0.295 N 
ATOM      7  H   UNL     1       2.104   1.393  -0.011  0.00  0.00    +0.172 HD
ATOM      8  C   UNL     1       1.099   3.280   0.009  0.00  0.00    +0.198 A 
ATOM      9  N   UNL     1      -0.049   3.929   0.024  0.00  0.00    -0.221 NA
ATOM     10  N   UNL     1       2.271   3.986   0.001  0.00  0.00    -0.301 N 
ATOM     11  C   UNL     1       3.180   3.510   1.052  0.00  0.00    +0.108 C 
ATOM     12  C   UNL     1       4.530   4.219   0.921  0.00  0.00    +0.019 C 
ATOM     13  C   UNL     1       4.321   5.731   1.048  0.00  0.00    +0.003 C 
ATOM     14  C   UNL     1       3.334   6.193  -0.027  0.00  0.00    +0.019 C 
ATOM     15  C   UNL     1       2.018   5.427   0.131  0.00  0.00    +0.108 C 
ENDROOT
BRANCH   3  16
ATOM     16  C   UNL     1      -2.544   1.172   0.020  0.00  0.00    +0.077 C 
BRANCH  16  17
ATOM     17  C   UNL     1      -2.927   0.824  -1.395  0.00  0.00    -0.041 A 
ATOM     18  C   UNL     1      -3.696   1.700  -2.139  0.00  0.00    +0.004 A 
ATOM     19  C   UNL     1      -4.043   1.382  -3.438  0.00  0.00    +0.002 A 
ATOM     20  C   UNL     1      -3.629   0.185  -3.992  0.00  0.00    +0.033 A 
ATOM     21  C   UNL     1      -2.863  -0.692  -3.247  0.00  0.00    +0.126 A 
ATOM     22  C   UNL     1      -2.513  -0.373  -1.949  0.00  0.00    +0.036 A 
BRANCH  21  23
ATOM     23  N   UNL     1      -2.420  -1.974  -3.840  0.00  0.00    +0.056 N 
ATOM     24  O   UNL     1      -1.746  -2.748  -3.183  0.00  0.00    -0.126 OA
ATOM     25  O   UNL     1      -2.729  -2.255  -4.984  0.00  0.00    -0.126 OA
ENDBRANCH  21  23
ENDBRANCH  16  17
ENDBRANCH   3  16
TORSDOF 3
