REMARK  Name = ZINC40679551
REMARK  5 active torsions:
REMARK  status: ('A' for Active; 'I' for Inactive)
REMARK    1  A    between atoms: C_1  and  C_2
REMARK    2  A    between atoms: C_2  and  C_3
REMARK    3  A    between atoms: C_2  and  C_4
REMARK    4  A    between atoms: C_4  and  C_5
REMARK    5  A    between atoms: C_5  and  N_6
REMARK                            x       y       z     vdW  Elec       q    Type
REMARK                         _______ _______ _______ _____ _____    ______ ____
ROOT
ATOM      1  N   UNL     1      -2.790  -2.565  -0.107  0.00  0.00    -0.299 N 
ATOM      2  C   UNL     1      -3.021  -3.888  -0.217  0.00  0.00    +0.303 C 
ATOM      3  O   UNL     1      -2.096  -4.652  -0.417  0.00  0.00    -0.253 OA
ATOM      4  N   UNL     1      -4.277  -4.364  -0.107  0.00  0.00    -0.275 N 
ATOM      5  C   UNL     1      -4.553  -5.806  -0.103  0.00  0.00    +0.137 C 
ATOM      6  C   UNL     1      -5.555  -6.166  -1.181  0.00  0.00    +0.124 C 
ATOM      7  C   UNL     1      -4.880  -6.815  -2.358  0.00  0.00    -0.022 A 
ATOM      8  C   UNL     1      -3.848  -7.710  -2.115  0.00  0.00    +0.006 A 
ATOM      9  C   UNL     1      -3.204  -8.338  -3.162  0.00  0.00    +0.000 A 
ATOM     10  C   UNL     1      -3.592  -8.073  -4.463  0.00  0.00    +0.000 A 
ATOM     11  C   UNL     1      -4.615  -7.181  -4.706  0.00  0.00    +0.004 A 
ATOM     12  C   UNL     1      -5.262  -6.544  -3.655  0.00  0.00    -0.041 A 
ATOM     13  C   UNL     1      -6.355  -5.565  -3.992  0.00  0.00    +0.054 C 
ATOM     14  C   UNL     1      -7.264  -5.318  -2.789  0.00  0.00    +0.113 C 
ATOM     15  N   UNL     1      -6.387  -5.063  -1.628  0.00  0.00    -0.291 N 
ATOM     16  C   UNL     1      -6.402  -3.842  -1.076  0.00  0.00    +0.234 C 
ATOM     17  O   UNL     1      -7.227  -3.034  -1.446  0.00  0.00    -0.274 OA
ATOM     18  C   UNL     1      -5.435  -3.461   0.022  0.00  0.00    +0.205 C 
ATOM     19  H   UNL     1      -3.533  -1.948  -0.021  0.00  0.00    +0.150 HD
ENDROOT
BRANCH   1  20
ATOM     20  C   UNL     1      -1.415  -2.058  -0.118  0.00  0.00    +0.106 C 
BRANCH  20  21
ATOM     21  C   UNL     1      -1.432  -0.535   0.021  0.00  0.00    +0.022 C 
BRANCH  21  23
ATOM     22  C   UNL     1      -0.017   1.524   0.022  0.00  0.00    +0.007 C 
ATOM     23  C   UNL     1       0.003  -0.005   0.010  0.00  0.00    -0.016 C 
ATOM     24  C   UNL     1       0.745  -0.516   1.247  0.00  0.00    +0.007 C 
ENDBRANCH  21  23
ENDBRANCH  20  21
ENDBRANCH   1  20
TORSDOF 3
