REMARK  Name = ZINC13810881
REMARK  3 active torsions:
REMARK  status: ('A' for Active; 'I' for Inactive)
REMARK    1  A    between atoms: C_4  and  C_7
REMARK    2  A    between atoms: C_10  and  C_13
REMARK    3  A    between atoms: C_15  and  C_23
REMARK                            x       y       z     vdW  Elec       q    Type
REMARK                         _______ _______ _______ _____ _____    ______ ____
ROOT
ATOM      1  C   UNL     1       7.111  -2.962  -0.049  0.00  0.00    +0.055 C 
ATOM      2  C   UNL     1       7.314  -4.449  -0.110  0.00  0.00    +0.088 C 
ATOM      3  C   UNL     1       8.573  -4.806  -0.910  0.00  0.00    +0.151 C 
ATOM      4  N   UNL     1       9.629  -3.869  -0.534  0.00  0.00    -0.202 N 
ATOM      5  C   UNL     1       9.372  -2.588  -0.122  0.00  0.00    +0.270 A 
ATOM      6  N   UNL     1      10.530  -2.029   0.116  0.00  0.00    -0.088 NA
ATOM      7  N   UNL     1      11.485  -2.866  -0.107  0.00  0.00    -0.021 NA
ATOM      8  N   UNL     1      11.012  -4.004  -0.502  0.00  0.00    -0.042 NA
ATOM      9  N   UNL     1       8.104  -2.113  -0.018  0.00  0.00    -0.214 NA
ENDROOT
BRANCH   3  10
ATOM     10  C   UNL     1       8.288  -4.689  -2.385  0.00  0.00    +0.014 A 
ATOM     11  C   UNL     1       8.998  -3.787  -3.157  0.00  0.00    +0.048 A 
ATOM     12  C   UNL     1       8.736  -3.681  -4.512  0.00  0.00    +0.020 A 
ATOM     13  C   UNL     1       7.766  -4.475  -5.093  0.00  0.00    +0.003 A 
ATOM     14  C   UNL     1       7.057  -5.377  -4.322  0.00  0.00    +0.020 A 
ATOM     15  C   UNL     1       7.322  -5.489  -2.969  0.00  0.00    +0.048 A 
ATOM     16 CL   UNL     1       6.436  -6.626  -2.002  0.00  0.00    -0.083 Cl
ATOM     17 CL   UNL     1      10.216  -2.789  -2.427  0.00  0.00    -0.083 Cl
ENDBRANCH   3  10
BRANCH   1  21
ATOM     18  C   UNL     1       3.149  -1.455   0.007  0.00  0.00    -0.018 A 
ATOM     19  C   UNL     1       4.230  -0.573   0.039  0.00  0.00    +0.009 A 
ATOM     20  C   UNL     1       5.513  -1.058   0.021  0.00  0.00    +0.010 A 
ATOM     21  C   UNL     1       5.737  -2.439  -0.029  0.00  0.00    -0.004 A 
ATOM     22  C   UNL     1       4.651  -3.322  -0.062  0.00  0.00    +0.010 A 
ATOM     23  C   UNL     1       3.370  -2.832  -0.038  0.00  0.00    +0.009 A 
BRANCH  18  27
ATOM     24  C   UNL     1      -0.824   0.056   0.061  0.00  0.00    +0.000 A 
ATOM     25  C   UNL     1       0.247   0.932   0.088  0.00  0.00    +0.001 A 
ATOM     26  C   UNL     1       1.538   0.447   0.071  0.00  0.00    +0.008 A 
ATOM     27  C   UNL     1       1.764  -0.928   0.026  0.00  0.00    -0.018 A 
ATOM     28  C   UNL     1       0.681  -1.806  -0.001  0.00  0.00    +0.008 A 
ATOM     29  C   UNL     1      -0.607  -1.310   0.016  0.00  0.00    +0.001 A 
ENDBRANCH  18  27
ENDBRANCH   1  21
TORSDOF 3
