REMARK  Name = ZINC09126166
REMARK  11 active torsions:
REMARK  status: ('A' for Active; 'I' for Inactive)
REMARK    1  A    between atoms: C_1  and  C_2
REMARK    2  A    between atoms: C_2  and  C_4
REMARK    3  A    between atoms: C_2  and  N_57
REMARK    4  A    between atoms: C_7  and  S_16
REMARK    5  A    between atoms: N_8  and  C_9
REMARK    6  A    between atoms: S_16  and  C_17
REMARK    7  A    between atoms: C_17  and  C_19
REMARK    8  A    between atoms: C_17  and  C_25
REMARK    9  A    between atoms: N_30  and  C_31
REMARK   10  A    between atoms: C_32  and  N_57
REMARK   11  A    between atoms: C_33  and  N_57
REMARK                            x       y       z     vdW  Elec       q    Type
REMARK                         _______ _______ _______ _____ _____    ______ ____
ROOT
ATOM      1  C   UNL     1      -1.451   3.475   2.510  0.00  0.00    +0.125 A 
ATOM      2  N   UNL     1      -2.567   2.993   2.978  0.00  0.00    -0.135 NA
ATOM      3  N   UNL     1      -2.891   3.600   4.064  0.00  0.00    -0.122 NA
ATOM      4  C   UNL     1      -1.996   4.519   4.346  0.00  0.00    +0.197 A 
ATOM      5  N   UNL     1      -1.047   4.468   3.362  0.00  0.00    -0.275 N 
ENDROOT
BRANCH   5   6
ATOM      6  C   UNL     1       0.101   5.268   3.249  0.00  0.00    +0.050 A 
ATOM      7  C   UNL     1       1.361   4.694   3.352  0.00  0.00    +0.028 A 
ATOM      8  C   UNL     1       2.489   5.482   3.236  0.00  0.00    +0.022 A 
ATOM      9  C   UNL     1       2.364   6.844   3.027  0.00  0.00    +0.041 A 
ATOM     10  C   UNL     1       1.109   7.419   2.930  0.00  0.00    +0.022 A 
ATOM     11  C   UNL     1      -0.022   6.634   3.040  0.00  0.00    +0.028 A 
ATOM     12 CL   UNL     1       3.784   7.833   2.888  0.00  0.00    -0.084 Cl
ENDBRANCH   5   6
BRANCH   1  14
ATOM     13  C   UNL     1      -1.486   3.553   0.032  0.00  0.00    -0.005 C 
ATOM     14  C   UNL     1      -0.740   3.027   1.259  0.00  0.00    -0.003 C 
BRANCH  14  17
ATOM     15  C   UNL     1      -0.013   1.086   0.008  0.00  0.00    -0.096 C 
ATOM     16  C   UNL     1      -0.072   1.015   2.428  0.00  0.00    -0.096 C 
ATOM     17  N   UNL     1      -0.727   1.550   1.216  0.00  0.00    +0.382 N 
ATOM     18  H   UNL     1      -1.695   1.209   1.182  0.00  0.00    -0.082 HD
ENDBRANCH  14  17
ENDBRANCH   1  14
BRANCH   4  19
ATOM     19  S   UNL     1      -2.014   5.610   5.729  0.00  0.00    -0.068 S 
BRANCH  19  20
ATOM     20  C   UNL     1      -3.542   5.069   6.535  0.00  0.00    +0.170 C 
BRANCH  20  21
ATOM     21  C   UNL     1      -3.706   5.801   7.843  0.00  0.00    +0.238 C 
ATOM     22  O   UNL     1      -3.180   6.882   8.003  0.00  0.00    -0.274 OA
ATOM     23  N   UNL     1      -4.437   5.254   8.834  0.00  0.00    -0.239 N 
ATOM     24  C   UNL     1      -4.584   5.908  10.003  0.00  0.00    +0.306 C 
ATOM     25  O   UNL     1      -4.057   6.992  10.163  0.00  0.00    -0.252 OA
ATOM     26  N   UNL     1      -5.316   5.361  10.994  0.00  0.00    -0.302 N 
ATOM     27  C   UNL     1      -5.475   6.073  12.265  0.00  0.00    +0.129 C 
ATOM     28  H   UNL     1      -4.858   4.389   8.706  0.00  0.00    +0.159 HD
ATOM     29  H   UNL     1      -5.736   4.497  10.866  0.00  0.00    +0.150 HD
ENDBRANCH  20  21
BRANCH  20  30
ATOM     30  C   UNL     1      -4.716   5.371   5.640  0.00  0.00    -0.025 A 
ATOM     31  C   UNL     1      -4.984   6.675   5.267  0.00  0.00    +0.005 A 
ATOM     32  C   UNL     1      -6.058   6.951   4.442  0.00  0.00    +0.000 A 
ATOM     33  C   UNL     1      -6.870   5.925   3.998  0.00  0.00    +0.000 A 
ATOM     34  C   UNL     1      -6.605   4.622   4.375  0.00  0.00    +0.000 A 
ATOM     35  C   UNL     1      -5.529   4.345   5.196  0.00  0.00    +0.005 A 
ENDBRANCH  20  30
ENDBRANCH  19  20
ENDBRANCH   4  19
TORSDOF 7
