REMARK  Name = ZINC14755303
REMARK  13 active torsions:
REMARK  status: ('A' for Active; 'I' for Inactive)
REMARK    1  A    between atoms: C_1  and  C_2
REMARK    2  A    between atoms: C_2  and  C_3
REMARK    3  A    between atoms: C_3  and  C_5
REMARK    4  A    between atoms: C_3  and  C_6
REMARK    5  A    between atoms: C_6  and  N_7
REMARK    6  A    between atoms: N_7  and  C_8
REMARK    7  A    between atoms: C_10  and  C_21
REMARK    8  A    between atoms: C_12  and  S_14
REMARK    9  A    between atoms: S_14  and  N_17
REMARK   10  A    between atoms: N_17  and  C_18
REMARK   11  A    between atoms: C_18  and  C_19
REMARK   12  A    between atoms: C_18  and  C_20
REMARK   13  A    between atoms: N_23  and  C_24
REMARK                            x       y       z     vdW  Elec       q    Type
REMARK                         _______ _______ _______ _____ _____    ______ ____
ROOT
ATOM      1  C   UNL     1      -2.515   3.481   4.758  0.00  0.00    +0.030 A 
ATOM      2  C   UNL     1      -1.905   2.995   3.611  0.00  0.00    +0.036 A 
ATOM      3  C   UNL     1      -1.882   3.775   2.455  0.00  0.00    +0.040 A 
ATOM      4  C   UNL     1      -2.470   5.042   2.462  0.00  0.00    +0.041 A 
ATOM      5  C   UNL     1      -3.080   5.513   3.606  0.00  0.00    +0.108 A 
ATOM      6  C   UNL     1      -3.102   4.740   4.752  0.00  0.00    +0.051 A 
ENDROOT
BRANCH   3   7
ATOM      7  C   UNL     1      -1.233   3.265   1.228  0.00  0.00    +0.244 C 
ATOM      8  O   UNL     1      -1.215   3.947   0.222  0.00  0.00    -0.270 OA
ATOM      9  N   UNL     1      -0.662   2.045   1.226  0.00  0.00    -0.308 N 
ATOM     10  H   UNL     1      -0.676   1.501   2.029  0.00  0.00    +0.149 HD
BRANCH   9  11
ATOM     11  C   UNL     1      -0.019   1.539   0.011  0.00  0.00    +0.082 C 
ATOM     12  C   UNL     1       1.484   1.891  -0.002  0.00  0.00    +0.058 C 
ATOM     13  C   UNL     1       2.162   0.710  -0.663  0.00  0.00    -0.042 A 
ATOM     14  C   UNL     1       3.423   0.597  -1.223  0.00  0.00    +0.004 A 
ATOM     15  C   UNL     1       3.833  -0.599  -1.778  0.00  0.00    +0.000 A 
ATOM     16  C   UNL     1       2.982  -1.688  -1.776  0.00  0.00    +0.000 A 
ATOM     17  C   UNL     1       1.723  -1.578  -1.218  0.00  0.00    +0.004 A 
ATOM     18  C   UNL     1       1.310  -0.379  -0.661  0.00  0.00    -0.042 A 
ATOM     19  C   UNL     1       0.002  -0.004   0.002  0.00  0.00    +0.058 C 
ENDBRANCH   9  11
ENDBRANCH   3   7
BRANCH   5  20
ATOM     20  S   UNL     1      -3.827   7.109   3.609  0.00  0.00    +0.059 S 
ATOM     21  O   UNL     1      -4.151   7.408   2.258  0.00  0.00    -0.153 OA
ATOM     22  O   UNL     1      -4.803   7.099   4.642  0.00  0.00    -0.153 OA
BRANCH  20  23
ATOM     23  N   UNL     1      -2.663   8.194   4.068  0.00  0.00    -0.187 NA
ATOM     24  H   UNL     1      -2.756   8.681   4.901  0.00  0.00    +0.148 HD
BRANCH  23  25
ATOM     25  C   UNL     1      -1.493   8.417   3.216  0.00  0.00    +0.070 C 
ATOM     26  C   UNL     1      -1.743   9.624   2.311  0.00  0.00    +0.025 C 
ATOM     27  C   UNL     1      -0.267   8.682   4.092  0.00  0.00    +0.025 C 
ENDBRANCH  23  25
ENDBRANCH  20  23
ENDBRANCH   5  20
BRANCH   1  28
ATOM     28  N   UNL     1      -2.540   2.704   5.918  0.00  0.00    -0.344 N 
ATOM     29  H   UNL     1      -2.967   3.043   6.720  0.00  0.00    +0.146 HD
BRANCH  28  30
ATOM     30  C   UNL     1      -1.921   1.376   5.924  0.00  0.00    +0.104 C 
BRANCH  30  31
ATOM     31  C   UNL     1      -2.087   0.742   7.307  0.00  0.00    +0.003 C 
ATOM     32  C   UNL     1      -3.572   0.497   7.580  0.00  0.00    +0.009 C 
BRANCH  31  34
ATOM     33  C   UNL     1      -1.395  -1.163   8.768  0.00  0.00    +0.004 C 
ATOM     34  C   UNL     1      -1.334  -0.589   7.351  0.00  0.00    +0.001 C 
ENDBRANCH  31  34
ENDBRANCH  30  31
ENDBRANCH  28  30
ENDBRANCH   1  28
TORSDOF 9
