REMARK  Name = ZINC44714447
REMARK  9 active torsions:
REMARK  status: ('A' for Active; 'I' for Inactive)
REMARK    1  A    between atoms: C_1  and  C_2
REMARK    2  A    between atoms: C_2  and  C_3
REMARK    3  A    between atoms: C_6  and  C_9
REMARK    4  A    between atoms: C_13  and  C_22
REMARK    5  A    between atoms: N_24  and  C_25
REMARK    6  A    between atoms: C_25  and  C_26
REMARK    7  A    between atoms: C_26  and  C_27
REMARK    8  A    between atoms: C_28  and  C_39
REMARK    9  A    between atoms: C_34  and  C_37
REMARK                            x       y       z     vdW  Elec       q    Type
REMARK                         _______ _______ _______ _____ _____    ______ ____
ROOT
ATOM      1  C   UNL     1       2.696  -1.865  -4.739  0.00  0.00    +0.247 C 
ATOM      2  O   UNL     1       2.054  -2.171  -5.725  0.00  0.00    -0.270 OA
ATOM      3  N   UNL     1       4.039  -1.979  -4.746  0.00  0.00    -0.296 N 
ATOM      4  C   UNL     1       4.974  -1.781  -3.614  0.00  0.00    +0.121 C 
ATOM      5  C   UNL     1       6.036  -2.890  -3.785  0.00  0.00    +0.100 C 
ATOM      6  C   UNL     1       5.994  -3.245  -5.281  0.00  0.00    -0.004 C 
ATOM      7  C   UNL     1       4.914  -2.337  -5.888  0.00  0.00    +0.115 C 
ATOM      8  C   UNL     1       5.607  -4.710  -5.465  0.00  0.00    -0.010 C 
ATOM      9  C   UNL     1       5.628  -5.054  -6.957  0.00  0.00    -0.082 C 
ATOM     10  N   UNL     1       6.970  -4.809  -7.500  0.00  0.00    +0.379 N 
ATOM     11  C   UNL     1       7.296  -3.381  -7.403  0.00  0.00    -0.082 C 
ATOM     12  C   UNL     1       7.346  -2.966  -5.929  0.00  0.00    -0.010 C 
ATOM     13  H   UNL     1       7.646  -5.343  -6.975  0.00  0.00    -0.086 HD
ATOM     14  H   UNL     1       6.997  -5.094  -8.467  0.00  0.00    -0.086 HD
ENDROOT
BRANCH   1  18
ATOM     15  C   UNL     1       0.705  -0.438  -1.268  0.00  0.00    -0.048 A 
ATOM     16  C   UNL     1       0.029  -1.241  -2.169  0.00  0.00    +0.004 A 
ATOM     17  C   UNL     1       0.670  -1.708  -3.298  0.00  0.00    +0.013 A 
ATOM     18  C   UNL     1       2.003  -1.368  -3.531  0.00  0.00    +0.037 A 
ATOM     19  C   UNL     1       2.680  -0.557  -2.619  0.00  0.00    +0.013 A 
ATOM     20  C   UNL     1       2.026  -0.092  -1.496  0.00  0.00    +0.004 A 
BRANCH  15  22
ATOM     21  C   UNL     1      -0.671   1.408  -0.348  0.00  0.00    +0.009 C 
ATOM     22  C   UNL     1      -0.001   0.069  -0.037  0.00  0.00    +0.032 C 
ENDBRANCH  15  22
ENDBRANCH   1  18
BRANCH   5  23
ATOM     23  C   UNL     1       5.681  -4.091  -2.948  0.00  0.00    +0.218 C 
ATOM     24  O   UNL     1       4.518  -4.398  -2.790  0.00  0.00    -0.275 OA
ATOM     25  N   UNL     1       6.655  -4.824  -2.374  0.00  0.00    -0.315 N 
ATOM     26  H   UNL     1       7.585  -4.579  -2.500  0.00  0.00    +0.149 HD
BRANCH  25  27
ATOM     27  C   UNL     1       6.309  -5.992  -1.560  0.00  0.00    +0.109 C 
BRANCH  27  28
ATOM     28  C   UNL     1       7.590  -6.641  -1.030  0.00  0.00    +0.056 C 
BRANCH  28  29
ATOM     29  C   UNL     1       7.234  -7.843  -0.192  0.00  0.00    -0.018 A 
ATOM     30  C   UNL     1       6.994  -7.853   1.128  0.00  0.00    +0.017 A 
ATOM     31  N   UNL     1       6.703  -9.125   1.540  0.00  0.00    -0.358 N 
ATOM     32  H   UNL     1       6.495  -9.381   2.452  0.00  0.00    +0.166 HD
ATOM     33  C   UNL     1       6.749  -9.987   0.470  0.00  0.00    +0.047 A 
ATOM     34  C   UNL     1       7.079  -9.221  -0.666  0.00  0.00    +0.004 A 
ATOM     35  C   UNL     1       7.194  -9.834  -1.911  0.00  0.00    +0.029 A 
ATOM     36  C   UNL     1       6.976 -11.205  -2.020  0.00  0.00    +0.052 A 
ATOM     37  C   UNL     1       6.645 -11.956  -0.883  0.00  0.00    +0.021 A 
ATOM     38  C   UNL     1       6.539 -11.358   0.339  0.00  0.00    +0.027 A 
ATOM     39  C   UNL     1       7.040  -6.643   2.025  0.00  0.00    +0.063 C 
BRANCH  36  40
ATOM     40  C   UNL     1       7.090 -11.848  -3.294  0.00  0.00    +0.099 C 
ATOM     41  N   UNL     1       7.180 -12.359  -4.305  0.00  0.00    -0.191 NA
ENDBRANCH  36  40
ENDBRANCH  28  29
ENDBRANCH  27  28
ENDBRANCH  25  27
ENDBRANCH   5  23
TORSDOF 7
