REMARK  Name = ZINC49193999
REMARK  7 active torsions:
REMARK  status: ('A' for Active; 'I' for Inactive)
REMARK    1  A    between atoms: C_1  and  C_2
REMARK    2  A    between atoms: C_5  and  C_7
REMARK    3  A    between atoms: C_7  and  C_9
REMARK    4  A    between atoms: C_7  and  N_10
REMARK    5  A    between atoms: C_14  and  N_19
REMARK    6  A    between atoms: C_15  and  O_17
REMARK    7  A    between atoms: O_17  and  C_18
REMARK                            x       y       z     vdW  Elec       q    Type
REMARK                         _______ _______ _______ _____ _____    ______ ____
ROOT
ATOM      1  N   UNL     1       2.819  -2.969   0.861  0.00  0.00    -0.319 N 
ATOM      2  C   UNL     1       3.530  -4.023   1.431  0.00  0.00    +0.123 A 
ATOM      3  C   UNL     1       3.159  -5.332   1.152  0.00  0.00    +0.045 A 
ATOM      4  C   UNL     1       3.871  -6.375   1.722  0.00  0.00    +0.031 A 
ATOM      5  C   UNL     1       4.938  -6.070   2.559  0.00  0.00    +0.087 A 
ATOM      6  C   UNL     1       5.255  -4.734   2.796  0.00  0.00    +0.238 A 
ATOM      7  N   UNL     1       4.555  -3.765   2.230  0.00  0.00    -0.197 NA
ATOM      8  H   UNL     1       3.076  -2.053   1.050  0.00  0.00    +0.148 HD
ENDROOT
BRANCH   5   9
ATOM      9  N   UNL     1       5.687  -7.094   3.159  0.00  0.00    -0.354 N 
ATOM     10  H   UNL     1       5.461  -8.023   2.990  0.00  0.00    +0.142 HD
ATOM     11  H   UNL     1       6.430  -6.875   3.742  0.00  0.00    +0.142 HD
ENDBRANCH   5   9
BRANCH   1  12
ATOM     12  C   UNL     1       1.684  -3.245  -0.023  0.00  0.00    +0.135 C 
ATOM     13  C   UNL     1       2.192  -3.480  -1.447  0.00  0.00    +0.036 C 
BRANCH  12  18
ATOM     14  C   UNL     1      -0.018   1.503   0.010  0.00  0.00    +0.086 C 
ATOM     15  C   UNL     1       0.002  -0.004   0.002  0.00  0.00    +0.102 A 
ATOM     16  C   UNL     1      -1.078  -0.805   0.003  0.00  0.00    +0.045 A 
ATOM     17  C   UNL     1      -0.601  -2.136  -0.007  0.00  0.00    +0.047 A 
ATOM     18  C   UNL     1       0.742  -2.069  -0.013  0.00  0.00    +0.125 A 
ATOM     19  O   UNL     1       1.102  -0.775  -0.013  0.00  0.00    -0.463 OA
ENDBRANCH  12  18
ENDBRANCH   1  12
BRANCH   6  20
ATOM     20  O   UNL     1       6.295  -4.424   3.612  0.00  0.00    -0.478 OA
ATOM     21  C   UNL     1       6.569  -3.037   3.815  0.00  0.00    +0.279 C 
ENDBRANCH   6  20
TORSDOF 4
