REMARK  Name = ZINC38970793
REMARK  7 active torsions:
REMARK  status: ('A' for Active; 'I' for Inactive)
REMARK    1  A    between atoms: C_1  and  C_2
REMARK    2  A    between atoms: C_2  and  C_3
REMARK    3  A    between atoms: C_3  and  N_4
REMARK    4  A    between atoms: N_4  and  C_5
REMARK    5  A    between atoms: C_5  and  C_6
REMARK    6  A    between atoms: C_13  and  C_18
REMARK    7  A    between atoms: C_19  and  C_21
REMARK                            x       y       z     vdW  Elec       q    Type
REMARK                         _______ _______ _______ _____ _____    ______ ____
ROOT
ATOM      1  C   UNL     1      -0.419  -2.719  -1.767  0.00  0.00    +0.125 C 
ENDROOT
BRANCH   1   2
ATOM      2  C   UNL     1      -0.236  -2.839  -3.281  0.00  0.00    +0.116 C 
ATOM      3  C   UNL     1      -1.512  -3.419  -3.859  0.00  0.00    -0.003 C 
ATOM      4  C   UNL     1      -1.408  -4.580  -4.565  0.00  0.00    -0.007 A 
ATOM      5  C   UNL     1      -2.590  -5.208  -5.156  0.00  0.00    +0.009 A 
ATOM      6  C   UNL     1      -2.438  -6.365  -5.851  0.00  0.00    +0.001 A 
ATOM      7  C   UNL     1      -1.185  -6.960  -6.008  0.00  0.00    +0.005 A 
ATOM      8  C   UNL     1      -0.051  -6.427  -5.484  0.00  0.00    -0.029 A 
ATOM      9  C   UNL     1      -0.098  -5.229  -4.747  0.00  0.00    +0.043 A 
ATOM     10  N   UNL     1       1.022  -4.716  -4.238  0.00  0.00    -0.284 N 
ATOM     11  C   UNL     1       1.048  -3.597  -3.535  0.00  0.00    +0.226 C 
ATOM     12  O   UNL     1       2.101  -3.177  -3.095  0.00  0.00    -0.275 OA
ATOM     13  C   UNL     1       1.269  -7.125  -5.693  0.00  0.00    +0.045 C 
ATOM     14  H   UNL     1       1.857  -5.186  -4.390  0.00  0.00    +0.155 HD
ENDBRANCH   1   2
BRANCH   1  15
ATOM     15  N   UNL     1       0.705  -1.971  -1.197  0.00  0.00    -0.296 N 
ATOM     16  C   UNL     1       1.810  -2.624  -0.785  0.00  0.00    +0.248 C 
ATOM     17  O   UNL     1       1.895  -3.828  -0.935  0.00  0.00    -0.270 OA
BRANCH  16  18
ATOM     18  C   UNL     1       2.916  -1.878  -0.151  0.00  0.00    +0.055 A 
ATOM     19  C   UNL     1       3.551  -0.844  -0.841  0.00  0.00    +0.014 A 
ATOM     20  C   UNL     1       4.582  -0.151  -0.243  0.00  0.00    +0.001 A 
ATOM     21  C   UNL     1       4.990  -0.479   1.038  0.00  0.00    +0.001 A 
ATOM     22  C   UNL     1       4.367  -1.502   1.728  0.00  0.00    +0.021 A 
ATOM     23  C   UNL     1       3.328  -2.200   1.144  0.00  0.00    +0.053 A 
ATOM     24 CL   UNL     1       2.541  -3.480   2.015  0.00  0.00    -0.083 Cl
ENDBRANCH  16  18
BRANCH  15  25
ATOM     25  C   UNL     1       0.629  -0.513  -1.076  0.00  0.00    +0.108 C 
BRANCH  25  27
ATOM     26  C   UNL     1      -0.146   1.376   0.364  0.00  0.00    +0.005 C 
ATOM     27  C   UNL     1      -0.066  -0.146   0.237  0.00  0.00    +0.016 C 
ENDBRANCH  25  27
ENDBRANCH  15  25
ENDBRANCH   1  15
TORSDOF 5
