REMARK  Name = ZINC17723250
REMARK  11 active torsions:
REMARK  status: ('A' for Active; 'I' for Inactive)
REMARK    1  A    between atoms: C_1  and  C_2
REMARK    2  A    between atoms: C_5  and  C_8
REMARK    3  A    between atoms: C_9  and  S_10
REMARK    4  A    between atoms: S_10  and  N_13
REMARK    5  A    between atoms: N_13  and  C_14
REMARK    6  A    between atoms: C_14  and  C_15
REMARK    7  A    between atoms: C_15  and  O_17
REMARK    8  A    between atoms: O_17  and  C_18
REMARK    9  A    between atoms: C_18  and  C_19
REMARK   10  A    between atoms: N_21  and  C_22
REMARK   11  A    between atoms: N_21  and  C_30
REMARK                            x       y       z     vdW  Elec       q    Type
REMARK                         _______ _______ _______ _____ _____    ______ ____
ROOT
ATOM      1  C   UNL     1       3.009  -7.697   3.627  0.00  0.00    +0.323 C 
ATOM      2  O   UNL     1       3.542  -8.457   2.854  0.00  0.00    -0.249 OA
ENDROOT
BRANCH   1   3
ATOM      3  C   UNL     1       1.836  -6.864   3.177  0.00  0.00    +0.226 C 
BRANCH   3   4
ATOM      4  N   UNL     1       1.540  -7.157   1.772  0.00  0.00    -0.180 NA
ATOM      5  H   UNL     1       2.190  -7.628   1.228  0.00  0.00    +0.149 HD
BRANCH   4   6
ATOM      6  S   UNL     1       0.097  -6.682   1.114  0.00  0.00    +0.052 S 
ATOM      7  O   UNL     1      -0.919  -7.106   2.014  0.00  0.00    -0.154 OA
ATOM      8  O   UNL     1       0.121  -7.081  -0.249  0.00  0.00    -0.154 OA
BRANCH   6  10
ATOM      9  C   UNL     1       0.059  -4.252  -0.021  0.00  0.00    +0.028 C 
ATOM     10  C   UNL     1       0.074  -4.920   1.123  0.00  0.00    +0.153 C 
BRANCH   9  15
ATOM     11  C   UNL     1      -0.017   1.502   0.007  0.00  0.00    +0.044 C 
ATOM     12  C   UNL     1       0.003  -0.005  -0.000  0.00  0.00    -0.050 A 
ATOM     13  C   UNL     1       0.006  -0.688  -1.204  0.00  0.00    +0.004 A 
ATOM     14  C   UNL     1       0.024  -2.068  -1.217  0.00  0.00    +0.008 A 
ATOM     15  C   UNL     1       0.040  -2.774  -0.014  0.00  0.00    -0.024 A 
ATOM     16  C   UNL     1       0.037  -2.079   1.196  0.00  0.00    +0.008 A 
ATOM     17  C   UNL     1       0.024  -0.700   1.196  0.00  0.00    +0.004 A 
ENDBRANCH   9  15
ENDBRANCH   6  10
ENDBRANCH   4   6
ENDBRANCH   3   4
ENDBRANCH   1   3
BRANCH   1  18
ATOM     18  O   UNL     1       3.461  -7.595   4.887  0.00  0.00    -0.454 OA
BRANCH  18  19
ATOM     19  C   UNL     1       4.575  -8.414   5.245  0.00  0.00    +0.327 C 
BRANCH  19  20
ATOM     20  C   UNL     1       4.939  -8.165   6.686  0.00  0.00    +0.254 C 
ATOM     21  O   UNL     1       4.366  -7.301   7.316  0.00  0.00    -0.272 OA
ATOM     22  N   UNL     1       5.901  -8.903   7.276  0.00  0.00    -0.291 N 
BRANCH  22  23
ATOM     23  C   UNL     1       6.178  -8.738   8.704  0.00  0.00    +0.099 C 
ATOM     24  C   UNL     1       4.906  -9.030   9.517  0.00  0.00    +0.047 C 
ATOM     25  C   UNL     1       5.093  -8.555  10.978  0.00  0.00    +0.168 C 
ATOM     26  S   UNL     1       6.296  -7.175  10.803  0.00  0.00    -0.029 S 
ATOM     27  O   UNL     1       7.489  -7.512  11.497  0.00  0.00    -0.174 OA
ATOM     28  O   UNL     1       5.640  -5.949  11.096  0.00  0.00    -0.174 OA
ATOM     29  C   UNL     1       6.609  -7.271   8.991  0.00  0.00    +0.188 C 
ENDBRANCH  22  23
BRANCH  22  30
ATOM     30  C   UNL     1       6.669  -9.869   6.487  0.00  0.00    +0.077 C 
ATOM     31  C   UNL     1       6.437 -11.296   7.027  0.00  0.00    +0.022 C 
ATOM     32  C   UNL     1       7.816 -11.985   6.884  0.00  0.00    +0.002 C 
ATOM     33  C   UNL     1       8.805 -10.850   7.248  0.00  0.00    +0.002 C 
ATOM     34  C   UNL     1       8.175  -9.586   6.628  0.00  0.00    +0.022 C 
ENDBRANCH  22  30
ENDBRANCH  19  20
ENDBRANCH  18  19
ENDBRANCH   1  18
TORSDOF 10
