REMARK  Name = ZINC39669148
REMARK  9 active torsions:
REMARK  status: ('A' for Active; 'I' for Inactive)
REMARK    1  A    between atoms: C_1  and  C_2
REMARK    2  A    between atoms: C_2  and  C_3
REMARK    3  A    between atoms: C_3  and  C_4
REMARK    4  A    between atoms: C_4  and  C_5
REMARK    5  A    between atoms: C_5  and  C_7
REMARK    6  A    between atoms: C_5  and  C_8
REMARK    7  A    between atoms: C_12  and  C_21
REMARK    8  A    between atoms: N_23  and  C_24
REMARK    9  A    between atoms: C_24  and  C_25
REMARK                            x       y       z     vdW  Elec       q    Type
REMARK                         _______ _______ _______ _____ _____    ______ ____
ROOT
ATOM      1  C   UNL     1       1.301  -4.262  -2.827  0.00  0.00    +0.218 C 
ATOM      2  O   UNL     1       0.628  -4.949  -2.088  0.00  0.00    -0.275 OA
ATOM      3  N   UNL     1       2.061  -4.839  -3.779  0.00  0.00    -0.300 N 
ATOM      4  C   UNL     1       3.024  -4.183  -4.694  0.00  0.00    +0.121 C 
ATOM      5  C   UNL     1       4.212  -5.167  -4.782  0.00  0.00    +0.100 C 
ATOM      6  C   UNL     1       3.614  -6.538  -4.423  0.00  0.00    -0.004 C 
ATOM      7  C   UNL     1       2.127  -6.275  -4.142  0.00  0.00    +0.115 C 
ATOM      8  C   UNL     1       4.289  -7.099  -3.175  0.00  0.00    -0.010 C 
ATOM      9  C   UNL     1       3.717  -8.486  -2.871  0.00  0.00    -0.082 C 
ATOM     10  N   UNL     1       3.947  -9.374  -4.018  0.00  0.00    +0.379 N 
ATOM     11  C   UNL     1       3.218  -8.876  -5.191  0.00  0.00    -0.082 C 
ATOM     12  C   UNL     1       3.768  -7.505  -5.592  0.00  0.00    -0.010 C 
ATOM     13  H   UNL     1       4.934  -9.405  -4.225  0.00  0.00    -0.086 HD
ATOM     14  H   UNL     1       3.624 -10.303  -3.792  0.00  0.00    -0.086 HD
ENDROOT
BRANCH   5  15
ATOM     15  C   UNL     1       4.775  -5.188  -6.180  0.00  0.00    +0.218 C 
ATOM     16  O   UNL     1       4.054  -4.955  -7.127  0.00  0.00    -0.275 OA
ATOM     17  N   UNL     1       6.079  -5.465  -6.377  0.00  0.00    -0.312 N 
ATOM     18  H   UNL     1       6.655  -5.651  -5.620  0.00  0.00    +0.149 HD
BRANCH  17  19
ATOM     19  C   UNL     1       6.626  -5.485  -7.736  0.00  0.00    +0.140 C 
BRANCH  19  20
ATOM     20  C   UNL     1       8.117  -5.823  -7.681  0.00  0.00    +0.165 C 
ATOM     21  C   UNL     1       8.705  -5.715  -9.064  0.00  0.00    -0.014 A 
ATOM     22  C   UNL     1       8.353  -4.631  -9.854  0.00  0.00    +0.006 A 
ATOM     23  C   UNL     1       8.876  -4.497 -11.125  0.00  0.00    +0.000 A 
ATOM     24  C   UNL     1       9.754  -5.447 -11.612  0.00  0.00    +0.000 A 
ATOM     25  C   UNL     1      10.104  -6.527 -10.827  0.00  0.00    +0.004 A 
ATOM     26  C   UNL     1       9.577  -6.664  -9.552  0.00  0.00    -0.040 A 
ATOM     27  C   UNL     1       9.972  -7.864  -8.729  0.00  0.00    +0.063 C 
ATOM     28  C   UNL     1       9.634  -7.616  -7.258  0.00  0.00    +0.165 C 
ATOM     29  O   UNL     1       8.283  -7.149  -7.179  0.00  0.00    -0.370 OA
ENDBRANCH  19  20
ENDBRANCH  17  19
ENDBRANCH   5  15
BRANCH   1  30
ATOM     30  C   UNL     1       1.287  -2.762  -2.682  0.00  0.00    +0.072 C 
ATOM     31  C   UNL     1       2.370  -2.336  -1.688  0.00  0.00    +0.017 C 
BRANCH  30  32
ATOM     32  C   UNL     1      -0.082  -2.312  -2.167  0.00  0.00    +0.012 C 
BRANCH  32  33
ATOM     33  C   UNL     1      -0.139  -0.783  -2.137  0.00  0.00    +0.000 C 
BRANCH  33  35
ATOM     34  C   UNL     1      -1.564   1.195  -1.593  0.00  0.00    +0.004 C 
ATOM     35  C   UNL     1      -1.508  -0.334  -1.623  0.00  0.00    -0.003 C 
ENDBRANCH  33  35
ENDBRANCH  32  33
ENDBRANCH  30  32
ENDBRANCH   1  30
TORSDOF 7
