REMARK  Name = ZINC14003235
REMARK  7 active torsions:
REMARK  status: ('A' for Active; 'I' for Inactive)
REMARK    1  A    between atoms: C_6  and  C_7
REMARK    2  A    between atoms: C_7  and  C_8
REMARK    3  A    between atoms: N_10  and  N_11
REMARK    4  A    between atoms: N_11  and  C_12
REMARK    5  A    between atoms: C_12  and  N_14
REMARK    6  A    between atoms: C_15  and  C_17
REMARK    7  A    between atoms: C_21  and  N_23
REMARK                            x       y       z     vdW  Elec       q    Type
REMARK                         _______ _______ _______ _____ _____    ______ ____
ROOT
ATOM      1  C   UNL     1      -4.435  -2.609  -3.203  0.00  0.00    +0.153 C 
ATOM      2  S   UNL     1      -4.941  -2.892  -4.813  0.00  0.00    -0.017 S 
ENDROOT
BRANCH   1   3
ATOM      3  N   UNL     1      -5.177  -3.063  -2.173  0.00  0.00    -0.263 N 
ATOM      4  C   UNL     1      -6.318  -3.739  -2.412  0.00  0.00    +0.250 C 
ATOM      5  O   UNL     1      -6.678  -3.940  -3.555  0.00  0.00    -0.270 OA
ATOM      6  H   UNL     1      -4.890  -2.902  -1.260  0.00  0.00    +0.157 HD
BRANCH   4   7
ATOM      7  C   UNL     1      -7.132  -4.236  -1.284  0.00  0.00    +0.039 A 
ATOM      8  C   UNL     1      -6.724  -4.002   0.032  0.00  0.00    +0.014 A 
ATOM      9  C   UNL     1      -7.488  -4.468   1.080  0.00  0.00    +0.023 A 
ATOM     10  C   UNL     1      -8.658  -5.167   0.832  0.00  0.00    +0.071 A 
ATOM     11  C   UNL     1      -9.067  -5.403  -0.470  0.00  0.00    +0.145 A 
ATOM     12  C   UNL     1      -8.314  -4.937  -1.528  0.00  0.00    +0.047 A 
ATOM     13 CL   UNL     1      -9.614  -5.751   2.158  0.00  0.00    -0.081 Cl
BRANCH  11  14
ATOM     14  N   UNL     1     -10.318  -6.152  -0.727  0.00  0.00    +0.058 N 
ATOM     15  O   UNL     1     -10.676  -6.359  -1.863  0.00  0.00    -0.126 OA
ATOM     16  O   UNL     1     -10.981  -6.557   0.199  0.00  0.00    -0.126 OA
ENDBRANCH  11  14
ENDBRANCH   4   7
ENDBRANCH   1   3
BRANCH   1  17
ATOM     17  N   UNL     1      -3.294  -1.933  -2.964  0.00  0.00    -0.246 N 
ATOM     18  H   UNL     1      -2.760  -1.606  -3.705  0.00  0.00    +0.172 HD
BRANCH  17  21
ATOM     19  C   UNL     1      -1.738  -1.024  -1.407  0.00  0.00    +0.233 C 
ATOM     20  O   UNL     1      -1.070  -0.616  -2.333  0.00  0.00    -0.274 OA
ATOM     21  N   UNL     1      -2.880  -1.701  -1.646  0.00  0.00    -0.235 N 
ATOM     22  H   UNL     1      -3.414  -2.027  -0.905  0.00  0.00    +0.173 HD
BRANCH  19  23
ATOM     23  C   UNL     1      -1.293  -0.775   0.011  0.00  0.00    +0.132 C 
BRANCH  23  29
ATOM     24  C   UNL     1      -0.017   1.378   0.010  0.00  0.00    +0.005 A 
ATOM     25  C   UNL     1       1.171   2.086   0.002  0.00  0.00    +0.020 A 
ATOM     26  C   UNL     1       2.378   1.410  -0.013  0.00  0.00    +0.041 A 
ATOM     27  C   UNL     1       2.396   0.027  -0.021  0.00  0.00    +0.020 A 
ATOM     28  C   UNL     1       1.208  -0.679  -0.013  0.00  0.00    +0.005 A 
ATOM     29  C   UNL     1       0.002  -0.004   0.002  0.00  0.00    -0.038 A 
ATOM     30 CL   UNL     1       3.870   2.298  -0.023  0.00  0.00    -0.084 Cl
ENDBRANCH  23  29
ENDBRANCH  19  23
ENDBRANCH  17  21
ENDBRANCH   1  17
TORSDOF 7
