REMARK  Name = ZINC09637145
REMARK  6 active torsions:
REMARK  status: ('A' for Active; 'I' for Inactive)
REMARK    1  A    between atoms: C_4  and  S_7
REMARK    2  A    between atoms: S_7  and  C_8
REMARK    3  A    between atoms: C_13  and  N_14
REMARK    4  A    between atoms: C_15  and  C_17
REMARK    5  A    between atoms: C_17  and  N_53
REMARK    6  A    between atoms: C_23  and  C_25
REMARK                            x       y       z     vdW  Elec       q    Type
REMARK                         _______ _______ _______ _____ _____    ______ ____
ROOT
ATOM      1  N   UNL     1      -0.552  -0.338   0.087  0.00  0.00    -0.286 N 
ATOM      2  C   UNL     1       0.412   0.315  -0.591  0.00  0.00    +0.201 C 
ATOM      3  O   UNL     1       1.434  -0.261  -0.900  0.00  0.00    -0.278 OA
ATOM      4  H   UNL     1      -1.354   0.132   0.364  0.00  0.00    +0.155 HD
ENDROOT
BRANCH   1  10
ATOM      5  C   UNL     1      -1.517  -2.501   0.597  0.00  0.00    +0.034 A 
ATOM      6  C   UNL     1      -1.355  -3.847   0.894  0.00  0.00    +0.017 A 
ATOM      7  C   UNL     1      -0.086  -4.384   0.997  0.00  0.00    +0.001 A 
ATOM      8  C   UNL     1       1.026  -3.585   0.798  0.00  0.00    +0.002 A 
ATOM      9  C   UNL     1       0.874  -2.245   0.496  0.00  0.00    +0.024 A 
ATOM     10  C   UNL     1      -0.396  -1.697   0.392  0.00  0.00    +0.047 A 
BRANCH   5  11
ATOM     11  S   UNL     1      -3.134  -1.812   0.474  0.00  0.00    -0.088 S 
BRANCH  11  15
ATOM     12  C   UNL     1      -3.729   0.301   4.436  0.00  0.00    +0.000 A 
ATOM     13  C   UNL     1      -4.673   0.435   3.434  0.00  0.00    +0.001 A 
ATOM     14  C   UNL     1      -4.495  -0.208   2.224  0.00  0.00    +0.015 A 
ATOM     15  C   UNL     1      -3.366  -0.990   2.015  0.00  0.00    +0.013 A 
ATOM     16  C   UNL     1      -2.422  -1.127   3.026  0.00  0.00    +0.015 A 
ATOM     17  C   UNL     1      -2.604  -0.477   4.231  0.00  0.00    +0.001 A 
ENDBRANCH  11  15
ENDBRANCH   5  11
ENDBRANCH   1  10
BRANCH   2  18
ATOM     18  C   UNL     1       0.222   1.762  -0.965  0.00  0.00    +0.019 C 
BRANCH  18  26
ATOM     19  C   UNL     1       2.589   2.250  -0.823  0.00  0.00    -0.059 C 
ATOM     20  C   UNL     1       3.830   2.578  -1.660  0.00  0.00    +0.089 C 
ATOM     21  N   UNL     1       3.584   3.832  -2.389  0.00  0.00    -0.301 N 
ATOM     22  C   UNL     1       2.346   3.948  -3.175  0.00  0.00    +0.089 C 
ATOM     23  C   UNL     1       1.163   3.566  -2.278  0.00  0.00    -0.059 C 
ATOM     24  C   UNL     1       4.469   4.846  -2.339  0.00  0.00    +0.253 C 
ATOM     25  O   UNL     1       4.187   5.925  -2.826  0.00  0.00    -0.269 OA
ATOM     26  N   UNL     1       1.409   2.220  -1.715  0.00  0.00    +0.387 N 
ATOM     27  H   UNL     1       1.591   1.565  -2.485  0.00  0.00    -0.081 HD
BRANCH  24  28
ATOM     28  C   UNL     1       5.772   4.651  -1.696  0.00  0.00    +0.074 A 
ATOM     29  C   UNL     1       6.760   5.585  -1.423  0.00  0.00    +0.021 A 
ATOM     30  C   UNL     1       7.897   5.128  -0.803  0.00  0.00    +0.008 A 
ATOM     31  C   UNL     1       8.003   3.808  -0.500  0.00  0.00    +0.046 A 
ATOM     32  S   UNL     1       6.503   3.150  -1.069  0.00  0.00    -0.092 S 
ENDBRANCH  24  28
ENDBRANCH  18  26
ENDBRANCH   2  18
TORSDOF 6
