REMARK  Name = ZINC65178297
REMARK  7 active torsions:
REMARK  status: ('A' for Active; 'I' for Inactive)
REMARK    1  A    between atoms: C_1  and  C_2
REMARK    2  A    between atoms: C_2  and  C_3
REMARK    3  A    between atoms: C_2  and  C_4
REMARK    4  A    between atoms: C_4  and  N_5
REMARK    5  A    between atoms: N_8  and  N_9
REMARK    6  A    between atoms: C_10  and  C_12
REMARK    7  A    between atoms: C_14  and  C_23
REMARK                            x       y       z     vdW  Elec       q    Type
REMARK                         _______ _______ _______ _____ _____    ______ ____
ROOT
ATOM      1  C   UNL     1      -3.393   1.662   5.636  0.00  0.00    +0.049 A 
ATOM      2  C   UNL     1      -3.842   2.111   4.404  0.00  0.00    +0.042 A 
ATOM      3  C   UNL     1      -5.050   2.821   4.325  0.00  0.00    +0.072 A 
ATOM      4  N   UNL     1      -5.773   3.075   5.397  0.00  0.00    -0.247 NA
ATOM      5  C   UNL     1      -5.396   2.670   6.611  0.00  0.00    +0.075 A 
ATOM      6  C   UNL     1      -4.191   1.942   6.776  0.00  0.00    +0.013 A 
ATOM      7  C   UNL     1      -3.804   1.517   8.054  0.00  0.00    +0.013 A 
ATOM      8  C   UNL     1      -4.593   1.802   9.127  0.00  0.00    +0.039 A 
ATOM      9  C   UNL     1      -5.784   2.514   8.970  0.00  0.00    +0.125 A 
ATOM     10  C   UNL     1      -6.183   2.952   7.743  0.00  0.00    +0.066 A 
ATOM     11  F   UNL     1      -6.546   2.783  10.053  0.00  0.00    -0.205 F 
ENDROOT
BRANCH   3  12
ATOM     12  C   UNL     1      -5.524   3.298   3.003  0.00  0.00    +0.000 A 
ATOM     13  C   UNL     1      -4.776   3.036   1.856  0.00  0.00    +0.010 A 
ATOM     14  C   UNL     1      -5.222   3.482   0.628  0.00  0.00    +0.001 A 
ATOM     15  C   UNL     1      -6.409   4.188   0.535  0.00  0.00    +0.000 A 
ATOM     16  C   UNL     1      -7.154   4.451   1.671  0.00  0.00    +0.001 A 
ATOM     17  C   UNL     1      -6.721   4.005   2.903  0.00  0.00    +0.010 A 
ENDBRANCH   3  12
BRANCH   1  19
ATOM     18  N   UNL     1      -1.447   0.549   4.651  0.00  0.00    -0.229 N 
ATOM     19  C   UNL     1      -2.125   0.910   5.758  0.00  0.00    +0.261 C 
ATOM     20  O   UNL     1      -1.695   0.619   6.857  0.00  0.00    -0.269 OA
ATOM     21  H   UNL     1      -1.790   0.781   3.774  0.00  0.00    +0.173 HD
BRANCH  18  25
ATOM     22  N   UNL     1      -0.045  -0.202   2.441  0.00  0.00    -0.298 N 
ATOM     23  C   UNL     1       0.432  -0.525   3.659  0.00  0.00    +0.316 C 
ATOM     24  O   UNL     1       1.474  -1.144   3.760  0.00  0.00    -0.251 OA
ATOM     25  N   UNL     1      -0.246  -0.164   4.766  0.00  0.00    -0.218 N 
ATOM     26  H   UNL     1      -0.876   0.291   2.361  0.00  0.00    +0.150 HD
ATOM     27  H   UNL     1       0.098  -0.396   5.643  0.00  0.00    +0.174 HD
BRANCH  22  28
ATOM     28  C   UNL     1       0.692  -0.596   1.238  0.00  0.00    +0.108 C 
BRANCH  28  30
ATOM     29  C   UNL     1      -0.078   1.421  -0.021  0.00  0.00    +0.009 C 
ATOM     30  C   UNL     1      -0.060  -0.109  -0.003  0.00  0.00    -0.000 C 
ATOM     31  C   UNL     1       0.642  -0.626  -1.260  0.00  0.00    +0.009 C 
ENDBRANCH  28  30
ENDBRANCH  22  28
ENDBRANCH  18  25
ENDBRANCH   1  19
TORSDOF 5
