REMARK  Name = ZINC09104489
REMARK  3 active torsions:
REMARK  status: ('A' for Active; 'I' for Inactive)
REMARK    1  A    between atoms: C_6  and  C_7
REMARK    2  A    between atoms: C_18  and  C_20
REMARK    3  A    between atoms: N_22  and  C_23
REMARK                            x       y       z     vdW  Elec       q    Type
REMARK                         _______ _______ _______ _____ _____    ______ ____
ROOT
ATOM      1  C   UNL     1      -2.228   1.557   0.617  0.00  0.00    +0.250 C 
ATOM      2  O   UNL     1      -2.287   0.342   0.604  0.00  0.00    -0.270 OA
ATOM      3  N   UNL     1      -1.037   2.175   0.490  0.00  0.00    -0.261 N 
ATOM      4  C   UNL     1       0.122   1.424   0.343  0.00  0.00    +0.165 A 
ATOM      5  N   UNL     1       1.365   1.839   0.200  0.00  0.00    -0.229 NA
ATOM      6  C   UNL     1       2.383   0.993   0.064  0.00  0.00    +0.066 A 
ATOM      7  C   UNL     1       2.067  -0.328   0.080  0.00  0.00    +0.015 A 
ATOM      8  S   UNL     1       0.307  -0.304   0.293  0.00  0.00    -0.057 S 
ATOM      9  C   UNL     1       2.990  -1.491  -0.052  0.00  0.00    +0.044 C 
ATOM     10  C   UNL     1       4.339  -0.977  -0.577  0.00  0.00    +0.006 C 
ATOM     11  C   UNL     1       4.747   0.254   0.236  0.00  0.00    +0.019 C 
ATOM     12  C   UNL     1       3.833   1.434  -0.101  0.00  0.00    +0.125 C 
ATOM     13  H   UNL     1      -0.990   3.143   0.500  0.00  0.00    +0.157 HD
ENDROOT
BRANCH   1  19
ATOM     14  C   UNL     1      -3.393   3.749   0.794  0.00  0.00    +0.017 A 
ATOM     15  C   UNL     1      -4.545   4.492   0.934  0.00  0.00    +0.050 A 
ATOM     16  C   UNL     1      -5.774   3.858   1.066  0.00  0.00    +0.166 A 
ATOM     17  C   UNL     1      -5.846   2.464   1.051  0.00  0.00    +0.167 A 
ATOM     18  C   UNL     1      -4.696   1.715   0.906  0.00  0.00    +0.062 A 
ATOM     19  C   UNL     1      -3.460   2.354   0.773  0.00  0.00    +0.041 A 
ATOM     20  O   UNL     1      -7.153   2.095   1.197  0.00  0.00    -0.453 OA
ATOM     21  C   UNL     1      -7.921   3.274   0.889  0.00  0.00    +0.466 C 
ATOM     22  O   UNL     1      -7.033   4.358   1.220  0.00  0.00    -0.453 OA
ENDBRANCH   1  19
BRANCH  12  23
ATOM     23  C   UNL     1       4.122   2.583   0.830  0.00  0.00    +0.226 C 
ATOM     24  O   UNL     1       4.984   2.476   1.676  0.00  0.00    -0.275 OA
ATOM     25  N   UNL     1       3.421   3.729   0.724  0.00  0.00    -0.285 N 
ATOM     26  H   UNL     1       2.785   3.843   0.000  0.00  0.00    +0.155 HD
BRANCH  25  27
ATOM     27  C   UNL     1       3.610   4.755   1.657  0.00  0.00    +0.035 A 
ATOM     28  C   UNL     1       3.907   4.447   2.978  0.00  0.00    +0.025 A 
ATOM     29  C   UNL     1       4.100   5.460   3.897  0.00  0.00    +0.023 A 
ATOM     30  C   UNL     1       3.986   6.782   3.504  0.00  0.00    +0.059 A 
ATOM     31  C   UNL     1       3.684   7.092   2.189  0.00  0.00    +0.061 A 
ATOM     32  C   UNL     1       3.497   6.081   1.265  0.00  0.00    +0.044 A 
ATOM     33 CL   UNL     1       3.543   8.752   1.699  0.00  0.00    -0.082 Cl
ATOM     34 CL   UNL     1       4.222   8.053   4.662  0.00  0.00    -0.082 Cl
ENDBRANCH  25  27
ENDBRANCH  12  23
TORSDOF 3
