REMARK  Name = ZINC39673397
REMARK  7 active torsions:
REMARK  status: ('A' for Active; 'I' for Inactive)
REMARK    1  A    between atoms: C_5  and  C_7
REMARK    2  A    between atoms: C_10  and  C_12
REMARK    3  A    between atoms: C_16  and  C_25
REMARK    4  A    between atoms: N_27  and  C_28
REMARK    5  A    between atoms: C_28  and  C_29
REMARK    6  A    between atoms: C_32  and  O_35
REMARK    7  A    between atoms: O_35  and  C_36
REMARK                            x       y       z     vdW  Elec       q    Type
REMARK                         _______ _______ _______ _____ _____    ______ ____
ROOT
ATOM      1  C   UNL     1       2.405  -5.299  -0.397  0.00  0.00    +0.282 C 
ATOM      2  O   UNL     1       2.091  -6.443  -0.122  0.00  0.00    -0.267 OA
ATOM      3  N   UNL     1       3.134  -5.048  -1.502  0.00  0.00    -0.294 N 
ATOM      4  C   UNL     1       3.702  -3.751  -1.940  0.00  0.00    +0.121 C 
ATOM      5  C   UNL     1       5.093  -4.106  -2.510  0.00  0.00    +0.100 C 
ATOM      6  C   UNL     1       4.986  -5.586  -2.913  0.00  0.00    -0.004 C 
ATOM      7  C   UNL     1       3.554  -6.007  -2.552  0.00  0.00    +0.115 C 
ATOM      8  C   UNL     1       5.990  -6.423  -2.125  0.00  0.00    -0.010 C 
ATOM      9  C   UNL     1       5.904  -7.881  -2.584  0.00  0.00    -0.082 C 
ATOM     10  N   UNL     1       6.191  -7.961  -4.022  0.00  0.00    +0.379 N 
ATOM     11  C   UNL     1       5.167  -7.230  -4.779  0.00  0.00    -0.082 C 
ATOM     12  C   UNL     1       5.222  -5.744  -4.412  0.00  0.00    -0.010 C 
ATOM     13  H   UNL     1       7.096  -7.555  -4.206  0.00  0.00    -0.086 HD
ATOM     14  H   UNL     1       6.194  -8.928  -4.309  0.00  0.00    -0.086 HD
ENDROOT
BRANCH   1  18
ATOM     15  C   UNL     1       1.672  -2.165   1.249  0.00  0.00    +0.139 A 
ATOM     16  C   UNL     1       1.141  -3.025   2.168  0.00  0.00    +0.051 A 
ATOM     17  C   UNL     1       1.340  -4.321   1.682  0.00  0.00    +0.055 A 
ATOM     18  C   UNL     1       1.991  -4.197   0.474  0.00  0.00    +0.190 A 
ATOM     19  O   UNL     1       2.177  -2.882   0.231  0.00  0.00    -0.450 OA
BRANCH  15  24
ATOM     20  C   UNL     1       0.508   1.383   1.639  0.00  0.00    +0.001 A 
ATOM     21  C   UNL     1       1.705   2.071   1.550  0.00  0.00    +0.003 A 
ATOM     22  C   UNL     1       2.893   1.387   1.365  0.00  0.00    +0.039 A 
ATOM     23  C   UNL     1       2.891   0.009   1.266  0.00  0.00    +0.134 A 
ATOM     24  C   UNL     1       1.684  -0.693   1.354  0.00  0.00    +0.052 A 
ATOM     25  C   UNL     1       0.490   0.007   1.542  0.00  0.00    +0.014 A 
ATOM     26  F   UNL     1       4.051  -0.659   1.084  0.00  0.00    -0.205 F 
ENDBRANCH  15  24
ENDBRANCH   1  18
BRANCH   5  27
ATOM     27  C   UNL     1       6.154  -3.922  -1.456  0.00  0.00    +0.218 C 
ATOM     28  O   UNL     1       5.863  -4.007  -0.281  0.00  0.00    -0.275 OA
ATOM     29  N   UNL     1       7.426  -3.664  -1.817  0.00  0.00    -0.311 N 
ATOM     30  H   UNL     1       7.646  -3.524  -2.752  0.00  0.00    +0.149 HD
BRANCH  29  31
ATOM     31  C   UNL     1       8.478  -3.594  -0.800  0.00  0.00    +0.139 C 
BRANCH  31  32
ATOM     32  C   UNL     1       9.774  -3.175  -1.444  0.00  0.00    -0.030 A 
ATOM     33  C   UNL     1      10.588  -4.124  -2.036  0.00  0.00    +0.009 A 
ATOM     34  C   UNL     1      11.777  -3.743  -2.627  0.00  0.00    +0.046 A 
ATOM     35  C   UNL     1      12.154  -2.408  -2.628  0.00  0.00    +0.127 A 
ATOM     36  C   UNL     1      11.335  -1.458  -2.034  0.00  0.00    +0.046 A 
ATOM     37  C   UNL     1      10.145  -1.843  -1.448  0.00  0.00    +0.009 A 
BRANCH  35  38
ATOM     38  O   UNL     1      13.323  -2.031  -3.208  0.00  0.00    -0.434 OA
BRANCH  38  39
ATOM     39  C   UNL     1      13.664  -0.645  -3.140  0.00  0.00    +0.541 C 
ATOM     40  F   UNL     1      12.677   0.111  -3.782  0.00  0.00    -0.166 F 
ATOM     41  F   UNL     1      13.755  -0.252  -1.800  0.00  0.00    -0.166 F 
ENDBRANCH  38  39
ENDBRANCH  35  38
ENDBRANCH  31  32
ENDBRANCH  29  31
ENDBRANCH   5  27
TORSDOF 7
