REMARK  Name = ZINC38671673
REMARK  7 active torsions:
REMARK  status: ('A' for Active; 'I' for Inactive)
REMARK    1  A    between atoms: C_1  and  N_2
REMARK    2  A    between atoms: C_9  and  C_11
REMARK    3  A    between atoms: C_11  and  C_13
REMARK    4  A    between atoms: C_11  and  N_28
REMARK    5  A    between atoms: C_13  and  N_14
REMARK    6  A    between atoms: N_14  and  S_15
REMARK    7  A    between atoms: S_15  and  C_18
REMARK                            x       y       z     vdW  Elec       q    Type
REMARK                         _______ _______ _______ _____ _____    ______ ____
ROOT
ATOM      1  C   UNL     1       0.186  -3.646   4.189  0.00  0.00    -0.022 C 
ENDROOT
BRANCH   1  10
ATOM      2  C   UNL     1      -0.143   1.181  -0.492  0.00  0.00    +0.129 C 
ATOM      3  N   UNL     1      -0.168  -0.277  -0.357  0.00  0.00    -0.332 N 
ATOM      4  C   UNL     1      -0.293  -1.221  -1.471  0.00  0.00    +0.109 C 
ATOM      5  C   UNL     1      -0.269  -2.615  -0.822  0.00  0.00    +0.056 C 
ATOM      6  C   UNL     1      -0.126  -2.342   0.658  0.00  0.00    -0.025 A 
ATOM      7  C   UNL     1      -0.068  -0.971   0.850  0.00  0.00    +0.033 A 
ATOM      8  C   UNL     1       0.069  -0.473   2.148  0.00  0.00    +0.023 A 
ATOM      9  C   UNL     1       0.151  -1.338   3.219  0.00  0.00    +0.004 A 
ATOM     10  C   UNL     1       0.096  -2.704   3.016  0.00  0.00    -0.059 A 
ATOM     11  C   UNL     1      -0.049  -3.204   1.735  0.00  0.00    +0.007 A 
ENDBRANCH   1  10
BRANCH   1  12
ATOM     12  N   UNL     1      -0.585  -3.102   5.314  0.00  0.00    +0.385 N 
ATOM     13  C   UNL     1      -0.537  -4.043   6.439  0.00  0.00    -0.078 C 
ATOM     14  C   UNL     1      -1.271  -3.445   7.641  0.00  0.00    -0.019 C 
ATOM     15  C   UNL     1      -2.730  -3.177   7.260  0.00  0.00    -0.004 C 
ATOM     16  C   UNL     1      -2.767  -2.253   6.040  0.00  0.00    -0.019 C 
ATOM     17  C   UNL     1      -1.977  -2.895   4.897  0.00  0.00    -0.078 C 
ATOM     18  H   UNL     1      -0.186  -2.220   5.599  0.00  0.00    -0.081 HD
ENDBRANCH   1  12
BRANCH   1  19
ATOM     19  C   UNL     1       1.650  -3.805   4.604  0.00  0.00    +0.095 C 
BRANCH  19  20
ATOM     20  N   UNL     1       2.404  -4.423   3.510  0.00  0.00    -0.191 NA
ATOM     21  H   UNL     1       1.934  -4.883   2.797  0.00  0.00    +0.148 HD
BRANCH  20  22
ATOM     22  S   UNL     1       4.057  -4.336   3.491  0.00  0.00    +0.060 S 
ATOM     23  O   UNL     1       4.488  -5.042   2.335  0.00  0.00    -0.153 OA
ATOM     24  O   UNL     1       4.395  -2.975   3.722  0.00  0.00    -0.153 OA
BRANCH  22  25
ATOM     25  C   UNL     1       4.643  -5.244   4.883  0.00  0.00    +0.131 A 
ATOM     26  C   UNL     1       5.383  -6.372   4.700  0.00  0.00    +0.031 A 
ATOM     27  C   UNL     1       5.856  -7.104   5.787  0.00  0.00    +0.003 A 
ATOM     28  C   UNL     1       5.590  -6.712   7.063  0.00  0.00    +0.010 A 
ATOM     29  C   UNL     1       4.830  -5.553   7.289  0.00  0.00    +0.002 A 
ATOM     30  C   UNL     1       4.352  -4.803   6.185  0.00  0.00    +0.097 A 
ATOM     31  N   UNL     1       3.631  -3.697   6.395  0.00  0.00    -0.253 NA
ATOM     32  C   UNL     1       3.357  -3.282   7.608  0.00  0.00    +0.111 A 
ATOM     33  C   UNL     1       3.800  -3.969   8.736  0.00  0.00    +0.020 A 
ATOM     34  C   UNL     1       4.532  -5.114   8.593  0.00  0.00    +0.011 A 
ENDBRANCH  22  25
ENDBRANCH  20  22
ENDBRANCH  19  20
ENDBRANCH   1  19
TORSDOF 6
