REMARK  Name = ZINC40929271
REMARK  6 active torsions:
REMARK  status: ('A' for Active; 'I' for Inactive)
REMARK    1  A    between atoms: C_3  and  C_34
REMARK    2  A    between atoms: C_6  and  C_7
REMARK    3  A    between atoms: C_9  and  C_12
REMARK    4  A    between atoms: C_12  and  N_13
REMARK    5  A    between atoms: C_16  and  C_19
REMARK    6  A    between atoms: N_24  and  C_27
REMARK                            x       y       z     vdW  Elec       q    Type
REMARK                         _______ _______ _______ _____ _____    ______ ____
ROOT
ATOM      1  N   UNL     1      -3.361  -4.292   1.414  0.00  0.00    +0.386 N 
ATOM      2  C   UNL     1      -4.369  -3.478   2.106  0.00  0.00    -0.077 C 
ATOM      3  C   UNL     1      -4.467  -3.917   3.569  0.00  0.00    -0.006 C 
ATOM      4  C   UNL     1      -4.872  -5.393   3.627  0.00  0.00    +0.072 C 
ATOM      5  C   UNL     1      -3.855  -6.223   2.839  0.00  0.00    -0.006 C 
ATOM      6  C   UNL     1      -3.779  -5.699   1.403  0.00  0.00    -0.077 C 
ATOM      7  H   UNL     1      -2.478  -4.208   1.893  0.00  0.00    -0.081 HD
ENDROOT
BRANCH   4   8
ATOM      8  C   UNL     1      -4.895  -5.853   5.062  0.00  0.00    +0.219 C 
ATOM      9  O   UNL     1      -4.093  -5.407   5.854  0.00  0.00    -0.275 OA
ATOM     10  N   UNL     1      -5.807  -6.761   5.464  0.00  0.00    -0.298 N 
ATOM     11  C   UNL     1      -6.701  -7.405   4.491  0.00  0.00    +0.126 C 
ATOM     12  C   UNL     1      -6.552  -8.926   4.622  0.00  0.00    +0.124 C 
ATOM     13  N   UNL     1      -6.670  -9.289   6.041  0.00  0.00    -0.327 N 
ATOM     14  C   UNL     1      -5.776  -8.645   7.013  0.00  0.00    +0.124 C 
ATOM     15  C   UNL     1      -5.921  -7.128   6.882  0.00  0.00    +0.126 C 
BRANCH  13  16
ATOM     16  C   UNL     1      -7.616 -10.231   6.458  0.00  0.00    +0.030 A 
ATOM     17  C   UNL     1      -7.801 -10.477   7.812  0.00  0.00    +0.026 A 
ATOM     18  C   UNL     1      -8.736 -11.408   8.222  0.00  0.00    +0.040 A 
ATOM     19  C   UNL     1      -9.489 -12.094   7.284  0.00  0.00    +0.124 A 
ATOM     20  C   UNL     1      -9.306 -11.849   5.934  0.00  0.00    +0.040 A 
ATOM     21  C   UNL     1      -8.376 -10.916   5.519  0.00  0.00    +0.026 A 
ATOM     22  F   UNL     1     -10.402 -13.003   7.687  0.00  0.00    -0.205 F 
ENDBRANCH  13  16
ENDBRANCH   4   8
BRANCH   1  23
ATOM     23  C   UNL     1      -3.215  -3.815   0.032  0.00  0.00    +0.022 C 
BRANCH  23  26
ATOM     24  C   UNL     1      -1.279  -0.745   0.033  0.00  0.00    +0.202 A 
ATOM     25  N   UNL     1      -1.408  -2.084   0.017  0.00  0.00    -0.193 NA
ATOM     26  C   UNL     1      -2.669  -2.411   0.040  0.00  0.00    +0.211 A 
ATOM     27  O   UNL     1      -3.398  -1.288   0.072  0.00  0.00    -0.340 OA
ATOM     28  N   UNL     1      -2.474  -0.210   0.073  0.00  0.00    -0.056 NA
BRANCH  24  34
ATOM     29  C   UNL     1       0.003   1.394   0.041  0.00  0.00    +0.012 A 
ATOM     30  C   UNL     1       1.199   2.083   0.025  0.00  0.00    +0.013 A 
ATOM     31  C   UNL     1       2.397   1.393  -0.018  0.00  0.00    +0.055 A 
ATOM     32  C   UNL     1       2.404   0.010  -0.043  0.00  0.00    +0.013 A 
ATOM     33  C   UNL     1       1.213  -0.689  -0.028  0.00  0.00    +0.012 A 
ATOM     34  C   UNL     1       0.004   0.001   0.015  0.00  0.00    +0.022 A 
BRANCH  31  35
ATOM     35  C   UNL     1       3.699   2.151  -0.036  0.00  0.00    +0.417 C 
ATOM     36  F   UNL     1       4.135   2.361   1.276  0.00  0.00    -0.166 F 
ATOM     37  F   UNL     1       4.660   1.410  -0.734  0.00  0.00    -0.166 F 
ATOM     38  F   UNL     1       3.512   3.384  -0.669  0.00  0.00    -0.166 F 
ENDBRANCH  31  35
ENDBRANCH  24  34
ENDBRANCH  23  26
ENDBRANCH   1  23
TORSDOF 6
