REMARK  Name = ZINC09125174
REMARK  14 active torsions:
REMARK  status: ('A' for Active; 'I' for Inactive)
REMARK    1  A    between atoms: C_1  and  C_2
REMARK    2  A    between atoms: C_2  and  C_3
REMARK    3  A    between atoms: C_2  and  C_4
REMARK    4  A    between atoms: C_4  and  N_5
REMARK    5  A    between atoms: C_6  and  N_34
REMARK    6  A    between atoms: C_7  and  N_14
REMARK    7  A    between atoms: N_14  and  C_15
REMARK    8  A    between atoms: C_15  and  C_16
REMARK    9  A    between atoms: C_16  and  C_17
REMARK   10  A    between atoms: C_16  and  C_18
REMARK   11  A    between atoms: C_19  and  C_21
REMARK   12  A    between atoms: C_21  and  N_22
REMARK   13  A    between atoms: N_22  and  C_23
REMARK   14  A    between atoms: C_24  and  C_26
REMARK                            x       y       z     vdW  Elec       q    Type
REMARK                         _______ _______ _______ _____ _____    ______ ____
ROOT
ATOM      1  N   UNL     1       1.159   2.148   0.285  0.00  0.00    -0.263 N 
ATOM      2  C   UNL     1       0.042   1.424   0.067  0.00  0.00    +0.237 C 
ATOM      3  O   UNL     1       0.127   0.292  -0.362  0.00  0.00    -0.274 OA
ENDROOT
BRANCH   1   6
ATOM      4  N   UNL     1       4.533   0.869   0.979  0.00  0.00    -0.280 N 
ATOM      5  C   UNL     1       3.303   1.452   1.177  0.00  0.00    +0.127 A 
ATOM      6  C   UNL     1       2.429   1.556   0.114  0.00  0.00    +0.140 A 
ATOM      7  C   UNL     1       2.822   1.057  -1.141  0.00  0.00    +0.277 A 
ATOM      8  O   UNL     1       2.068   1.132  -2.096  0.00  0.00    -0.266 OA
ATOM      9  N   UNL     1       4.041   0.500  -1.283  0.00  0.00    -0.273 N 
ATOM     10  H   UNL     1       4.325   0.153  -2.176  0.00  0.00    +0.173 HD
ATOM     11  C   UNL     1       4.880   0.406  -0.235  0.00  0.00    +0.331 A 
ATOM     12  O   UNL     1       5.972  -0.105  -0.390  0.00  0.00    -0.246 OA
BRANCH   5  13
ATOM     13  N   UNL     1       2.949   1.925   2.417  0.00  0.00    -0.343 N 
ATOM     14  H   UNL     1       2.053   2.265   2.569  0.00  0.00    +0.144 HD
ATOM     15  H   UNL     1       3.594   1.918   3.142  0.00  0.00    +0.144 HD
ENDBRANCH   5  13
BRANCH   4  16
ATOM     16  C   UNL     1       5.471   0.751   2.099  0.00  0.00    +0.131 C 
BRANCH  16  18
ATOM     17  C   UNL     1       5.585  -1.735   1.879  0.00  0.00    +0.009 C 
ATOM     18  C   UNL     1       5.240  -0.579   2.819  0.00  0.00    +0.003 C 
ATOM     19  C   UNL     1       6.132  -0.647   4.060  0.00  0.00    +0.009 C 
ENDBRANCH  16  18
ENDBRANCH   4  16
ENDBRANCH   1   6
BRANCH   1  20
ATOM     20  C   UNL     1       1.054   3.550   0.699  0.00  0.00    +0.117 C 
BRANCH  20  21
ATOM     21  C   UNL     1       1.081   4.450  -0.538  0.00  0.00    +0.001 C 
ATOM     22  C   UNL     1       0.817   5.898  -0.120  0.00  0.00    +0.009 C 
ATOM     23  C   UNL     1       2.453   4.355  -1.208  0.00  0.00    +0.009 C 
ENDBRANCH  20  21
ENDBRANCH   1  20
BRANCH   2  24
ATOM     24  C   UNL     1      -1.312   2.023   0.350  0.00  0.00    +0.204 C 
BRANCH  24  25
ATOM     25  N   UNL     1      -2.348   1.009   0.138  0.00  0.00    -0.291 N 
ATOM     26  C   UNL     1      -2.769   0.149   1.247  0.00  0.00    +0.133 C 
ATOM     27  C   UNL     1      -2.914   0.868  -1.077  0.00  0.00    +0.253 C 
ATOM     28  O   UNL     1      -2.496   1.512  -2.022  0.00  0.00    -0.269 OA
BRANCH  27  29
ATOM     29  C   UNL     1      -4.034  -0.060  -1.260  0.00  0.00    +0.075 A 
ATOM     30  C   UNL     1      -4.668  -0.439  -2.425  0.00  0.00    +0.024 A 
ATOM     31  C   UNL     1      -5.721  -1.350  -2.337  0.00  0.00    -0.036 A 
ATOM     32  C   UNL     1      -6.043  -1.793  -1.092  0.00  0.00    -0.006 A 
ATOM     33  S   UNL     1      -4.927  -1.001  -0.037  0.00  0.00    -0.088 S 
ATOM     34  C   UNL     1      -7.192  -2.763  -1.121  0.00  0.00    +0.043 C 
ATOM     35  C   UNL     1      -7.847  -2.550  -2.504  0.00  0.00    +0.010 C 
ATOM     36  C   UNL     1      -6.665  -2.021  -3.338  0.00  0.00    +0.036 C 
ENDBRANCH  27  29
ENDBRANCH  24  25
ENDBRANCH   2  24
TORSDOF 9
