REMARK  Name = ZINC39694718
REMARK  6 active torsions:
REMARK  status: ('A' for Active; 'I' for Inactive)
REMARK    1  A    between atoms: C_1  and  C_2
REMARK    2  A    between atoms: C_4  and  C_39
REMARK    3  A    between atoms: C_6  and  C_8
REMARK    4  A    between atoms: C_8  and  N_9
REMARK    5  A    between atoms: C_10  and  C_12
REMARK    6  A    between atoms: C_23  and  C_25
REMARK                            x       y       z     vdW  Elec       q    Type
REMARK                         _______ _______ _______ _____ _____    ______ ____
ROOT
ATOM      1  C   UNL     1       2.967  -4.167   4.318  0.00  0.00    +0.100 C 
ATOM      2  C   UNL     1       3.756  -5.132   3.405  0.00  0.00    +0.121 C 
ATOM      3  N   UNL     1       4.659  -5.864   4.324  0.00  0.00    -0.296 N 
ATOM      4  C   UNL     1       3.835  -6.108   5.532  0.00  0.00    +0.115 C 
ATOM      5  C   UNL     1       3.021  -4.812   5.713  0.00  0.00    -0.004 C 
ATOM      6  C   UNL     1       3.722  -3.881   6.698  0.00  0.00    -0.010 C 
ATOM      7  C   UNL     1       3.713  -4.519   8.090  0.00  0.00    -0.082 C 
ATOM      8  N   UNL     1       2.327  -4.757   8.512  0.00  0.00    +0.379 N 
ATOM      9  C   UNL     1       1.688  -5.724   7.612  0.00  0.00    -0.082 C 
ATOM     10  C   UNL     1       1.612  -5.138   6.200  0.00  0.00    -0.010 C 
ATOM     11  C   UNL     1       5.939  -6.227   4.110  0.00  0.00    +0.247 C 
ATOM     12  O   UNL     1       6.524  -6.905   4.932  0.00  0.00    -0.270 OA
ATOM     13  H   UNL     1       2.321  -5.120   9.453  0.00  0.00    -0.086 HD
ATOM     14  H   UNL     1       1.815  -3.887   8.487  0.00  0.00    -0.086 HD
ENDROOT
BRANCH  11  15
ATOM     15  C   UNL     1       6.632  -5.799   2.877  0.00  0.00    +0.045 A 
ATOM     16  C   UNL     1       6.030  -5.996   1.629  0.00  0.00    +0.014 A 
ATOM     17  C   UNL     1       6.673  -5.598   0.477  0.00  0.00    +0.001 A 
ATOM     18  C   UNL     1       7.922  -5.000   0.541  0.00  0.00    +0.012 A 
ATOM     19  C   UNL     1       8.537  -4.795   1.771  0.00  0.00    +0.031 A 
ATOM     20  C   UNL     1       7.891  -5.190   2.953  0.00  0.00    +0.006 A 
ATOM     21  C   UNL     1       8.759  -4.850   4.107  0.00  0.00    -0.006 A 
ATOM     22  C   UNL     1       8.596  -5.030   5.475  0.00  0.00    +0.009 A 
ATOM     23  C   UNL     1       9.584  -4.611   6.352  0.00  0.00    +0.001 A 
ATOM     24  C   UNL     1      10.735  -4.014   5.877  0.00  0.00    +0.001 A 
ATOM     25  C   UNL     1      10.913  -3.828   4.515  0.00  0.00    +0.012 A 
ATOM     26  C   UNL     1       9.931  -4.243   3.625  0.00  0.00    +0.030 A 
ATOM     27  C   UNL     1       9.840  -4.195   2.146  0.00  0.00    +0.194 C 
ATOM     28  O   UNL     1      10.669  -3.737   1.386  0.00  0.00    -0.287 OA
ENDBRANCH  11  15
BRANCH   1  30
ATOM     29  N   UNL     1       0.806  -2.971   4.187  0.00  0.00    -0.311 N 
ATOM     30  C   UNL     1       1.540  -4.050   3.849  0.00  0.00    +0.218 C 
ATOM     31  O   UNL     1       1.052  -4.926   3.166  0.00  0.00    -0.275 OA
ATOM     32  H   UNL     1       1.196  -2.271   4.733  0.00  0.00    +0.149 HD
BRANCH  29  33
ATOM     33  C   UNL     1      -0.581  -2.857   3.731  0.00  0.00    +0.139 C 
BRANCH  33  39
ATOM     34  C   UNL     1      -3.065  -0.332   7.267  0.00  0.00    +0.044 C 
ATOM     35  C   UNL     1      -2.363  -0.361   5.933  0.00  0.00    -0.050 A 
ATOM     36  C   UNL     1      -2.262   0.793   5.180  0.00  0.00    +0.006 A 
ATOM     37  C   UNL     1      -1.618   0.766   3.957  0.00  0.00    -0.050 A 
ATOM     38  C   UNL     1      -1.074  -0.415   3.488  0.00  0.00    +0.008 A 
ATOM     39  C   UNL     1      -1.174  -1.569   4.242  0.00  0.00    -0.030 A 
ATOM     40  C   UNL     1      -1.814  -1.541   5.467  0.00  0.00    +0.008 A 
ATOM     41  C   UNL     1      -1.509   2.024   3.134  0.00  0.00    +0.044 C 
ENDBRANCH  33  39
ENDBRANCH  29  33
ENDBRANCH   1  30
TORSDOF 4
