REMARK  Name = ZINC10267072
REMARK  10 active torsions:
REMARK  status: ('A' for Active; 'I' for Inactive)
REMARK    1  A    between atoms: C_1  and  C_2
REMARK    2  A    between atoms: C_4  and  C_32
REMARK    3  A    between atoms: C_6  and  S_10
REMARK    4  A    between atoms: C_7  and  C_8
REMARK    5  A    between atoms: S_10  and  C_11
REMARK    6  A    between atoms: C_11  and  C_13
REMARK    7  A    between atoms: C_11  and  C_14
REMARK    8  A    between atoms: N_16  and  C_17
REMARK    9  A    between atoms: C_20  and  S_23
REMARK   10  A    between atoms: S_23  and  N_26
REMARK                            x       y       z     vdW  Elec       q    Type
REMARK                         _______ _______ _______ _____ _____    ______ ____
ROOT
ATOM      1  C   UNL     1      -2.198   1.476  -0.564  0.00  0.00    +0.230 C 
ATOM      2  O   UNL     1      -3.117   2.073  -1.085  0.00  0.00    -0.274 OA
ATOM      3  N   UNL     1      -1.195   2.161   0.019  0.00  0.00    -0.285 N 
ATOM      4  H   UNL     1      -0.497   1.685   0.497  0.00  0.00    +0.155 HD
ENDROOT
BRANCH   3   5
ATOM      5  C   UNL     1      -1.159   3.557  -0.063  0.00  0.00    +0.034 A 
ATOM      6  C   UNL     1       0.059   4.218  -0.156  0.00  0.00    +0.025 A 
ATOM      7  C   UNL     1       0.090   5.596  -0.243  0.00  0.00    +0.030 A 
ATOM      8  C   UNL     1      -1.089   6.318  -0.228  0.00  0.00    +0.106 A 
ATOM      9  C   UNL     1      -2.303   5.663  -0.130  0.00  0.00    +0.030 A 
ATOM     10  C   UNL     1      -2.341   4.285  -0.048  0.00  0.00    +0.025 A 
BRANCH   8  11
ATOM     11  S   UNL     1      -1.044   8.076  -0.333  0.00  0.00    +0.061 S 
ATOM     12  O   UNL     1       0.182   8.415  -0.965  0.00  0.00    -0.153 OA
ATOM     13  O   UNL     1      -2.305   8.485  -0.847  0.00  0.00    -0.153 OA
BRANCH  11  14
ATOM     14  N   UNL     1      -0.955   8.657   1.215  0.00  0.00    -0.177 NA
ATOM     15  C   UNL     1      -2.176   8.961   1.973  0.00  0.00    +0.109 C 
ATOM     16  C   UNL     1      -2.120   8.211   3.312  0.00  0.00    +0.017 C 
ATOM     17  C   UNL     1      -0.823   8.574   4.040  0.00  0.00    +0.003 C 
ATOM     18  C   UNL     1       0.376   8.140   3.194  0.00  0.00    +0.017 C 
ATOM     19  C   UNL     1       0.348   8.884   1.855  0.00  0.00    +0.109 C 
ENDBRANCH  11  14
ENDBRANCH   8  11
ENDBRANCH   3   5
BRANCH   1  20
ATOM     20  C   UNL     1      -2.182  -0.031  -0.565  0.00  0.00    +0.136 C 
ATOM     21  C   UNL     1      -2.779  -0.548   0.745  0.00  0.00    +0.029 C 
BRANCH  20  22
ATOM     22  S   UNL     1      -3.161  -0.644  -1.958  0.00  0.00    -0.092 S 
BRANCH  22  28
ATOM     23  C   UNL     1      -3.781  -5.635  -3.541  0.00  0.00    +0.045 C 
ATOM     24  C   UNL     1      -3.178  -4.636  -2.588  0.00  0.00    -0.029 A 
ATOM     25  C   UNL     1      -2.353  -5.048  -1.556  0.00  0.00    +0.027 A 
ATOM     26  C   UNL     1      -1.814  -4.108  -0.697  0.00  0.00    +0.040 A 
ATOM     27  N   UNL     1      -2.066  -2.822  -0.845  0.00  0.00    -0.244 NA
ATOM     28  C   UNL     1      -2.853  -2.373  -1.812  0.00  0.00    +0.115 A 
ATOM     29  C   UNL     1      -3.438  -3.268  -2.725  0.00  0.00    +0.086 A 
ATOM     30  C   UNL     1      -0.917  -4.561   0.426  0.00  0.00    +0.065 C 
BRANCH  29  31
ATOM     31  C   UNL     1      -4.284  -2.788  -3.776  0.00  0.00    +0.102 C 
ATOM     32  N   UNL     1      -4.955  -2.407  -4.610  0.00  0.00    -0.191 NA
ENDBRANCH  29  31
ENDBRANCH  22  28
ENDBRANCH  20  22
ENDBRANCH   1  20
TORSDOF 7
