REMARK  Name = ZINC33900626
REMARK  12 active torsions:
REMARK  status: ('A' for Active; 'I' for Inactive)
REMARK    1  A    between atoms: C_1  and  C_2
REMARK    2  A    between atoms: C_13  and  O_15
REMARK    3  A    between atoms: N_21  and  O_22
REMARK    4  A    between atoms: O_22  and  C_23
REMARK    5  A    between atoms: C_23  and  C_24
REMARK    6  A    between atoms: N_26  and  C_27
REMARK    7  A    between atoms: C_27  and  C_29
REMARK    8  A    between atoms: C_27  and  C_36
REMARK    9  A    between atoms: C_29  and  C_30
REMARK   10  A    between atoms: C_36  and  O_38
REMARK   11  A    between atoms: O_38  and  C_39
REMARK   12  A    between atoms: C_42  and  C_43
REMARK                            x       y       z     vdW  Elec       q    Type
REMARK                         _______ _______ _______ _____ _____    ______ ____
ROOT
ATOM      1  C   UNL     1      -0.019   1.526   0.010  0.00  0.00    +0.014 C 
ATOM      2  C   UNL     1       0.002  -0.004   0.002  0.00  0.00    -0.003 C 
ATOM      3  C   UNL     1       0.595  -0.568  -1.292  0.00  0.00    +0.010 C 
ATOM      4  C   UNL     1       2.102  -0.332  -1.336  0.00  0.00    +0.005 C 
ATOM      5  C   UNL     1       2.756  -1.083  -0.170  0.00  0.00    +0.002 C 
ATOM      6  C   UNL     1       2.216  -0.518   1.141  0.00  0.00    -0.003 C 
ATOM      7  C   UNL     1       0.733  -0.586   1.224  0.00  0.00    +0.001 C 
ATOM      8  C   UNL     1       0.240  -2.036   1.327  0.00  0.00    +0.007 C 
ATOM      9  C   UNL     1      -1.145  -2.060   0.650  0.00  0.00    +0.032 C 
ATOM     10  C   UNL     1      -1.419  -0.620   0.162  0.00  0.00    +0.121 C 
ATOM     11  C   UNL     1       2.843  -1.272   2.320  0.00  0.00    +0.008 C 
ATOM     12  C   UNL     1       4.351  -1.014   2.339  0.00  0.00    +0.031 C 
ATOM     13  C   UNL     1       4.928  -1.405   0.991  0.00  0.00    -0.062 C 
ATOM     14  C   UNL     1       5.996  -2.194   0.980  0.00  0.00    +0.026 C 
ATOM     15  C   UNL     1       6.606  -2.591  -0.301  0.00  0.00    +0.080 C 
ATOM     16  N   UNL     1       7.358  -3.641  -0.403  0.00  0.00    -0.089 NA
ATOM     17  C   UNL     1       6.306  -1.704  -1.494  0.00  0.00    +0.059 C 
ATOM     18  C   UNL     1       4.793  -1.493  -1.536  0.00  0.00    +0.017 C 
ATOM     19  C   UNL     1       4.275  -0.890  -0.258  0.00  0.00    -0.007 C 
ATOM     20  C   UNL     1       4.556   0.612  -0.339  0.00  0.00    +0.016 C 
ENDROOT
BRANCH  10  21
ATOM     21  O   UNL     1      -2.103  -0.637  -1.092  0.00  0.00    -0.391 OA
ATOM     22  H   UNL     1      -2.994  -1.012  -1.050  0.00  0.00    +0.210 HD
ENDBRANCH  10  21
BRANCH  16  23
ATOM     23  O   UNL     1       7.613  -4.442   0.736  0.00  0.00    -0.384 OA
BRANCH  23  24
ATOM     24  C   UNL     1       8.457  -5.566   0.478  0.00  0.00    +0.358 C 
BRANCH  24  25
ATOM     25  C   UNL     1       8.661  -6.344   1.753  0.00  0.00    +0.254 C 
ATOM     26  O   UNL     1       8.135  -5.973   2.780  0.00  0.00    -0.272 OA
ATOM     27  N   UNL     1       9.427  -7.453   1.750  0.00  0.00    -0.299 N 
ATOM     28  H   UNL     1       9.848  -7.750   0.929  0.00  0.00    +0.150 HD
BRANCH  27  29
ATOM     29  C   UNL     1       9.625  -8.209   2.990  0.00  0.00    +0.186 C 
BRANCH  29  30
ATOM     30  C   UNL     1      10.759  -7.602   3.773  0.00  0.00    +0.328 C 
ATOM     31  O   UNL     1      11.343  -6.636   3.342  0.00  0.00    -0.249 OA
BRANCH  30  32
ATOM     32  O   UNL     1      11.121  -8.133   4.952  0.00  0.00    -0.467 OA
ATOM     33  C   UNL     1      12.205  -7.506   5.641  0.00  0.00    +0.280 C 
ENDBRANCH  30  32
ENDBRANCH  29  30
BRANCH  29  34
ATOM     34  C   UNL     1       9.960  -9.664   2.651  0.00  0.00    +0.069 C 
BRANCH  34  35
ATOM     35  C   UNL     1       8.777 -10.307   1.976  0.00  0.00    -0.045 A 
ATOM     36  C   UNL     1       7.810 -10.943   2.732  0.00  0.00    +0.004 A 
ATOM     37  C   UNL     1       6.725 -11.534   2.112  0.00  0.00    +0.000 A 
ATOM     38  C   UNL     1       6.606 -11.489   0.736  0.00  0.00    +0.000 A 
ATOM     39  C   UNL     1       7.572 -10.852  -0.021  0.00  0.00    +0.000 A 
ATOM     40  C   UNL     1       8.655 -10.258   0.599  0.00  0.00    +0.004 A 
ENDBRANCH  34  35
ENDBRANCH  29  34
ENDBRANCH  27  29
ENDBRANCH  24  25
ENDBRANCH  23  24
ENDBRANCH  16  23
TORSDOF 9
