REMARK  Name = ZINC56835846
REMARK  8 active torsions:
REMARK  status: ('A' for Active; 'I' for Inactive)
REMARK    1  A    between atoms: C_1  and  C_2
REMARK    2  A    between atoms: C_2  and  C_4
REMARK    3  A    between atoms: C_2  and  N_16
REMARK    4  A    between atoms: C_4  and  O_5
REMARK    5  A    between atoms: O_5  and  C_6
REMARK    6  A    between atoms: C_11  and  C_12
REMARK    7  A    between atoms: N_19  and  N_20
REMARK    8  A    between atoms: N_23  and  C_24
REMARK                            x       y       z     vdW  Elec       q    Type
REMARK                         _______ _______ _______ _____ _____    ______ ____
ROOT
ATOM      1  N   UNL     1       0.683  -0.495  -1.199  0.00  0.00    -0.292 N 
ATOM      2  C   UNL     1       0.001  -0.629  -2.353  0.00  0.00    +0.316 C 
ATOM      3  O   UNL     1      -1.185  -0.363  -2.393  0.00  0.00    -0.251 OA
ATOM      4  N   UNL     1       0.633  -1.057  -3.464  0.00  0.00    -0.217 N 
ATOM      5  H   UNL     1       1.629  -0.707  -1.167  0.00  0.00    +0.151 HD
ATOM      6  H   UNL     1       0.143  -1.153  -4.295  0.00  0.00    +0.174 HD
ENDROOT
BRANCH   4   7
ATOM      7  N   UNL     1       2.000  -1.363  -3.418  0.00  0.00    -0.217 N 
ATOM      8  C   UNL     1       2.632  -1.791  -4.528  0.00  0.00    +0.320 C 
ATOM      9  O   UNL     1       3.818  -2.056  -4.488  0.00  0.00    -0.251 OA
ATOM     10  N   UNL     1       1.951  -1.924  -5.683  0.00  0.00    -0.268 N 
ATOM     11  H   UNL     1       2.491  -1.267  -2.587  0.00  0.00    +0.174 HD
ATOM     12  H   UNL     1       0.992  -1.777  -5.700  0.00  0.00    +0.156 HD
BRANCH  10  13
ATOM     13  C   UNL     1       2.626  -2.274  -6.858  0.00  0.00    +0.035 A 
ATOM     14  C   UNL     1       2.221  -1.746  -8.077  0.00  0.00    +0.023 A 
ATOM     15  C   UNL     1       2.890  -2.093  -9.235  0.00  0.00    +0.002 A 
ATOM     16  C   UNL     1       3.960  -2.967  -9.181  0.00  0.00    +0.000 A 
ATOM     17  C   UNL     1       4.365  -3.495  -7.969  0.00  0.00    +0.002 A 
ATOM     18  C   UNL     1       3.705  -3.147  -6.807  0.00  0.00    +0.023 A 
ENDBRANCH  10  13
ENDBRANCH   4   7
BRANCH   1  20
ATOM     19  C   UNL     1      -0.036   1.499   0.021  0.00  0.00    +0.031 C 
ATOM     20  C   UNL     1      -0.005  -0.030   0.009  0.00  0.00    +0.109 C 
BRANCH  20  21
ATOM     21  C   UNL     1       0.740  -0.535   1.246  0.00  0.00    +0.251 C 
BRANCH  21  22
ATOM     22  O   UNL     1       2.038   0.060   1.297  0.00  0.00    -0.490 OA
BRANCH  22  23
ATOM     23  C   UNL     1       2.834  -0.285   2.343  0.00  0.00    +0.132 A 
ATOM     24  C   UNL     1       2.378  -1.183   3.297  0.00  0.00    +0.046 A 
ATOM     25  C   UNL     1       3.190  -1.532   4.359  0.00  0.00    +0.004 A 
ATOM     26  C   UNL     1       4.456  -0.988   4.471  0.00  0.00    +0.001 A 
ATOM     27  C   UNL     1       4.913  -0.092   3.522  0.00  0.00    +0.016 A 
ATOM     28  C   UNL     1       4.107   0.256   2.455  0.00  0.00    +0.096 A 
BRANCH  28  29
ATOM     29  C   UNL     1       4.607   1.227   1.417  0.00  0.00    +0.421 C 
ATOM     30  F   UNL     1       5.907   1.630   1.744  0.00  0.00    -0.166 F 
ATOM     31  F   UNL     1       4.613   0.608   0.163  0.00  0.00    -0.166 F 
ATOM     32  F   UNL     1       3.767   2.346   1.381  0.00  0.00    -0.166 F 
ENDBRANCH  28  29
ENDBRANCH  22  23
ENDBRANCH  21  22
ENDBRANCH  20  21
ENDBRANCH   1  20
TORSDOF 7
