REMARK  Name = ZINC02074338
REMARK  7 active torsions:
REMARK  status: ('A' for Active; 'I' for Inactive)
REMARK    1  A    between atoms: C_1  and  C_2
REMARK    2  A    between atoms: C_3  and  C_30
REMARK    3  A    between atoms: C_10  and  S_14
REMARK    4  A    between atoms: S_14  and  C_15
REMARK    5  A    between atoms: C_15  and  C_16
REMARK    6  A    between atoms: N_18  and  C_19
REMARK    7  A    between atoms: C_20  and  C_28
REMARK                            x       y       z     vdW  Elec       q    Type
REMARK                         _______ _______ _______ _____ _____    ______ ____
ROOT
ATOM      1  C   UNL     1      -0.013   1.086   0.008  0.00  0.00    +0.173 C 
ENDROOT
BRANCH   1   2
ATOM      2  C   UNL     1      -0.742   1.585  -1.213  0.00  0.00    +0.228 C 
ATOM      3  O   UNL     1      -1.736   2.268  -1.088  0.00  0.00    -0.275 OA
ATOM      4  N   UNL     1      -0.288   1.272  -2.443  0.00  0.00    -0.278 N 
ATOM      5  H   UNL     1       0.507   0.726  -2.543  0.00  0.00    +0.155 HD
BRANCH   4   6
ATOM      6  C   UNL     1      -0.960   1.732  -3.568  0.00  0.00    +0.090 A 
ATOM      7  C   UNL     1      -0.648   1.523  -4.903  0.00  0.00    +0.084 A 
ATOM      8  C   UNL     1      -1.523   2.117  -5.898  0.00  0.00    -0.018 A 
ATOM      9  C   UNL     1      -2.559   2.829  -5.402  0.00  0.00    -0.004 A 
ATOM     10  S   UNL     1      -2.386   2.713  -3.644  0.00  0.00    -0.077 S 
ATOM     11  C   UNL     1      -3.612   3.554  -6.181  0.00  0.00    +0.043 C 
ATOM     12  C   UNL     1      -3.135   3.684  -7.635  0.00  0.00    +0.005 C 
ATOM     13  C   UNL     1      -2.628   2.319  -8.112  0.00  0.00    +0.005 C 
ATOM     14  C   UNL     1      -1.318   1.974  -7.401  0.00  0.00    +0.037 C 
BRANCH   7  15
ATOM     15  C   UNL     1       0.493   0.747  -5.286  0.00  0.00    +0.102 C 
ATOM     16  N   UNL     1       1.398   0.132  -5.590  0.00  0.00    -0.191 NA
ENDBRANCH   7  15
ENDBRANCH   4   6
ENDBRANCH   1   2
BRANCH   1  17
ATOM     17  S   UNL     1      -0.862   1.671   1.500  0.00  0.00    -0.076 S 
BRANCH  17  27
ATOM     18  C   UNL     1       2.947  -0.939   6.604  0.00  0.00    +0.045 C 
ATOM     19  C   UNL     1       1.791  -0.145   7.155  0.00  0.00    -0.028 A 
ATOM     20  C   UNL     1       1.628  -0.031   8.486  0.00  0.00    -0.008 A 
ATOM     21  S   UNL     1       0.172   0.992   8.620  0.00  0.00    -0.074 S 
ATOM     22  C   UNL     1      -0.150   1.205   6.886  0.00  0.00    +0.114 A 
ATOM     23  C   UNL     1       0.886   0.476   6.278  0.00  0.00    +0.055 A 
ATOM     24  C   UNL     1       0.866   0.487   4.799  0.00  0.00    +0.173 A 
ATOM     25  N   UNL     1       1.631  -0.038   3.874  0.00  0.00    -0.128 NA
ATOM     26  N   UNL     1       1.177   0.272   2.709  0.00  0.00    -0.122 NA
ATOM     27  C   UNL     1       0.099   1.013   2.823  0.00  0.00    +0.198 A 
ATOM     28  N   UNL     1      -0.137   1.183   4.159  0.00  0.00    -0.260 N 
ATOM     29  C   UNL     1      -1.088   1.845   4.878  0.00  0.00    +0.208 A 
ATOM     30  N   UNL     1      -1.078   1.845   6.181  0.00  0.00    -0.230 NA
ATOM     31  C   UNL     1       2.474  -0.612   9.590  0.00  0.00    +0.052 C 
ENDBRANCH  17  27
ENDBRANCH   1  17
TORSDOF 5
