REMARK  Name = ZINC36026270
REMARK  7 active torsions:
REMARK  status: ('A' for Active; 'I' for Inactive)
REMARK    1  A    between atoms: C_1  and  C_2
REMARK    2  A    between atoms: C_2  and  C_3
REMARK    3  A    between atoms: C_3  and  C_5
REMARK    4  A    between atoms: C_3  and  C_6
REMARK    5  A    between atoms: C_6  and  N_7
REMARK    6  A    between atoms: C_10  and  C_26
REMARK    7  A    between atoms: C_19  and  C_21
REMARK                            x       y       z     vdW  Elec       q    Type
REMARK                         _______ _______ _______ _____ _____    ______ ____
ROOT
ATOM      1  N   UNL     1       2.062  -2.909   3.550  0.00  0.00    -0.313 N 
ATOM      2  C   UNL     1       3.393  -2.881   3.769  0.00  0.00    +0.200 C 
ATOM      3  O   UNL     1       4.253  -2.981   2.920  0.00  0.00    -0.277 OA
ATOM      4  C   UNL     1       3.632  -2.705   5.253  0.00  0.00    +0.016 C 
ATOM      5  N   UNL     1       2.336  -3.046   5.888  0.00  0.00    +0.401 N 
ATOM      6  C   UNL     1       1.354  -2.746   4.823  0.00  0.00    +0.006 C 
ATOM      7  C   UNL     1       0.851  -1.311   4.969  0.00  0.00    +0.025 C 
ATOM      8  C   UNL     1      -0.136  -1.000   3.839  0.00  0.00    +0.108 C 
ATOM      9  N   UNL     1      -1.192  -2.022   3.840  0.00  0.00    -0.297 N 
ATOM     10  C   UNL     1      -0.806  -3.438   3.777  0.00  0.00    +0.108 C 
ATOM     11  C   UNL     1       0.187  -3.728   4.908  0.00  0.00    +0.025 C 
ATOM     12  C   UNL     1      -2.491  -1.666   3.898  0.00  0.00    +0.253 C 
ATOM     13  O   UNL     1      -2.795  -0.502   4.078  0.00  0.00    -0.269 OA
ATOM     14  C   UNL     1       4.730  -3.657   5.732  0.00  0.00    -0.004 C 
ATOM     15  H   UNL     1       2.308  -4.023   6.139  0.00  0.00    -0.082 HD
ATOM     16  H   UNL     1       2.171  -2.465   6.696  0.00  0.00    -0.082 HD
ENDROOT
BRANCH  12  17
ATOM     17  C   UNL     1      -3.536  -2.682   3.743  0.00  0.00    +0.074 A 
ATOM     18  C   UNL     1      -4.867  -2.631   4.128  0.00  0.00    +0.021 A 
ATOM     19  C   UNL     1      -5.613  -3.751   3.846  0.00  0.00    +0.008 A 
ATOM     20  C   UNL     1      -5.017  -4.802   3.229  0.00  0.00    +0.046 A 
ATOM     21  S   UNL     1      -3.430  -4.301   3.004  0.00  0.00    -0.092 S 
ENDBRANCH  12  17
BRANCH   1  22
ATOM     22  C   UNL     1       1.423  -3.070   2.242  0.00  0.00    +0.109 C 
BRANCH  22  23
ATOM     23  C   UNL     1       1.276  -4.560   1.926  0.00  0.00    +0.003 C 
ATOM     24  C   UNL     1       2.662  -5.181   1.742  0.00  0.00    +0.009 C 
BRANCH  23  26
ATOM     25  C   UNL     1       0.213  -6.219   0.390  0.00  0.00    +0.004 C 
ATOM     26  C   UNL     1       0.466  -4.731   0.639  0.00  0.00    +0.001 C 
ENDBRANCH  23  26
ENDBRANCH  22  23
ENDBRANCH   1  22
TORSDOF 4
