REMARK  Name = ZINC35606419
REMARK  5 active torsions:
REMARK  status: ('A' for Active; 'I' for Inactive)
REMARK    1  A    between atoms: C_8  and  C_21
REMARK    2  A    between atoms: C_9  and  N_10
REMARK    3  A    between atoms: N_10  and  C_11
REMARK    4  A    between atoms: C_24  and  O_28
REMARK    5  A    between atoms: C_25  and  O_27
REMARK                            x       y       z     vdW  Elec       q    Type
REMARK                         _______ _______ _______ _____ _____    ______ ____
ROOT
ATOM      1  C   UNL     1       0.247   0.348  -2.347  0.00  0.00    +0.005 A 
ATOM      2  C   UNL     1       1.501   0.897  -2.671  0.00  0.00    +0.018 A 
ATOM      3  C   UNL     1       2.597   0.556  -1.965  0.00  0.00    +0.094 A 
ATOM      4  N   UNL     1       2.507  -0.328  -0.923  0.00  0.00    -0.289 N 
ATOM      5  C   UNL     1       1.294  -0.881  -0.583  0.00  0.00    +0.117 A 
ATOM      6  C   UNL     1       0.141  -0.531  -1.316  0.00  0.00    +0.045 A 
ATOM      7  N   UNL     1       1.476  -1.694   0.445  0.00  0.00    -0.338 N 
ATOM      8  C   UNL     1       2.776  -1.691   0.790  0.00  0.00    +0.087 A 
ATOM      9  C   UNL     1       3.442  -0.835  -0.062  0.00  0.00    +0.133 A 
ATOM     10  H   UNL     1       0.781  -2.211   0.882  0.00  0.00    +0.167 HD
ENDROOT
BRANCH   8  11
ATOM     11  C   UNL     1       3.386  -2.470   1.893  0.00  0.00    +0.005 A 
ATOM     12  C   UNL     1       4.289  -1.859   2.763  0.00  0.00    +0.014 A 
ATOM     13  C   UNL     1       4.857  -2.586   3.790  0.00  0.00    +0.050 A 
ATOM     14  C   UNL     1       4.532  -3.923   3.960  0.00  0.00    +0.158 A 
ATOM     15  C   UNL     1       3.631  -4.538   3.095  0.00  0.00    +0.159 A 
ATOM     16  C   UNL     1       3.054  -3.813   2.067  0.00  0.00    +0.059 A 
BRANCH  15  17
ATOM     17  O   UNL     1       3.313  -5.849   3.264  0.00  0.00    -0.503 OA
ATOM     18  H   UNL     1       2.554  -5.999   3.844  0.00  0.00    +0.292 HD
ENDBRANCH  15  17
BRANCH  14  19
ATOM     19  O   UNL     1       5.094  -4.635   4.973  0.00  0.00    -0.503 OA
ATOM     20  H   UNL     1       4.590  -4.611   5.798  0.00  0.00    +0.292 HD
ENDBRANCH  14  19
ENDBRANCH   8  11
BRANCH   9  21
ATOM     21  N   UNL     1       4.806  -0.542  -0.049  0.00  0.00    -0.299 N 
ATOM     22  H   UNL     1       5.444  -1.185  -0.396  0.00  0.00    +0.154 HD
BRANCH  21  23
ATOM     23  C   UNL     1       5.254   0.679   0.466  0.00  0.00    +0.036 A 
ATOM     24  C   UNL     1       4.360   1.541   1.087  0.00  0.00    +0.027 A 
ATOM     25  C   UNL     1       4.802   2.748   1.594  0.00  0.00    +0.051 A 
ATOM     26  C   UNL     1       6.139   3.102   1.485  0.00  0.00    +0.162 A 
ATOM     27  C   UNL     1       7.037   2.240   0.866  0.00  0.00    +0.164 A 
ATOM     28  C   UNL     1       6.594   1.027   0.360  0.00  0.00    +0.072 A 
ATOM     29  O   UNL     1       8.354   2.566   0.757  0.00  0.00    -0.485 OA
ATOM     30  C   UNL     1       8.693   3.944   0.946  0.00  0.00    +0.270 C 
ATOM     31  C   UNL     1       7.963   4.452   2.196  0.00  0.00    +0.270 C 
ATOM     32  O   UNL     1       6.556   4.297   1.988  0.00  0.00    -0.485 OA
ENDBRANCH  21  23
ENDBRANCH   9  21
TORSDOF 5
