REMARK  Name = ZINC15108053
REMARK  8 active torsions:
REMARK  status: ('A' for Active; 'I' for Inactive)
REMARK    1  A    between atoms: C_1  and  C_2
REMARK    2  A    between atoms: C_3  and  C_26
REMARK    3  A    between atoms: C_4  and  C_16
REMARK    4  A    between atoms: C_20  and  O_24
REMARK    5  A    between atoms: C_21  and  O_22
REMARK    6  A    between atoms: O_22  and  C_23
REMARK    7  A    between atoms: O_24  and  C_25
REMARK    8  A    between atoms: C_26  and  C_28
REMARK                            x       y       z     vdW  Elec       q    Type
REMARK                         _______ _______ _______ _____ _____    ______ ____
ROOT
ATOM      1  C   UNL     1       0.246   1.692  -0.452  0.00  0.00    +0.061 C 
ATOM      2  C   UNL     1       0.103   0.212  -0.201  0.00  0.00    +0.016 C 
ATOM      3  C   UNL     1      -1.130  -0.327  -0.179  0.00  0.00    +0.039 C 
ATOM      4  C   UNL     1      -1.384  -1.792   0.052  0.00  0.00    +0.159 C 
ATOM      5  N   UNL     1      -0.160  -2.431   0.535  0.00  0.00    -0.300 N 
ATOM      6  C   UNL     1       0.020  -3.668   1.085  0.00  0.00    +0.071 A 
ATOM      7  C   UNL     1      -0.854  -4.708   1.376  0.00  0.00    +0.028 A 
ATOM      8  C   UNL     1      -0.310  -5.848   1.946  0.00  0.00    +0.002 A 
ATOM      9  C   UNL     1       1.043  -5.959   2.218  0.00  0.00    +0.002 A 
ATOM     10  C   UNL     1       1.933  -4.938   1.939  0.00  0.00    +0.030 A 
ATOM     11  C   UNL     1       1.406  -3.776   1.364  0.00  0.00    +0.091 A 
ATOM     12  N   UNL     1       1.985  -2.621   0.980  0.00  0.00    -0.214 NA
ATOM     13  C   UNL     1       1.074  -1.821   0.494  0.00  0.00    +0.202 A 
ATOM     14  N   UNL     1       1.233  -0.537  -0.009  0.00  0.00    -0.288 N 
ATOM     15  H   UNL     1       2.112  -0.181  -0.213  0.00  0.00    +0.155 HD
ENDROOT
BRANCH   4  16
ATOM     16  C   UNL     1      -1.810  -2.437  -1.241  0.00  0.00    +0.025 A 
ATOM     17  C   UNL     1      -2.866  -3.330  -1.254  0.00  0.00    +0.010 A 
ATOM     18  C   UNL     1      -3.259  -3.923  -2.438  0.00  0.00    +0.004 A 
ATOM     19  C   UNL     1      -2.598  -3.628  -3.616  0.00  0.00    +0.049 A 
ATOM     20  C   UNL     1      -1.539  -2.735  -3.611  0.00  0.00    +0.162 A 
ATOM     21  C   UNL     1      -1.147  -2.132  -2.419  0.00  0.00    +0.167 A 
BRANCH  21  22
ATOM     22  O   UNL     1      -0.112  -1.250  -2.409  0.00  0.00    -0.491 OA
ATOM     23  C   UNL     1       1.207  -1.798  -2.444  0.00  0.00    +0.277 C 
ENDBRANCH  21  22
BRANCH  20  24
ATOM     24  O   UNL     1      -0.888  -2.443  -4.768  0.00  0.00    -0.491 OA
ATOM     25  C   UNL     1      -1.349  -3.094  -5.954  0.00  0.00    +0.277 C 
ENDBRANCH  20  24
ENDBRANCH   4  16
BRANCH   3  26
ATOM     26  C   UNL     1      -2.232   0.518  -0.380  0.00  0.00    +0.160 C 
ATOM     27  O   UNL     1      -2.067   1.717  -0.486  0.00  0.00    -0.293 OA
ATOM     28  C   UNL     1      -3.620  -0.062  -0.466  0.00  0.00    +0.091 C 
ENDBRANCH   3  26
TORSDOF 4
