REMARK  Name = ZINC38796727
REMARK  7 active torsions:
REMARK  status: ('A' for Active; 'I' for Inactive)
REMARK    1  A    between atoms: C_4  and  N_7
REMARK    2  A    between atoms: C_10  and  C_13
REMARK    3  A    between atoms: C_13  and  S_14
REMARK    4  A    between atoms: S_14  and  C_15
REMARK    5  A    between atoms: C_19  and  C_28
REMARK    6  A    between atoms: N_20  and  C_21
REMARK    7  A    between atoms: C_21  and  C_22
REMARK                            x       y       z     vdW  Elec       q    Type
REMARK                         _______ _______ _______ _____ _____    ______ ____
ROOT
ATOM      1  C   UNL     1       7.573  -6.420   2.065  0.00  0.00    +0.237 C 
ATOM      2  N   UNL     1       7.245  -7.655   1.335  0.00  0.00    -0.237 N 
ATOM      3  N   UNL     1       8.113  -7.711   0.238  0.00  0.00    -0.169 NA
ATOM      4  C   UNL     1       8.914  -6.678   0.214  0.00  0.00    +0.147 C 
ATOM      5  N   UNL     1       8.672  -5.818   1.292  0.00  0.00    -0.283 N 
ATOM      6  H   UNL     1       6.562  -8.303   1.568  0.00  0.00    +0.171 HD
ENDROOT
BRANCH   4   7
ATOM      7  C   UNL     1       9.893  -6.460  -0.767  0.00  0.00    +0.022 C 
ATOM      8  C   UNL     1      10.184  -7.270  -1.865  0.00  0.00    +0.006 A 
ATOM      9  C   UNL     1       9.633  -8.486  -2.324  0.00  0.00    +0.010 A 
ATOM     10  C   UNL     1      10.124  -9.064  -3.451  0.00  0.00    +0.001 A 
ATOM     11  C   UNL     1      11.167  -8.485  -4.175  0.00  0.00    +0.002 A 
ATOM     12  C   UNL     1      11.743  -7.319  -3.792  0.00  0.00    +0.026 A 
ATOM     13  C   UNL     1      11.284  -6.655  -2.625  0.00  0.00    +0.043 A 
ATOM     14  N   UNL     1      11.668  -5.532  -2.052  0.00  0.00    -0.380 N 
ATOM     15  C   UNL     1      10.852  -5.293  -0.858  0.00  0.00    +0.152 C 
ATOM     16  H   UNL     1      12.377  -4.952  -2.373  0.00  0.00    +0.160 HD
ENDBRANCH   4   7
BRANCH   1  17
ATOM     17  S   UNL     1       6.141  -5.307   2.105  0.00  0.00    -0.112 S 
BRANCH  17  18
ATOM     18  C   UNL     1       5.732  -5.057   0.355  0.00  0.00    +0.128 C 
BRANCH  18  22
ATOM     19  N   UNL     1       3.620  -0.649  -0.036  0.00  0.00    -0.294 N 
ATOM     20  C   UNL     1       3.644  -2.033   0.061  0.00  0.00    +0.163 A 
ATOM     21  N   UNL     1       4.689  -2.828   0.158  0.00  0.00    -0.229 NA
ATOM     22  C   UNL     1       4.542  -4.138   0.244  0.00  0.00    +0.060 A 
ATOM     23  C   UNL     1       3.276  -4.619   0.227  0.00  0.00    +0.072 A 
ATOM     24  S   UNL     1       2.345  -3.102   0.090  0.00  0.00    -0.060 S 
ATOM     25  H   UNL     1       4.450  -0.155  -0.128  0.00  0.00    +0.154 HD
BRANCH  19  29
ATOM     26  C   UNL     1      -0.013   1.383   0.065  0.00  0.00    +0.000 A 
ATOM     27  C   UNL     1       0.154   0.232   0.813  0.00  0.00    +0.002 A 
ATOM     28  C   UNL     1       1.358  -0.445   0.781  0.00  0.00    +0.023 A 
ATOM     29  C   UNL     1       2.401   0.032  -0.003  0.00  0.00    +0.033 A 
ATOM     30  C   UNL     1       2.229   1.189  -0.752  0.00  0.00    +0.023 A 
ATOM     31  C   UNL     1       1.023   1.861  -0.716  0.00  0.00    +0.002 A 
ENDBRANCH  19  29
ENDBRANCH  18  22
ENDBRANCH  17  18
ENDBRANCH   1  17
BRANCH   5  32
ATOM     32  C   UNL     1       9.371  -4.567   1.593  0.00  0.00    +0.140 C 
BRANCH  32  33
ATOM     33  C   UNL     1      10.573  -4.859   2.493  0.00  0.00    +0.136 C 
ATOM     34  C   UNL     1      11.308  -3.542   2.852  0.00  0.00    +0.035 C 
ATOM     35  C   UNL     1      11.997  -3.943   4.185  0.00  0.00    +0.031 C 
ATOM     36  C   UNL     1      10.966  -4.908   4.809  0.00  0.00    +0.160 C 
ATOM     37  O   UNL     1      10.136  -5.401   3.749  0.00  0.00    -0.375 OA
ENDBRANCH  32  33
ENDBRANCH   5  32
TORSDOF 7
