REMARK  Name = ZINC11603753
REMARK  9 active torsions:
REMARK  status: ('A' for Active; 'I' for Inactive)
REMARK    1  A    between atoms: C_1  and  N_58
REMARK    2  A    between atoms: C_2  and  N_58
REMARK    3  A    between atoms: C_3  and  C_5
REMARK    4  A    between atoms: C_3  and  C_26
REMARK    5  A    between atoms: C_3  and  N_58
REMARK    6  A    between atoms: C_5  and  N_6
REMARK    7  A    between atoms: C_7  and  C_9
REMARK    8  A    between atoms: C_9  and  C_10
REMARK    9  A    between atoms: C_10  and  C_11
REMARK                            x       y       z     vdW  Elec       q    Type
REMARK                         _______ _______ _______ _____ _____    ______ ____
ROOT
ATOM      1  N   UNL     1      -0.204   0.474  -0.362  0.00  0.00    -0.317 N 
ATOM      2  C   UNL     1      -1.453   0.842  -0.710  0.00  0.00    +0.213 C 
ATOM      3  O   UNL     1      -1.644   1.920  -1.232  0.00  0.00    -0.276 OA
ATOM      4  H   UNL     1      -0.051  -0.388   0.056  0.00  0.00    +0.149 HD
ENDROOT
BRANCH   1   5
ATOM      5  C   UNL     1       0.924   1.373  -0.620  0.00  0.00    +0.093 C 
BRANCH   5   6
ATOM      6  C   UNL     1       2.220   0.718  -0.139  0.00  0.00    -0.021 C 
BRANCH   6   7
ATOM      7  C   UNL     1       3.361   1.690  -0.291  0.00  0.00    -0.057 A 
ATOM      8  C   UNL     1       4.538   1.285  -0.892  0.00  0.00    +0.002 A 
ATOM      9  C   UNL     1       5.584   2.177  -1.037  0.00  0.00    +0.003 A 
ATOM     10  C   UNL     1       5.458   3.472  -0.570  0.00  0.00    +0.038 A 
ATOM     11  C   UNL     1       4.282   3.877   0.037  0.00  0.00    +0.124 A 
ATOM     12  C   UNL     1       3.233   2.984   0.177  0.00  0.00    +0.040 A 
ATOM     13  F   UNL     1       4.158   5.142   0.494  0.00  0.00    -0.205 F 
ENDBRANCH   6   7
BRANCH   6  16
ATOM     14  C   UNL     1       3.234  -0.454   1.721  0.00  0.00    -0.096 C 
ATOM     15  C   UNL     1       1.901   1.527   2.121  0.00  0.00    -0.096 C 
ATOM     16  N   UNL     1       2.059   0.324   1.277  0.00  0.00    +0.382 N 
ATOM     17  H   UNL     1       1.219  -0.259   1.368  0.00  0.00    -0.082 HD
ENDBRANCH   6  16
ENDBRANCH   5   6
ENDBRANCH   1   5
BRANCH   2  18
ATOM     18  C   UNL     1      -2.611  -0.086  -0.451  0.00  0.00    +0.103 C 
BRANCH  18  19
ATOM     19  C   UNL     1      -3.907   0.568  -0.936  0.00  0.00    +0.083 C 
BRANCH  19  20
ATOM     20  C   UNL     1      -5.066  -0.360  -0.677  0.00  0.00    +0.111 A 
ATOM     21  N   UNL     1      -6.319   0.023  -1.033  0.00  0.00    -0.310 N 
ATOM     22  H   UNL     1      -6.451   0.889  -1.449  0.00  0.00    +0.170 HD
ATOM     23  C   UNL     1      -7.382  -0.775  -0.819  0.00  0.00    +0.260 A 
ATOM     24  O   UNL     1      -8.501  -0.416  -1.144  0.00  0.00    -0.267 OA
ATOM     25  C   UNL     1      -7.176  -2.053  -0.203  0.00  0.00    +0.075 A 
ATOM     26  C   UNL     1      -8.170  -3.074   0.123  0.00  0.00    -0.023 A 
ATOM     27  C   UNL     1      -7.718  -4.204   0.707  0.00  0.00    -0.004 A 
ATOM     28  S   UNL     1      -5.966  -3.976   0.853  0.00  0.00    -0.073 S 
ATOM     29  C   UNL     1      -5.847  -2.361   0.128  0.00  0.00    +0.116 A 
ATOM     30  N   UNL     1      -4.846  -1.520  -0.119  0.00  0.00    -0.227 NA
ATOM     31  C   UNL     1      -8.527  -5.390   1.136  0.00  0.00    +0.043 C 
ATOM     32  C   UNL     1     -10.008  -4.985   1.154  0.00  0.00    +0.005 C 
ATOM     33  C   UNL     1     -10.335  -4.261  -0.155  0.00  0.00    +0.005 C 
ATOM     34  C   UNL     1      -9.656  -2.891  -0.174  0.00  0.00    +0.037 C 
ENDBRANCH  19  20
ENDBRANCH  18  19
ENDBRANCH   2  18
TORSDOF 7
