REMARK  Name = ZINC64383491
REMARK  3 active torsions:
REMARK  status: ('A' for Active; 'I' for Inactive)
REMARK    1  A    between atoms: C_7  and  C_13
REMARK    2  A    between atoms: C_13  and  N_14
REMARK    3  A    between atoms: C_15  and  C_17
REMARK                            x       y       z     vdW  Elec       q    Type
REMARK                         _______ _______ _______ _____ _____    ______ ____
ROOT
ATOM      1  C   UNL     1      -0.017   1.383   0.010  0.00  0.00    +0.000 A 
ATOM      2  C   UNL     1       1.167   2.100   0.002  0.00  0.00    +0.001 A 
ATOM      3  C   UNL     1       2.383   1.445  -0.013  0.00  0.00    +0.013 A 
ATOM      4  C   UNL     1       2.409   0.053  -0.021  0.00  0.00    +0.045 A 
ATOM      5  C   UNL     1       1.203  -0.664  -0.013  0.00  0.00    -0.010 A 
ATOM      6  C   UNL     1       0.002  -0.004   0.002  0.00  0.00    +0.006 A 
ATOM      7  C   UNL     1       1.305  -2.171  -0.022  0.00  0.00    +0.144 C 
ATOM      8  N   UNL     1       2.654  -2.755  -0.039  0.00  0.00    -0.305 N 
ATOM      9  N   UNL     1       3.664  -2.052  -0.046  0.00  0.00    -0.105 NA
ATOM     10  C   UNL     1       3.670  -0.711  -0.038  0.00  0.00    +0.283 C 
ATOM     11  O   UNL     1       4.729  -0.116  -0.045  0.00  0.00    -0.267 OA
ATOM     12  H   UNL     1       2.750  -3.720  -0.046  0.00  0.00    +0.181 HD
ENDROOT
BRANCH   7  13
ATOM     13  C   UNL     1       0.556  -2.684  -1.254  0.00  0.00    +0.135 C 
BRANCH  13  14
ATOM     14  N   UNL     1       0.733  -4.134  -1.363  0.00  0.00    -0.309 N 
ATOM     15  C   UNL     1       0.158  -4.809  -2.379  0.00  0.00    +0.245 C 
ATOM     16  O   UNL     1      -0.507  -4.213  -3.204  0.00  0.00    -0.270 OA
ATOM     17  H   UNL     1       1.263  -4.609  -0.705  0.00  0.00    +0.149 HD
BRANCH  15  18
ATOM     18  C   UNL     1       0.337  -6.272  -2.489  0.00  0.00    +0.049 C 
ATOM     19  C   UNL     1      -0.239  -6.948  -3.517  0.00  0.00    -0.003 C 
ATOM     20  C   UNL     1      -0.018  -8.446  -3.574  0.00  0.00    +0.126 C 
ATOM     21  C   UNL     1       0.826  -9.063  -2.479  0.00  0.00    +0.240 C 
ATOM     22  O   UNL     1       1.040 -10.258  -2.468  0.00  0.00    -0.273 OA
ATOM     23  N   UNL     1       1.332  -8.273  -1.525  0.00  0.00    -0.188 NA
ATOM     24  C   UNL     1       1.137  -6.985  -1.496  0.00  0.00    +0.113 C 
ENDBRANCH  15  18
ENDBRANCH  13  14
ENDBRANCH   7  13
TORSDOF 3
