REMARK  Name = ZINC67134756
REMARK  6 active torsions:
REMARK  status: ('A' for Active; 'I' for Inactive)
REMARK    1  A    between atoms: C_1  and  C_2
REMARK    2  A    between atoms: C_2  and  C_3
REMARK    3  A    between atoms: C_4  and  C_15
REMARK    4  A    between atoms: N_7  and  C_8
REMARK    5  A    between atoms: C_20  and  C_23
REMARK    6  A    between atoms: C_23  and  C_24
REMARK                            x       y       z     vdW  Elec       q    Type
REMARK                         _______ _______ _______ _____ _____    ______ ____
ROOT
ATOM      1  C   UNL     1      -1.075  -0.889  -2.833  0.00  0.00    +0.272 C 
ATOM      2  O   UNL     1      -1.959  -0.793  -2.004  0.00  0.00    -0.268 OA
ATOM      3  N   UNL     1      -1.387  -1.015  -4.139  0.00  0.00    -0.259 N 
ATOM      4  C   UNL     1      -2.718  -1.036  -4.536  0.00  0.00    +0.165 A 
ATOM      5  N   UNL     1      -3.206  -1.156  -5.752  0.00  0.00    -0.229 NA
ATOM      6  C   UNL     1      -4.509  -1.157  -5.967  0.00  0.00    +0.059 A 
ATOM      7  C   UNL     1      -5.312  -1.030  -4.883  0.00  0.00    +0.072 A 
ATOM      8  S   UNL     1      -4.097  -0.920  -3.579  0.00  0.00    -0.060 S 
ATOM      9  H   UNL     1      -0.682  -1.091  -4.800  0.00  0.00    +0.157 HD
ENDROOT
BRANCH   1  11
ATOM     10  C   UNL     1       0.785  -0.744  -1.126  0.00  0.00    +0.077 A 
ATOM     11  C   UNL     1       0.337  -0.867  -2.411  0.00  0.00    +0.171 A 
ATOM     12  N   UNL     1       1.402  -0.964  -3.226  0.00  0.00    -0.124 NA
ATOM     13  N   UNL     1       2.484  -0.910  -2.530  0.00  0.00    -0.060 NA
ATOM     14  N   UNL     1       2.135  -0.764  -1.180  0.00  0.00    -0.216 N 
BRANCH  14  15
ATOM     15  C   UNL     1       3.017  -0.662  -0.094  0.00  0.00    +0.069 A 
ATOM     16  C   UNL     1       2.787   0.279   0.902  0.00  0.00    +0.028 A 
ATOM     17  C   UNL     1       3.657   0.378   1.970  0.00  0.00    +0.003 A 
ATOM     18  C   UNL     1       4.756  -0.458   2.049  0.00  0.00    +0.020 A 
ATOM     19  C   UNL     1       4.988  -1.396   1.058  0.00  0.00    +0.043 A 
ATOM     20  C   UNL     1       4.117  -1.504  -0.010  0.00  0.00    +0.047 A 
ATOM     21 CL   UNL     1       6.369  -2.442   1.160  0.00  0.00    -0.083 Cl
ENDBRANCH  14  15
BRANCH  10  23
ATOM     22  C   UNL     1      -0.308  -1.991   0.718  0.00  0.00    +0.010 C 
ATOM     23  C   UNL     1      -0.063  -0.607   0.112  0.00  0.00    +0.054 C 
ENDBRANCH  10  23
ENDBRANCH   1  11
BRANCH   6  24
ATOM     24  C   UNL     1      -5.077  -1.294  -7.356  0.00  0.00    +0.151 C 
BRANCH  24  25
ATOM     25  C   UNL     1      -4.493  -0.227  -8.245  0.00  0.00    +0.216 C 
ATOM     26  O   UNL     1      -3.694   0.567  -7.795  0.00  0.00    -0.276 OA
ATOM     27  N   UNL     1      -4.858  -0.154  -9.540  0.00  0.00    -0.329 N 
ATOM     28  H   UNL     1      -5.497  -0.789  -9.900  0.00  0.00    +0.145 HD
ATOM     29  H   UNL     1      -4.482   0.533 -10.112  0.00  0.00    +0.145 HD
ENDBRANCH  24  25
ENDBRANCH   6  24
TORSDOF 5
