REMARK  Name = ZINC36313701
REMARK  18 active torsions:
REMARK  status: ('A' for Active; 'I' for Inactive)
REMARK    1  A    between atoms: C_1  and  C_2
REMARK    2  A    between atoms: C_2  and  C_3
REMARK    3  A    between atoms: C_3  and  C_4
REMARK    4  A    between atoms: C_4  and  O_5
REMARK    5  A    between atoms: O_5  and  C_6
REMARK    6  A    between atoms: C_6  and  C_7
REMARK    7  A    between atoms: C_7  and  C_9
REMARK    8  A    between atoms: C_7  and  O_40
REMARK    9  A    between atoms: C_9  and  N_10
REMARK   10  A    between atoms: N_10  and  C_11
REMARK   11  A    between atoms: N_10  and  C_33
REMARK   12  A    between atoms: C_11  and  C_12
REMARK   13  A    between atoms: C_13  and  C_31
REMARK   14  A    between atoms: N_15  and  C_25
REMARK   15  A    between atoms: C_16  and  O_17
REMARK   16  A    between atoms: O_17  and  C_18
REMARK   17  A    between atoms: C_31  and  C_32
REMARK   18  A    between atoms: C_33  and  C_34
REMARK                            x       y       z     vdW  Elec       q    Type
REMARK                         _______ _______ _______ _____ _____    ______ ____
ROOT
ATOM      1  C   UNL     1       3.645  -7.719  -6.351  0.00  0.00    +0.021 A 
ATOM      2  C   UNL     1       4.686  -8.627  -6.566  0.00  0.00    +0.068 A 
ATOM      3  N   UNL     1       4.431  -9.297  -7.661  0.00  0.00    -0.168 NA
ATOM      4  N   UNL     1       3.216  -8.840  -8.186  0.00  0.00    -0.200 N 
ATOM      5  C   UNL     1       2.744  -7.870  -7.358  0.00  0.00    +0.225 A 
ENDROOT
BRANCH   4   6
ATOM      6  C   UNL     1       2.594  -9.304  -9.353  0.00  0.00    +0.069 A 
ATOM      7  C   UNL     1       1.222  -9.516  -9.373  0.00  0.00    +0.028 A 
ATOM      8  C   UNL     1       0.611  -9.973 -10.524  0.00  0.00    +0.002 A 
ATOM      9  C   UNL     1       1.365 -10.219 -11.657  0.00  0.00    +0.000 A 
ATOM     10  C   UNL     1       2.732 -10.009 -11.641  0.00  0.00    +0.002 A 
ATOM     11  C   UNL     1       3.347  -9.547 -10.494  0.00  0.00    +0.028 A 
ENDBRANCH   4   6
BRANCH   2  12
ATOM     12  C   UNL     1       5.897  -8.805  -5.687  0.00  0.00    +0.054 C 
ATOM     13  C   UNL     1       5.646  -9.944  -4.697  0.00  0.00    +0.010 C 
ENDBRANCH   2  12
BRANCH   1  14
ATOM     14  C   UNL     1       3.538  -6.750  -5.202  0.00  0.00    -0.036 C 
BRANCH  14  15
ATOM     15  N   UNL     1       4.367  -5.569  -5.478  0.00  0.00    +0.386 N 
ATOM     16  H   UNL     1       5.312  -5.861  -5.679  0.00  0.00    -0.081 HD
BRANCH  15  17
ATOM     17  C   UNL     1       3.821  -4.847  -6.635  0.00  0.00    -0.046 C 
BRANCH  17  18
ATOM     18  C   UNL     1       2.340  -4.547  -6.397  0.00  0.00    +0.102 C 
ATOM     19  C   UNL     1       1.714  -3.953  -7.676  0.00  0.00    +0.032 C 
ATOM     20  C   UNL     1       0.768  -2.862  -7.104  0.00  0.00    +0.030 C 
ATOM     21  C   UNL     1       1.577  -2.388  -5.871  0.00  0.00    +0.160 C 
ATOM     22  O   UNL     1       2.203  -3.575  -5.354  0.00  0.00    -0.378 OA
ENDBRANCH  17  18
ENDBRANCH  15  17
BRANCH  15  23
ATOM     23  C   UNL     1       4.367  -4.685  -4.305  0.00  0.00    -0.044 C 
BRANCH  23  24
ATOM     24  C   UNL     1       5.391  -3.568  -4.508  0.00  0.00    +0.124 C 
BRANCH  24  25
ATOM     25  O   UNL     1       4.943  -2.693  -5.545  0.00  0.00    -0.391 OA
ATOM     26  H   UNL     1       4.149  -2.189  -5.319  0.00  0.00    +0.210 HD
ENDBRANCH  24  25
BRANCH  24  27
ATOM     27  C   UNL     1       5.549  -2.777  -3.207  0.00  0.00    +0.189 C 
BRANCH  27  28
ATOM     28  O   UNL     1       6.588  -1.809  -3.361  0.00  0.00    -0.377 OA
BRANCH  28  29
ATOM     29  C   UNL     1       6.818  -1.013  -2.197  0.00  0.00    +0.160 C 
BRANCH  29  30
ATOM     30  C   UNL     1       7.946  -0.017  -2.474  0.00  0.00    +0.028 C 
BRANCH  30  32
ATOM     31  C   UNL     1       9.319   1.832  -1.506  0.00  0.00    +0.004 C 
ATOM     32  C   UNL     1       8.192   0.836  -1.228  0.00  0.00    -0.001 C 
ENDBRANCH  30  32
ENDBRANCH  29  30
ENDBRANCH  28  29
ENDBRANCH  27  28
ENDBRANCH  24  27
ENDBRANCH  23  24
ENDBRANCH  15  23
ENDBRANCH  14  15
ENDBRANCH   1  14
BRANCH   5  33
ATOM     33  O   UNL     1       1.588  -7.176  -7.511  0.00  0.00    -0.438 OA
BRANCH  33  34
ATOM     34  C   UNL     1       0.480  -7.633  -6.870  0.00  0.00    +0.133 A 
ATOM     35  C   UNL     1       0.568  -8.736  -6.032  0.00  0.00    +0.046 A 
ATOM     36  C   UNL     1      -0.559  -9.200  -5.381  0.00  0.00    +0.006 A 
ATOM     37  C   UNL     1      -1.774  -8.567  -5.563  0.00  0.00    +0.038 A 
ATOM     38  C   UNL     1      -1.866  -7.467  -6.399  0.00  0.00    +0.127 A 
ATOM     39  C   UNL     1      -0.738  -6.995  -7.048  0.00  0.00    +0.084 A 
ATOM     40  F   UNL     1      -3.055  -6.850  -6.576  0.00  0.00    -0.205 F 
ENDBRANCH  33  34
ENDBRANCH   5  33
TORSDOF 16
