REMARK  Name = ZINC00887473
REMARK  12 active torsions:
REMARK  status: ('A' for Active; 'I' for Inactive)
REMARK    1  A    between atoms: C_1  and  O_2
REMARK    2  A    between atoms: O_2  and  C_3
REMARK    3  A    between atoms: C_6  and  O_41
REMARK    4  A    between atoms: C_7  and  C_9
REMARK    5  A    between atoms: C_9  and  C_11
REMARK    6  A    between atoms: C_9  and  N_20
REMARK    7  A    between atoms: N_13  and  C_14
REMARK    8  A    between atoms: N_20  and  C_21
REMARK    9  A    between atoms: C_26  and  C_28
REMARK   10  A    between atoms: C_28  and  N_29
REMARK   11  A    between atoms: C_31  and  C_34
REMARK   12  A    between atoms: O_41  and  C_42
REMARK                            x       y       z     vdW  Elec       q    Type
REMARK                         _______ _______ _______ _____ _____    ______ ____
ROOT
ATOM      1  C   UNL     1       1.406  -4.024   2.067  0.00  0.00    +0.196 C 
ENDROOT
BRANCH   1   6
ATOM      2  C   UNL     1       0.159  -0.628   0.976  0.00  0.00    +0.121 A 
ATOM      3  C   UNL     1       0.878   0.213   1.812  0.00  0.00    +0.049 A 
ATOM      4  C   UNL     1       1.766  -0.317   2.727  0.00  0.00    +0.049 A 
ATOM      5  C   UNL     1       1.938  -1.690   2.811  0.00  0.00    +0.126 A 
ATOM      6  C   UNL     1       1.219  -2.532   1.976  0.00  0.00    +0.027 A 
ATOM      7  C   UNL     1       0.327  -2.002   1.064  0.00  0.00    +0.055 A 
BRANCH   2   9
ATOM      8  C   UNL     1      -0.838   1.317   0.038  0.00  0.00    +0.277 C 
ATOM      9  O   UNL     1      -0.715  -0.107   0.074  0.00  0.00    -0.495 OA
ENDBRANCH   2   9
BRANCH   5  10
ATOM     10  O   UNL     1       2.813  -2.212   3.712  0.00  0.00    -0.495 OA
ATOM     11  C   UNL     1       3.520  -1.287   4.540  0.00  0.00    +0.277 C 
ENDBRANCH   5  10
ENDBRANCH   1   6
BRANCH   1  12
ATOM     12  C   UNL     1       2.677  -4.415   1.358  0.00  0.00    +0.238 C 
ATOM     13  O   UNL     1       2.636  -5.182   0.419  0.00  0.00    -0.273 OA
ATOM     14  N   UNL     1       3.859  -3.913   1.767  0.00  0.00    -0.311 N 
ATOM     15  H   UNL     1       3.892  -3.300   2.518  0.00  0.00    +0.149 HD
BRANCH  14  16
ATOM     16  C   UNL     1       5.095  -4.293   1.077  0.00  0.00    +0.073 C 
ATOM     17  C   UNL     1       5.619  -5.608   1.658  0.00  0.00    +0.022 C 
ATOM     18  C   UNL     1       6.909  -6.005   0.938  0.00  0.00    +0.002 C 
ATOM     19  C   UNL     1       7.958  -4.909   1.130  0.00  0.00    +0.000 C 
ATOM     20  C   UNL     1       7.434  -3.594   0.549  0.00  0.00    +0.002 C 
ATOM     21  C   UNL     1       6.144  -3.197   1.269  0.00  0.00    +0.022 C 
ENDBRANCH  14  16
ENDBRANCH   1  12
BRANCH   1  22
ATOM     22  N   UNL     1       0.268  -4.699   1.438  0.00  0.00    -0.281 N 
ATOM     23  C   UNL     1       0.085  -4.610   0.105  0.00  0.00    +0.240 C 
ATOM     24  O   UNL     1       0.819  -3.912  -0.562  0.00  0.00    -0.273 OA
BRANCH  22  25
ATOM     25  C   UNL     1      -0.671  -5.469   2.256  0.00  0.00    +0.077 C 
ATOM     26  C   UNL     1       0.094  -6.508   3.102  0.00  0.00    +0.022 C 
ATOM     27  C   UNL     1       0.295  -5.811   4.470  0.00  0.00    +0.002 C 
ATOM     28  C   UNL     1      -1.038  -5.046   4.662  0.00  0.00    +0.002 C 
ATOM     29  C   UNL     1      -1.391  -4.540   3.249  0.00  0.00    +0.022 C 
ENDBRANCH  22  25
BRANCH  23  30
ATOM     30  C   UNL     1      -1.030  -5.378  -0.555  0.00  0.00    +0.264 C 
BRANCH  30  31
ATOM     31  N   UNL     1      -0.947  -5.210  -2.008  0.00  0.00    -0.154 N 
ATOM     32  N   UNL     1      -1.519  -4.275  -2.684  0.00  0.00    -0.130 NA
ATOM     33  C   UNL     1      -1.214  -4.451  -3.954  0.00  0.00    +0.205 A 
ATOM     34  N   UNL     1      -0.430  -5.537  -4.014  0.00  0.00    -0.108 NA
ATOM     35  N   UNL     1      -0.284  -5.970  -2.808  0.00  0.00    -0.045 NA
BRANCH  33  36
ATOM     36  C   UNL     1      -1.654  -3.611  -5.096  0.00  0.00    +0.023 A 
ATOM     37  C   UNL     1      -2.470  -2.503  -4.876  0.00  0.00    +0.013 A 
ATOM     38  C   UNL     1      -2.876  -1.725  -5.941  0.00  0.00    +0.021 A 
ATOM     39  C   UNL     1      -2.474  -2.043  -7.227  0.00  0.00    +0.041 A 
ATOM     40  C   UNL     1      -1.664  -3.143  -7.451  0.00  0.00    +0.021 A 
ATOM     41  C   UNL     1      -1.248  -3.924  -6.392  0.00  0.00    +0.013 A 
ATOM     42 CL   UNL     1      -2.989  -1.061  -8.562  0.00  0.00    -0.084 Cl
ENDBRANCH  33  36
ENDBRANCH  30  31
ENDBRANCH  23  30
ENDBRANCH   1  22
TORSDOF 10
