REMARK  Name = ZINC09603024
REMARK  8 active torsions:
REMARK  status: ('A' for Active; 'I' for Inactive)
REMARK    1  A    between atoms: C_1  and  C_2
REMARK    2  A    between atoms: C_5  and  N_9
REMARK    3  A    between atoms: C_10  and  C_12
REMARK    4  A    between atoms: N_22  and  C_35
REMARK    5  A    between atoms: C_23  and  C_25
REMARK    6  A    between atoms: C_35  and  C_36
REMARK    7  A    between atoms: C_36  and  O_37
REMARK    8  A    between atoms: O_37  and  C_38
REMARK                            x       y       z     vdW  Elec       q    Type
REMARK                         _______ _______ _______ _____ _____    ______ ____
ROOT
ATOM      1  C   UNL     1      -0.399  -6.322  -1.128  0.00  0.00    +0.131 C 
ATOM      2  C   UNL     1      -1.736  -6.696  -0.547  0.00  0.00    -0.021 A 
ATOM      3  C   UNL     1      -1.867  -6.971   0.797  0.00  0.00    +0.005 A 
ATOM      4  C   UNL     1      -3.106  -7.300   1.319  0.00  0.00    +0.000 A 
ATOM      5  C   UNL     1      -4.219  -7.355   0.498  0.00  0.00    +0.001 A 
ATOM      6  C   UNL     1      -4.100  -7.088  -0.851  0.00  0.00    +0.013 A 
ATOM      7  C   UNL     1      -2.853  -6.763  -1.381  0.00  0.00    +0.041 A 
ATOM      8  C   UNL     1      -2.686  -6.507  -2.827  0.00  0.00    +0.247 C 
ATOM      9  O   UNL     1      -3.658  -6.330  -3.536  0.00  0.00    -0.270 OA
ATOM     10  N   UNL     1      -1.446  -6.471  -3.352  0.00  0.00    -0.287 N 
ATOM     11  C   UNL     1      -0.283  -6.849  -2.557  0.00  0.00    +0.125 C 
ENDROOT
BRANCH  11  12
ATOM     12  C   UNL     1      -0.173  -8.351  -2.522  0.00  0.00    -0.001 A 
ATOM     13  C   UNL     1      -1.162  -9.230  -2.753  0.00  0.00    +0.089 A 
ATOM     14  N   UNL     1      -0.688 -10.508  -2.633  0.00  0.00    -0.360 N 
ATOM     15  H   UNL     1      -1.217 -11.312  -2.755  0.00  0.00    +0.165 HD
ATOM     16  C   UNL     1       0.651 -10.482  -2.314  0.00  0.00    +0.047 A 
ATOM     17  C   UNL     1       1.034  -9.130  -2.237  0.00  0.00    +0.005 A 
ATOM     18  C   UNL     1       2.354  -8.796  -1.931  0.00  0.00    +0.010 A 
ATOM     19  C   UNL     1       3.271  -9.786  -1.712  0.00  0.00    +0.001 A 
ATOM     20  C   UNL     1       2.900 -11.121  -1.791  0.00  0.00    +0.002 A 
ATOM     21  C   UNL     1       1.599 -11.473  -2.082  0.00  0.00    +0.026 A 
ENDBRANCH  11  12
BRANCH   1  23
ATOM     22  N   UNL     1      -0.100  -4.152   0.022  0.00  0.00    -0.284 N 
ATOM     23  C   UNL     1      -0.260  -4.821  -1.137  0.00  0.00    +0.227 C 
ATOM     24  O   UNL     1      -0.293  -4.215  -2.187  0.00  0.00    -0.275 OA
ATOM     25  H   UNL     1      -0.037  -4.640   0.858  0.00  0.00    +0.155 HD
BRANCH  22  30
ATOM     26  C   UNL     1       0.204   1.514   0.009  0.00  0.00    +0.044 C 
ATOM     27  C   UNL     1       0.123   0.009   0.013  0.00  0.00    -0.049 A 
ATOM     28  C   UNL     1       0.511  -0.706  -1.106  0.00  0.00    +0.005 A 
ATOM     29  C   UNL     1       0.438  -2.085  -1.106  0.00  0.00    +0.025 A 
ATOM     30  C   UNL     1      -0.025  -2.755   0.019  0.00  0.00    +0.052 A 
ATOM     31  C   UNL     1      -0.413  -2.034   1.142  0.00  0.00    +0.062 A 
ATOM     32  C   UNL     1      -0.333  -0.654   1.137  0.00  0.00    +0.025 A 
ATOM     33 CL   UNL     1      -0.992  -2.866   2.551  0.00  0.00    -0.082 Cl
ENDBRANCH  22  30
ENDBRANCH   1  23
BRANCH  10  34
ATOM     34  C   UNL     1      -1.263  -6.048  -4.742  0.00  0.00    +0.137 C 
BRANCH  34  35
ATOM     35  C   UNL     1      -1.243  -7.277  -5.652  0.00  0.00    +0.178 C 
BRANCH  35  36
ATOM     36  O   UNL     1      -2.526  -7.905  -5.633  0.00  0.00    -0.381 OA
ATOM     37  C   UNL     1      -2.588  -9.124  -6.378  0.00  0.00    +0.194 C 
ENDBRANCH  35  36
ENDBRANCH  34  35
ENDBRANCH  10  34
TORSDOF 6
