REMARK  Name = ZINC39636135
REMARK  6 active torsions:
REMARK  status: ('A' for Active; 'I' for Inactive)
REMARK    1  A    between atoms: C_1  and  C_2
REMARK    2  A    between atoms: C_3  and  C_13
REMARK    3  A    between atoms: C_4  and  C_7
REMARK    4  A    between atoms: C_17  and  C_26
REMARK    5  A    between atoms: N_28  and  C_29
REMARK    6  A    between atoms: C_35  and  C_37
REMARK                            x       y       z     vdW  Elec       q    Type
REMARK                         _______ _______ _______ _____ _____    ______ ____
ROOT
ATOM      1  C   UNL     1      -2.615  -0.340   0.188  0.00  0.00    +0.252 C 
ATOM      2  O   UNL     1      -3.339  -0.245  -0.784  0.00  0.00    -0.270 OA
ATOM      3  N   UNL     1      -3.095  -0.062   1.416  0.00  0.00    -0.296 N 
ATOM      4  C   UNL     1      -2.350  -0.026   2.696  0.00  0.00    +0.121 C 
ATOM      5  C   UNL     1      -2.941   1.182   3.458  0.00  0.00    +0.100 C 
ATOM      6  C   UNL     1      -4.345   1.374   2.861  0.00  0.00    -0.004 C 
ATOM      7  C   UNL     1      -4.488   0.282   1.790  0.00  0.00    +0.115 C 
ATOM      8  C   UNL     1      -4.462   2.752   2.218  0.00  0.00    -0.010 C 
ATOM      9  C   UNL     1      -5.884   2.942   1.682  0.00  0.00    -0.082 C 
ATOM     10  N   UNL     1      -6.846   2.809   2.784  0.00  0.00    +0.379 N 
ATOM     11  C   UNL     1      -6.791   1.450   3.335  0.00  0.00    -0.082 C 
ATOM     12  C   UNL     1      -5.408   1.198   3.941  0.00  0.00    -0.010 C 
ATOM     13  H   UNL     1      -6.619   3.474   3.508  0.00  0.00    -0.086 HD
ATOM     14  H   UNL     1      -7.776   2.994   2.440  0.00  0.00    -0.086 HD
ENDROOT
BRANCH   1  17
ATOM     15  C   UNL     1      -0.210   1.539  -0.486  0.00  0.00    +0.090 C 
ATOM     16  C   UNL     1      -0.152   0.049  -0.271  0.00  0.00    +0.147 A 
ATOM     17  C   UNL     1      -1.212  -0.758   0.023  0.00  0.00    +0.106 A 
ATOM     18  C   UNL     1      -0.684  -2.125   0.144  0.00  0.00    +0.126 A 
ATOM     19  N   UNL     1       0.604  -2.056  -0.076  0.00  0.00    -0.077 NA
ATOM     20  O   UNL     1       0.945  -0.710  -0.340  0.00  0.00    -0.359 OA
BRANCH  18  21
ATOM     21  C   UNL     1      -1.463  -3.348   0.455  0.00  0.00    +0.004 A 
ATOM     22  C   UNL     1      -2.550  -3.283   1.325  0.00  0.00    +0.010 A 
ATOM     23  C   UNL     1      -3.271  -4.425   1.610  0.00  0.00    +0.001 A 
ATOM     24  C   UNL     1      -2.917  -5.632   1.035  0.00  0.00    +0.000 A 
ATOM     25  C   UNL     1      -1.839  -5.702   0.172  0.00  0.00    +0.001 A 
ATOM     26  C   UNL     1      -1.114  -4.566  -0.126  0.00  0.00    +0.010 A 
ENDBRANCH  18  21
ENDBRANCH   1  17
BRANCH   5  27
ATOM     27  C   UNL     1      -2.098   2.410   3.228  0.00  0.00    +0.218 C 
ATOM     28  O   UNL     1      -1.441   2.513   2.214  0.00  0.00    -0.275 OA
ATOM     29  N   UNL     1      -2.075   3.393   4.150  0.00  0.00    -0.312 N 
ATOM     30  H   UNL     1      -2.541   3.279   4.992  0.00  0.00    +0.149 HD
BRANCH  29  31
ATOM     31  C   UNL     1      -1.344   4.634   3.879  0.00  0.00    +0.076 C 
ATOM     32  C   UNL     1       0.138   4.433   4.200  0.00  0.00    +0.022 C 
ATOM     33  C   UNL     1       0.295   4.061   5.675  0.00  0.00    +0.002 C 
ATOM     34  C   UNL     1      -0.268   5.185   6.547  0.00  0.00    +0.000 C 
ATOM     35  C   UNL     1      -1.751   5.386   6.226  0.00  0.00    +0.005 C 
ATOM     36  C   UNL     1      -1.907   5.758   4.751  0.00  0.00    +0.006 C 
ATOM     37  C   UNL     1      -3.390   5.958   4.430  0.00  0.00    +0.009 C 
ENDBRANCH  29  31
ENDBRANCH   5  27
TORSDOF 4
