REMARK  Name = ZINC00417997
REMARK  5 active torsions:
REMARK  status: ('A' for Active; 'I' for Inactive)
REMARK    1  A    between atoms: C_1  and  C_2
REMARK    2  A    between atoms: C_9  and  C_11
REMARK    3  A    between atoms: C_11  and  S_12
REMARK    4  A    between atoms: S_12  and  C_13
REMARK    5  A    between atoms: C_17  and  N_19
REMARK                            x       y       z     vdW  Elec       q    Type
REMARK                         _______ _______ _______ _____ _____    ______ ____
ROOT
ATOM      1  C   UNL     1      -2.831   1.165   8.388  0.00  0.00    +0.192 A 
ATOM      2  N   UNL     1      -2.863   2.482   8.254  0.00  0.00    -0.207 NA
ATOM      3  C   UNL     1      -3.388   3.251   9.206  0.00  0.00    +0.122 A 
ATOM      4  C   UNL     1      -3.896   2.654  10.356  0.00  0.00    +0.086 A 
ATOM      5  C   UNL     1      -3.840   1.267  10.463  0.00  0.00    +0.122 A 
ATOM      6  N   UNL     1      -3.305   0.562   9.468  0.00  0.00    -0.207 NA
ATOM      7  N   UNL     1      -3.423   4.629   9.056  0.00  0.00    -0.343 N 
ATOM      8  H   UNL     1      -3.804   5.183   9.755  0.00  0.00    +0.144 HD
ATOM      9  H   UNL     1      -3.067   5.038   8.252  0.00  0.00    +0.144 HD
ENDROOT
BRANCH   5  10
ATOM     10  N   UNL     1      -4.334   0.629  11.589  0.00  0.00    -0.343 N 
ATOM     11  H   UNL     1      -4.292  -0.337  11.657  0.00  0.00    +0.144 HD
ATOM     12  H   UNL     1      -4.722   1.150  12.310  0.00  0.00    +0.144 HD
ENDBRANCH   5  10
BRANCH   1  13
ATOM     13  S   UNL     1      -2.133   0.188   7.098  0.00  0.00    -0.077 S 
BRANCH  13  14
ATOM     14  C   UNL     1      -1.672   1.493   5.931  0.00  0.00    +0.173 C 
BRANCH  14  22
ATOM     15  C   UNL     1      -0.013   1.086   0.008  0.00  0.00    +0.009 C 
ATOM     16  C   UNL     1      -0.729   1.579   1.267  0.00  0.00    +0.003 C 
ATOM     17  C   UNL     1      -0.746   3.110   1.278  0.00  0.00    +0.006 C 
ATOM     18  C   UNL     1      -1.491   3.604   2.520  0.00  0.00    +0.019 C 
ATOM     19  C   UNL     1      -0.759   3.120   3.776  0.00  0.00    +0.108 C 
ATOM     20  N   UNL     1      -0.610   1.660   3.703  0.00  0.00    -0.301 N 
ATOM     21  C   UNL     1       0.012   1.072   2.508  0.00  0.00    +0.111 C 
ATOM     22  C   UNL     1      -1.036   0.875   4.712  0.00  0.00    +0.226 C 
ATOM     23  O   UNL     1      -0.907  -0.329   4.640  0.00  0.00    -0.275 OA
ENDBRANCH  14  22
ENDBRANCH  13  14
ENDBRANCH   1  13
TORSDOF 4
