REMARK  Name = ZINC35485471
REMARK  6 active torsions:
REMARK  status: ('A' for Active; 'I' for Inactive)
REMARK    1  A    between atoms: C_1  and  C_2
REMARK    2  A    between atoms: C_2  and  N_3
REMARK    3  A    between atoms: N_3  and  C_4
REMARK    4  A    between atoms: C_5  and  S_16
REMARK    5  A    between atoms: C_7  and  C_9
REMARK    6  A    between atoms: S_16  and  C_19
REMARK                            x       y       z     vdW  Elec       q    Type
REMARK                         _______ _______ _______ _____ _____    ______ ____
ROOT
ATOM      1  C   UNL     1      -1.608  -1.882   0.007  0.00  0.00    +0.233 A 
ATOM      2  C   UNL     1      -2.819  -2.490   0.010  0.00  0.00    +0.243 A 
ATOM      3  N   UNL     1      -2.610  -3.816   0.003  0.00  0.00    -0.188 NA
ATOM      4  C   UNL     1      -1.317  -4.039  -0.004  0.00  0.00    +0.231 A 
ATOM      5  O   UNL     1      -0.675  -2.855  -0.007  0.00  0.00    -0.420 OA
ENDROOT
BRANCH   4   6
ATOM      6  C   UNL     1      -0.673  -5.368  -0.013  0.00  0.00    +0.037 A 
ATOM      7  C   UNL     1      -1.455  -6.525  -0.020  0.00  0.00    +0.014 A 
ATOM      8  C   UNL     1      -0.847  -7.763  -0.028  0.00  0.00    +0.021 A 
ATOM      9  C   UNL     1       0.534  -7.860  -0.029  0.00  0.00    +0.041 A 
ATOM     10  C   UNL     1       1.314  -6.716  -0.022  0.00  0.00    +0.021 A 
ATOM     11  C   UNL     1       0.719  -5.472  -0.020  0.00  0.00    +0.014 A 
ATOM     12 CL   UNL     1       1.291  -9.423  -0.039  0.00  0.00    -0.084 Cl
ENDBRANCH   4   6
BRANCH   2  13
ATOM     13  S   UNL     1      -4.386  -1.686   0.021  0.00  0.00    +0.047 S 
ATOM     14  O   UNL     1      -5.314  -2.610   0.572  0.00  0.00    -0.163 OA
ATOM     15  O   UNL     1      -4.176  -0.395   0.577  0.00  0.00    -0.163 OA
BRANCH  13  16
ATOM     16  C   UNL     1      -4.857  -1.440  -1.659  0.00  0.00    +0.095 A 
ATOM     17  C   UNL     1      -4.490  -0.281  -2.317  0.00  0.00    +0.028 A 
ATOM     18  C   UNL     1      -4.859  -0.088  -3.635  0.00  0.00    +0.017 A 
ATOM     19  C   UNL     1      -5.596  -1.055  -4.295  0.00  0.00    +0.018 A 
ATOM     20  C   UNL     1      -5.963  -2.215  -3.636  0.00  0.00    +0.017 A 
ATOM     21  C   UNL     1      -5.589  -2.409  -2.320  0.00  0.00    +0.028 A 
ATOM     22 BR   UNL     1      -6.102  -0.791  -6.098  0.00  0.00    -0.050 Br
ENDBRANCH  13  16
ENDBRANCH   2  13
BRANCH   1  23
ATOM     23  N   UNL     1      -1.372  -0.511   0.012  0.00  0.00    -0.313 N 
ATOM     24  H   UNL     1      -2.118   0.109   0.023  0.00  0.00    +0.149 HD
BRANCH  23  26
ATOM     25  C   UNL     1      -0.019   1.526   0.010  0.00  0.00    +0.024 C 
ATOM     26  C   UNL     1       0.002  -0.004   0.002  0.00  0.00    +0.101 C 
ENDBRANCH  23  26
ENDBRANCH   1  23
TORSDOF 5
