REMARK  Name = ZINC06193236
REMARK  17 active torsions:
REMARK  status: ('A' for Active; 'I' for Inactive)
REMARK    1  A    between atoms: C_1  and  C_2
REMARK    2  A    between atoms: C_2  and  N_67
REMARK    3  A    between atoms: C_3  and  C_4
REMARK    4  A    between atoms: C_3  and  N_67
REMARK    5  A    between atoms: C_5  and  C_6
REMARK    6  A    between atoms: C_5  and  N_67
REMARK    7  A    between atoms: C_6  and  C_7
REMARK    8  A    between atoms: C_7  and  N_8
REMARK    9  A    between atoms: N_8  and  C_9
REMARK   10  A    between atoms: C_9  and  N_11
REMARK   11  A    between atoms: N_11  and  C_12
REMARK   12  A    between atoms: N_11  and  C_18
REMARK   13  A    between atoms: C_12  and  C_13
REMARK   14  A    between atoms: C_18  and  C_19
REMARK   15  A    between atoms: C_23  and  O_31
REMARK   16  A    between atoms: O_31  and  C_32
REMARK   17  A    between atoms: C_32  and  C_33
REMARK                            x       y       z     vdW  Elec       q    Type
REMARK                         _______ _______ _______ _____ _____    ______ ____
ROOT
ATOM      1  N   UNL     1      -0.589   1.254  -1.306  0.00  0.00    -0.301 N 
ENDROOT
BRANCH   1   2
ATOM      2  C   UNL     1      -0.159   2.472  -1.690  0.00  0.00    +0.134 C 
ATOM      3  S   UNL     1      -1.105   3.417  -2.760  0.00  0.00    -0.019 S 
BRANCH   2   4
ATOM      4  N   UNL     1       1.017   2.947  -1.233  0.00  0.00    -0.326 N 
ATOM      5  H   UNL     1       1.553   2.412  -0.627  0.00  0.00    +0.148 HD
BRANCH   4   6
ATOM      6  C   UNL     1       1.485   4.270  -1.651  0.00  0.00    +0.101 C 
BRANCH   6   7
ATOM      7  C   UNL     1       2.835   4.565  -0.994  0.00  0.00    +0.000 C 
BRANCH   7   8
ATOM      8  C   UNL     1       3.324   5.947  -1.430  0.00  0.00    -0.077 C 
BRANCH   8   9
ATOM      9  N   UNL     1       4.671   6.173  -0.866  0.00  0.00    +0.379 N 
ATOM     10  H   UNL     1       4.688   5.833   0.103  0.00  0.00    -0.082 HD
BRANCH   9  12
ATOM     11  C   UNL     1       7.022   5.500  -0.922  0.00  0.00    -0.017 C 
ATOM     12  C   UNL     1       5.679   5.433  -1.653  0.00  0.00    -0.082 C 
ENDBRANCH   9  12
BRANCH   9  13
ATOM     13  C   UNL     1       4.986   7.618  -0.872  0.00  0.00    -0.082 C 
ATOM     14  C   UNL     1       4.245   8.286   0.288  0.00  0.00    -0.017 C 
ENDBRANCH   9  13
ENDBRANCH   8   9
ENDBRANCH   7   8
ENDBRANCH   6   7
ENDBRANCH   4   6
ENDBRANCH   2   4
ENDBRANCH   1   2
BRANCH   1  15
ATOM     15  C   UNL     1       0.180   0.480  -0.329  0.00  0.00    +0.181 C 
BRANCH  15  16
ATOM     16  C   UNL     1      -0.202   0.907   1.064  0.00  0.00    +0.122 A 
ATOM     17  C   UNL     1      -1.122   0.311   1.845  0.00  0.00    +0.046 A 
ATOM     18  C   UNL     1      -1.159   1.034   3.059  0.00  0.00    +0.041 A 
ATOM     19  C   UNL     1      -0.259   2.028   2.948  0.00  0.00    +0.195 A 
ATOM     20  O   UNL     1       0.321   1.942   1.740  0.00  0.00    -0.466 OA
ENDBRANCH  15  16
ENDBRANCH   1  15
BRANCH   1  21
ATOM     21  C   UNL     1      -1.827   0.705  -1.865  0.00  0.00    +0.147 C 
BRANCH  21  22
ATOM     22  C   UNL     1      -1.498  -0.193  -3.029  0.00  0.00    +0.035 A 
ATOM     23  C   UNL     1      -1.381  -1.531  -2.838  0.00  0.00    +0.020 A 
ATOM     24  C   UNL     1      -1.064  -2.377  -3.990  0.00  0.00    +0.002 A 
ATOM     25  C   UNL     1      -0.936  -3.763  -3.854  0.00  0.00    +0.055 A 
ATOM     26  C   UNL     1      -0.632  -4.531  -4.960  0.00  0.00    +0.121 A 
ATOM     27  C   UNL     1      -0.453  -3.931  -6.205  0.00  0.00    +0.047 A 
ATOM     28  C   UNL     1      -0.576  -2.568  -6.351  0.00  0.00    +0.030 A 
ATOM     29  C   UNL     1      -0.883  -1.775  -5.250  0.00  0.00    +0.049 A 
ATOM     30  N   UNL     1      -1.011  -0.407  -5.376  0.00  0.00    -0.322 N 
ATOM     31  H   UNL     1      -0.882   0.019  -6.271  0.00  0.00    +0.169 HD
ATOM     32  C   UNL     1      -1.306   0.361  -4.312  0.00  0.00    +0.254 A 
ATOM     33  O   UNL     1      -1.412   1.566  -4.461  0.00  0.00    -0.268 OA
BRANCH  26  34
ATOM     34  O   UNL     1      -0.505  -5.879  -4.834  0.00  0.00    -0.492 OA
BRANCH  34  35
ATOM     35  C   UNL     1      -0.190  -6.614  -6.018  0.00  0.00    +0.225 C 
ATOM     36  C   UNL     1      -0.089  -8.103  -5.681  0.00  0.00    +0.048 C 
ENDBRANCH  34  35
ENDBRANCH  26  34
ENDBRANCH  21  22
ENDBRANCH   1  21
TORSDOF 14
