REMARK  Name = ZINC39966134
REMARK  11 active torsions:
REMARK  status: ('A' for Active; 'I' for Inactive)
REMARK    1  A    between atoms: C_1  and  C_2
REMARK    2  A    between atoms: C_2  and  C_3
REMARK    3  A    between atoms: C_3  and  N_4
REMARK    4  A    between atoms: C_5  and  C_7
REMARK    5  A    between atoms: C_10  and  N_13
REMARK    6  A    between atoms: C_14  and  C_16
REMARK    7  A    between atoms: C_16  and  S_17
REMARK    8  A    between atoms: S_17  and  C_18
REMARK    9  A    between atoms: C_21  and  C_30
REMARK   10  A    between atoms: N_22  and  C_23
REMARK   11  A    between atoms: C_23  and  C_24
REMARK                            x       y       z     vdW  Elec       q    Type
REMARK                         _______ _______ _______ _____ _____    ______ ____
ROOT
ATOM      1  C   UNL     1       2.321 -13.188  -4.745  0.00  0.00    +0.192 A 
ATOM      2  N   UNL     1       1.789 -14.162  -4.041  0.00  0.00    -0.122 NA
ATOM      3  N   UNL     1       1.968 -15.286  -4.638  0.00  0.00    -0.128 NA
ATOM      4  C   UNL     1       2.625 -15.099  -5.759  0.00  0.00    +0.165 A 
ATOM      5  N   UNL     1       2.866 -13.749  -5.865  0.00  0.00    -0.300 N 
ENDROOT
BRANCH   4   6
ATOM      6  C   UNL     1       3.024 -16.142  -6.727  0.00  0.00    +0.023 A 
ATOM      7  C   UNL     1       4.003 -15.870  -7.684  0.00  0.00    +0.015 A 
ATOM      8  C   UNL     1       4.375 -16.844  -8.587  0.00  0.00    +0.050 A 
ATOM      9  C   UNL     1       3.779 -18.096  -8.547  0.00  0.00    +0.166 A 
ATOM     10  C   UNL     1       2.801 -18.375  -7.593  0.00  0.00    +0.167 A 
ATOM     11  C   UNL     1       2.428 -17.403  -6.683  0.00  0.00    +0.061 A 
ATOM     12  O   UNL     1       2.379 -19.662  -7.764  0.00  0.00    -0.453 OA
ATOM     13  C   UNL     1       2.811 -20.035  -9.086  0.00  0.00    +0.466 C 
ATOM     14  O   UNL     1       3.969 -19.210  -9.314  0.00  0.00    -0.453 OA
ENDBRANCH   4   6
BRANCH   1  15
ATOM     15  S   UNL     1       2.323 -11.476  -4.326  0.00  0.00    -0.077 S 
BRANCH  15  16
ATOM     16  C   UNL     1       1.450 -11.412  -2.737  0.00  0.00    +0.173 C 
BRANCH  16  18
ATOM     17  N   UNL     1       0.772  -9.693  -1.093  0.00  0.00    -0.285 N 
ATOM     18  C   UNL     1       1.381  -9.985  -2.260  0.00  0.00    +0.227 C 
ATOM     19  O   UNL     1       1.872  -9.098  -2.925  0.00  0.00    -0.275 OA
ATOM     20  H   UNL     1       0.445 -10.408  -0.524  0.00  0.00    +0.155 HD
BRANCH  17  24
ATOM     21  C   UNL     1       0.295  -5.723   0.074  0.00  0.00    +0.037 A 
ATOM     22  C   UNL     1       0.373  -6.050  -1.283  0.00  0.00    +0.015 A 
ATOM     23  C   UNL     1       0.531  -7.363  -1.665  0.00  0.00    +0.024 A 
ATOM     24  C   UNL     1       0.613  -8.364  -0.702  0.00  0.00    +0.033 A 
ATOM     25  C   UNL     1       0.535  -8.042   0.649  0.00  0.00    +0.024 A 
ATOM     26  C   UNL     1       0.383  -6.731   1.038  0.00  0.00    +0.015 A 
BRANCH  21  28
ATOM     27  N   UNL     1       0.041  -3.346  -0.445  0.00  0.00    -0.311 N 
ATOM     28  C   UNL     1       0.126  -4.316   0.487  0.00  0.00    +0.244 C 
ATOM     29  O   UNL     1       0.063  -4.033   1.667  0.00  0.00    -0.270 OA
ATOM     30  H   UNL     1       0.091  -3.572  -1.387  0.00  0.00    +0.149 HD
BRANCH  27  31
ATOM     31  C   UNL     1      -0.127  -1.950  -0.035  0.00  0.00    +0.104 C 
BRANCH  31  33
ATOM     32  C   UNL     1      -0.370   0.400  -0.848  0.00  0.00    +0.005 C 
ATOM     33  C   UNL     1      -0.195  -1.058  -1.276  0.00  0.00    +0.015 C 
ENDBRANCH  31  33
ENDBRANCH  27  31
ENDBRANCH  21  28
ENDBRANCH  17  24
ENDBRANCH  16  18
ENDBRANCH  15  16
ENDBRANCH   1  15
BRANCH   5  34
ATOM     34  C   UNL     1       3.564 -13.057  -6.952  0.00  0.00    +0.157 C 
BRANCH  34  35
ATOM     35  C   UNL     1       5.026 -12.836  -6.559  0.00  0.00    +0.138 C 
ATOM     36  C   UNL     1       5.771 -12.110  -7.700  0.00  0.00    +0.035 C 
ATOM     37  C   UNL     1       7.153 -12.819  -7.695  0.00  0.00    +0.031 C 
ATOM     38  C   UNL     1       6.742 -14.260  -7.300  0.00  0.00    +0.160 C 
ATOM     39  O   UNL     1       5.670 -14.100  -6.354  0.00  0.00    -0.375 OA
ENDBRANCH  34  35
ENDBRANCH   5  34
TORSDOF 10
