REMARK  Name = ZINC60042706
REMARK  7 active torsions:
REMARK  status: ('A' for Active; 'I' for Inactive)
REMARK    1  A    between atoms: C_1  and  O_2
REMARK    2  A    between atoms: O_2  and  C_3
REMARK    3  A    between atoms: N_15  and  C_19
REMARK    4  A    between atoms: C_19  and  C_20
REMARK    5  A    between atoms: C_20  and  C_22
REMARK    6  A    between atoms: C_20  and  O_33
REMARK    7  A    between atoms: C_22  and  N_23
REMARK                            x       y       z     vdW  Elec       q    Type
REMARK                         _______ _______ _______ _____ _____    ______ ____
ROOT
ATOM      1  C   UNL     1       1.617  -0.546   0.728  0.00  0.00    +0.120 A 
ATOM      2  C   UNL     1       2.068   0.202   1.806  0.00  0.00    +0.046 A 
ATOM      3  C   UNL     1       2.588  -0.437   2.912  0.00  0.00    +0.010 A 
ATOM      4  C   UNL     1       2.664  -1.823   2.958  0.00  0.00    -0.012 A 
ATOM      5  C   UNL     1       2.211  -2.568   1.891  0.00  0.00    -0.038 A 
ATOM      6  C   UNL     1       1.685  -1.928   0.777  0.00  0.00    +0.049 A 
ATOM      7  C   UNL     1       2.249  -4.074   1.883  0.00  0.00    +0.036 C 
ATOM      8  C   UNL     1       3.228  -4.595   2.933  0.00  0.00    +0.008 C 
ATOM      9  C   UNL     1       2.896  -3.936   4.277  0.00  0.00    +0.040 C 
ATOM     10  C   UNL     1       3.250  -2.457   4.189  0.00  0.00    +0.138 C 
ATOM     11  C   UNL     1       2.775  -1.729   5.427  0.00  0.00    +0.251 C 
ATOM     12  O   UNL     1       1.633  -1.613   5.817  0.00  0.00    -0.272 OA
ATOM     13  N   UNL     1       3.889  -1.236   6.005  0.00  0.00    -0.222 N 
ATOM     14  C   UNL     1       4.988  -1.550   5.308  0.00  0.00    +0.310 C 
ATOM     15  O   UNL     1       6.111  -1.218   5.630  0.00  0.00    -0.252 OA
ATOM     16  N   UNL     1       4.708  -2.276   4.209  0.00  0.00    -0.281 N 
ATOM     17  H   UNL     1       5.344  -2.614   3.559  0.00  0.00    +0.152 HD
ENDROOT
BRANCH   1  19
ATOM     18  C   UNL     1       1.066   1.502  -0.345  0.00  0.00    +0.277 C 
ATOM     19  O   UNL     1       1.105   0.074  -0.367  0.00  0.00    -0.495 OA
ENDBRANCH   1  19
BRANCH  13  20
ATOM     20  C   UNL     1       3.897  -0.453   7.244  0.00  0.00    +0.147 C 
BRANCH  20  21
ATOM     21  C   UNL     1       4.038  -1.395   8.441  0.00  0.00    +0.116 C 
BRANCH  21  22
ATOM     22  O   UNL     1       5.313  -2.038   8.394  0.00  0.00    -0.392 OA
ATOM     23  H   UNL     1       6.062  -1.428   8.420  0.00  0.00    +0.210 HD
ENDBRANCH  21  22
BRANCH  21  24
ATOM     24  C   UNL     1       3.920  -0.591   9.738  0.00  0.00    -0.045 C 
BRANCH  24  25
ATOM     25  N   UNL     1       4.053  -1.495  10.888  0.00  0.00    +0.384 N 
ATOM     26  C   UNL     1       2.900  -2.408  10.932  0.00  0.00    -0.074 C 
ATOM     27  C   UNL     1       3.201  -3.526  11.932  0.00  0.00    +0.017 C 
ATOM     28  C   UNL     1       3.654  -2.930  13.241  0.00  0.00    -0.048 A 
ATOM     29  C   UNL     1       3.645  -3.730  14.373  0.00  0.00    +0.004 A 
ATOM     30  C   UNL     1       4.055  -3.220  15.589  0.00  0.00    +0.000 A 
ATOM     31  C   UNL     1       4.478  -1.907  15.677  0.00  0.00    +0.000 A 
ATOM     32  C   UNL     1       4.486  -1.110  14.550  0.00  0.00    +0.002 A 
ATOM     33  C   UNL     1       4.072  -1.619  13.328  0.00  0.00    -0.061 A 
ATOM     34  C   UNL     1       4.089  -0.712  12.127  0.00  0.00    -0.043 C 
ATOM     35  H   UNL     1       4.905  -2.029  10.801  0.00  0.00    -0.081 HD
ENDBRANCH  24  25
ENDBRANCH  21  24
ENDBRANCH  20  21
ENDBRANCH  13  20
TORSDOF 6
