REMARK  Name = ZINC41132247
REMARK  4 active torsions:
REMARK  status: ('A' for Active; 'I' for Inactive)
REMARK    1  A    between atoms: C_3  and  N_22
REMARK    2  A    between atoms: C_6  and  N_7
REMARK    3  A    between atoms: C_8  and  C_10
REMARK    4  A    between atoms: C_12  and  N_19
REMARK                            x       y       z     vdW  Elec       q    Type
REMARK                         _______ _______ _______ _____ _____    ______ ____
ROOT
ATOM      1  N   UNL     1      -1.201  -0.721   0.010  0.00  0.00    -0.281 N 
ATOM      2  C   UNL     1      -2.326  -0.154  -0.470  0.00  0.00    +0.251 C 
ATOM      3  O   UNL     1      -2.280   0.943  -0.992  0.00  0.00    -0.270 OA
ATOM      4  H   UNL     1      -1.224  -1.627   0.356  0.00  0.00    +0.155 HD
ENDROOT
BRANCH   2   5
ATOM      5  C   UNL     1      -3.615  -0.865  -0.362  0.00  0.00    +0.077 A 
ATOM      6  C   UNL     1      -3.673  -2.124   0.243  0.00  0.00    +0.051 A 
ATOM      7  C   UNL     1      -4.878  -2.784   0.342  0.00  0.00    +0.165 A 
ATOM      8  C   UNL     1      -6.035  -2.204  -0.156  0.00  0.00    +0.191 A 
ATOM      9  C   UNL     1      -5.987  -0.955  -0.758  0.00  0.00    +0.196 A 
ATOM     10  C   UNL     1      -4.784  -0.280  -0.858  0.00  0.00    +0.173 A 
ATOM     11  F   UNL     1      -4.737   0.939  -1.440  0.00  0.00    -0.202 F 
ATOM     12  F   UNL     1      -7.118  -0.396  -1.242  0.00  0.00    -0.199 F 
ATOM     13  F   UNL     1      -7.213  -2.858  -0.056  0.00  0.00    -0.200 F 
BRANCH   7  14
ATOM     14  N   UNL     1      -4.938  -4.117   0.983  0.00  0.00    +0.059 N 
ATOM     15  O   UNL     1      -3.930  -4.625   1.418  0.00  0.00    -0.126 OA
ATOM     16  O   UNL     1      -5.994  -4.698   1.071  0.00  0.00    -0.126 OA
ENDBRANCH   7  14
ENDBRANCH   2   5
BRANCH   1  22
ATOM     17  C   UNL     1      -0.013   1.374   0.194  0.00  0.00    +0.025 A 
ATOM     18  C   UNL     1       1.172   2.083   0.192  0.00  0.00    +0.025 A 
ATOM     19  C   UNL     1       2.378   1.419   0.003  0.00  0.00    +0.030 A 
ATOM     20  C   UNL     1       2.391   0.043  -0.183  0.00  0.00    +0.025 A 
ATOM     21  C   UNL     1       1.206  -0.665  -0.181  0.00  0.00    +0.025 A 
ATOM     22  C   UNL     1       0.001  -0.002   0.007  0.00  0.00    +0.034 A 
BRANCH  19  23
ATOM     23  N   UNL     1       3.578   2.138   0.001  0.00  0.00    -0.330 N 
ATOM     24  C   UNL     1       3.709   3.589   0.192  0.00  0.00    +0.105 C 
ATOM     25  C   UNL     1       5.210   3.933   0.085  0.00  0.00    +0.020 C 
ATOM     26  C   UNL     1       5.782   2.738  -0.723  0.00  0.00    +0.020 C 
ATOM     27  C   UNL     1       4.923   1.563  -0.188  0.00  0.00    +0.105 C 
ENDBRANCH  19  23
ENDBRANCH   1  22
TORSDOF 4
