REMARK  Name = ZINC04405596
REMARK  7 active torsions:
REMARK  status: ('A' for Active; 'I' for Inactive)
REMARK    1  A    between atoms: C_1  and  C_2
REMARK    2  A    between atoms: C_5  and  C_25
REMARK    3  A    between atoms: C_6  and  N_8
REMARK    4  A    between atoms: C_9  and  C_11
REMARK    5  A    between atoms: N_13  and  N_14
REMARK    6  A    between atoms: C_15  and  C_16
REMARK    7  A    between atoms: C_19  and  N_22
REMARK                            x       y       z     vdW  Elec       q    Type
REMARK                         _______ _______ _______ _____ _____    ______ ____
ROOT
ATOM      1  C   UNL     1       3.613   5.990  -0.216  0.00  0.00    +0.318 C 
ATOM      2  O   UNL     1       4.672   5.396  -0.229  0.00  0.00    -0.263 OA
ATOM      3  N   UNL     1       3.593   7.334  -0.311  0.00  0.00    -0.199 N 
ATOM      4  H   UNL     1       2.747   7.809  -0.300  0.00  0.00    +0.178 HD
ENDROOT
BRANCH   1   6
ATOM      5  N   UNL     1       2.354   3.888  -0.001  0.00  0.00    -0.277 N 
ATOM      6  C   UNL     1       2.334   5.232  -0.095  0.00  0.00    +0.305 C 
ATOM      7  O   UNL     1       1.275   5.827  -0.082  0.00  0.00    -0.265 OA
ATOM      8  H   UNL     1       3.200   3.419   0.070  0.00  0.00    +0.155 HD
BRANCH   5  14
ATOM      9  C   UNL     1      -2.391   3.582  -1.245  0.00  0.00    +0.044 C 
ATOM     10  C   UNL     1      -1.161   2.997  -0.600  0.00  0.00    -0.049 A 
ATOM     11  C   UNL     1      -1.217   1.745  -0.015  0.00  0.00    +0.004 A 
ATOM     12  C   UNL     1      -0.092   1.207   0.583  0.00  0.00    +0.005 A 
ATOM     13  C   UNL     1       1.094   1.915   0.588  0.00  0.00    -0.029 A 
ATOM     14  C   UNL     1       1.155   3.170  -0.003  0.00  0.00    +0.037 A 
ATOM     15  C   UNL     1       0.021   3.710  -0.598  0.00  0.00    +0.027 A 
ATOM     16  C   UNL     1       2.322   1.325   1.234  0.00  0.00    +0.045 C 
ENDBRANCH   5  14
ENDBRANCH   1   6
BRANCH   3  17
ATOM     17  N   UNL     1       4.794   8.046  -0.425  0.00  0.00    -0.187 NA
ATOM     18  C   UNL     1       4.775   9.342  -0.516  0.00  0.00    +0.138 C 
BRANCH  18  19
ATOM     19  C   UNL     1       6.039  10.091  -0.636  0.00  0.00    -0.005 A 
ATOM     20  C   UNL     1       7.260   9.411  -0.645  0.00  0.00    +0.012 A 
ATOM     21  C   UNL     1       8.438  10.118  -0.763  0.00  0.00    +0.033 A 
ATOM     22  C   UNL     1       8.414  11.498  -0.860  0.00  0.00    +0.126 A 
ATOM     23  C   UNL     1       7.209  12.179  -0.846  0.00  0.00    +0.033 A 
ATOM     24  C   UNL     1       6.023  11.485  -0.734  0.00  0.00    +0.012 A 
BRANCH  22  25
ATOM     25  N   UNL     1       9.684  12.250  -0.981  0.00  0.00    +0.056 N 
ATOM     26  O   UNL     1       9.666  13.465  -1.066  0.00  0.00    -0.126 OA
ATOM     27  O   UNL     1      10.746  11.654  -0.994  0.00  0.00    -0.126 OA
ENDBRANCH  22  25
ENDBRANCH  18  19
ENDBRANCH   3  17
TORSDOF 5
