REMARK  Name = ZINC45463811
REMARK  8 active torsions:
REMARK  status: ('A' for Active; 'I' for Inactive)
REMARK    1  A    between atoms: C_1  and  C_2
REMARK    2  A    between atoms: C_2  and  C_3
REMARK    3  A    between atoms: C_2  and  C_4
REMARK    4  A    between atoms: C_4  and  N_5
REMARK    5  A    between atoms: C_8  and  N_11
REMARK    6  A    between atoms: N_14  and  N_15
REMARK    7  A    between atoms: C_16  and  C_18
REMARK    8  A    between atoms: C_18  and  C_19
REMARK                            x       y       z     vdW  Elec       q    Type
REMARK                         _______ _______ _______ _____ _____    ______ ____
ROOT
ATOM      1  N   UNL     1      -2.066  -6.085   0.891  0.00  0.00    -0.296 N 
ATOM      2  C   UNL     1      -3.132  -6.866   1.158  0.00  0.00    +0.316 C 
ATOM      3  O   UNL     1      -4.188  -6.361   1.486  0.00  0.00    -0.251 OA
ATOM      4  N   UNL     1      -3.027  -8.206   1.060  0.00  0.00    -0.218 N 
ATOM      5  H   UNL     1      -1.224  -6.487   0.629  0.00  0.00    +0.151 HD
ATOM      6  H   UNL     1      -3.794  -8.768   1.253  0.00  0.00    +0.174 HD
ENDROOT
BRANCH   1  10
ATOM      7  N   UNL     1      -1.416  -2.016   0.004  0.00  0.00    +0.380 N 
ATOM      8  C   UNL     1      -0.913  -2.498   1.296  0.00  0.00    -0.077 C 
ATOM      9  C   UNL     1      -0.799  -4.024   1.265  0.00  0.00    +0.004 C 
ATOM     10  C   UNL     1      -2.181  -4.628   0.997  0.00  0.00    +0.071 C 
ATOM     11  C   UNL     1      -2.728  -4.061  -0.316  0.00  0.00    +0.004 C 
ATOM     12  C   UNL     1      -2.770  -2.534  -0.227  0.00  0.00    -0.077 C 
ATOM     13  H   UNL     1      -0.805  -2.334  -0.733  0.00  0.00    -0.082 HD
BRANCH   7  14
ATOM     14  C   UNL     1      -1.450  -0.547   0.011  0.00  0.00    -0.076 C 
BRANCH  14  16
ATOM     15  C   UNL     1       0.749  -0.387  -1.165  0.00  0.00    +0.005 C 
ATOM     16  C   UNL     1      -0.022  -0.005   0.101  0.00  0.00    -0.034 C 
ATOM     17  C   UNL     1      -0.062   1.518   0.233  0.00  0.00    +0.005 C 
ENDBRANCH  14  16
ENDBRANCH   7  14
ENDBRANCH   1  10
BRANCH   4  18
ATOM     18  N   UNL     1      -1.810  -8.787   0.682  0.00  0.00    -0.233 N 
ATOM     19  C   UNL     1      -1.704 -10.127   0.585  0.00  0.00    +0.230 C 
ATOM     20  O   UNL     1      -2.663 -10.830   0.825  0.00  0.00    -0.274 OA
ATOM     21  H   UNL     1      -1.043  -8.225   0.490  0.00  0.00    +0.173 HD
BRANCH  19  22
ATOM     22  C   UNL     1      -0.395 -10.753   0.177  0.00  0.00    +0.104 C 
BRANCH  22  23
ATOM     23  C   UNL     1      -0.546 -12.275   0.144  0.00  0.00    -0.020 C 
ATOM     24  C   UNL     1      -0.941 -12.779   1.534  0.00  0.00    +0.011 C 
ATOM     25  C   UNL     1      -1.091 -14.301   1.501  0.00  0.00    -0.010 C 
ATOM     26  C   UNL     1       0.238 -14.936   1.087  0.00  0.00    +0.007 C 
ATOM     27  C   UNL     1       0.633 -14.432  -0.302  0.00  0.00    -0.010 C 
ATOM     28  C   UNL     1       0.783 -12.910  -0.269  0.00  0.00    +0.011 C 
ATOM     29  C   UNL     1      -0.451 -14.816  -1.311  0.00  0.00    +0.007 C 
ATOM     30  C   UNL     1      -1.780 -14.181  -0.898  0.00  0.00    -0.010 C 
ATOM     31  C   UNL     1      -2.176 -14.684   0.492  0.00  0.00    +0.007 C 
ATOM     32  C   UNL     1      -1.630 -12.659  -0.865  0.00  0.00    +0.011 C 
ENDBRANCH  22  23
ENDBRANCH  19  22
ENDBRANCH   4  18
TORSDOF 6
