REMARK  Name = ZINC59311177
REMARK  7 active torsions:
REMARK  status: ('A' for Active; 'I' for Inactive)
REMARK    1  A    between atoms: C_1  and  C_2
REMARK    2  A    between atoms: C_5  and  N_9
REMARK    3  A    between atoms: C_7  and  C_8
REMARK    4  A    between atoms: C_10  and  C_12
REMARK    5  A    between atoms: C_12  and  S_13
REMARK    6  A    between atoms: S_13  and  C_14
REMARK    7  A    between atoms: N_19  and  N_20
REMARK                            x       y       z     vdW  Elec       q    Type
REMARK                         _______ _______ _______ _____ _____    ______ ____
ROOT
ATOM      1  C   UNL     1      -0.354  -8.699  -2.720  0.00  0.00    +0.211 A 
ATOM      2  N   UNL     1      -0.461  -9.568  -3.730  0.00  0.00    -0.186 NA
ATOM      3  C   UNL     1      -0.475 -10.797  -3.257  0.00  0.00    +0.232 A 
ATOM      4  N   UNL     1      -0.376 -10.727  -1.913  0.00  0.00    -0.245 N 
ATOM      5  N   UNL     1      -0.295  -9.363  -1.590  0.00  0.00    -0.144 NA
ATOM      6  N   UNL     1      -0.575 -11.956  -4.006  0.00  0.00    -0.205 N 
ATOM      7  H   UNL     1      -0.578 -12.819  -3.565  0.00  0.00    +0.177 HD
ATOM      8  H   UNL     1      -0.361 -11.472  -1.292  0.00  0.00    +0.192 HD
ENDROOT
BRANCH   6   9
ATOM      9  N   UNL     1      -0.672 -11.881  -5.402  0.00  0.00    -0.189 NA
ATOM     10  C   UNL     1      -0.865 -12.945  -6.088  0.00  0.00    +0.037 C 
ATOM     11  C   UNL     1      -0.925 -14.305  -5.399  0.00  0.00    +0.052 C 
ATOM     12  C   UNL     1      -1.988 -15.176  -6.013  0.00  0.00    +0.006 C 
ATOM     13  C   UNL     1      -1.395 -15.983  -7.177  0.00  0.00    +0.000 C 
ATOM     14  C   UNL     1      -1.298 -15.204  -8.414  0.00  0.00    +0.000 C 
ATOM     15  C   UNL     1      -0.342 -14.010  -8.287  0.00  0.00    +0.006 C 
ATOM     16  C   UNL     1      -1.044 -12.864  -7.601  0.00  0.00    +0.052 C 
ENDBRANCH   6   9
BRANCH   1  17
ATOM     17  S   UNL     1      -0.296  -6.945  -2.881  0.00  0.00    -0.075 S 
BRANCH  17  18
ATOM     18  C   UNL     1      -0.142  -6.353  -1.173  0.00  0.00    +0.173 C 
BRANCH  18  20
ATOM     19  N   UNL     1       0.034  -4.182  -0.001  0.00  0.00    -0.285 N 
ATOM     20  C   UNL     1      -0.081  -4.847  -1.167  0.00  0.00    +0.227 C 
ATOM     21  O   UNL     1      -0.136  -4.234  -2.212  0.00  0.00    -0.275 OA
ATOM     22  H   UNL     1       0.152  -4.672   0.828  0.00  0.00    +0.155 HD
BRANCH  19  27
ATOM     23  C   UNL     1      -0.175   1.487   0.066  0.00  0.00    +0.044 C 
ATOM     24  C   UNL     1      -0.119  -0.019   0.048  0.00  0.00    -0.047 A 
ATOM     25  C   UNL     1      -0.869  -0.726  -0.874  0.00  0.00    +0.005 A 
ATOM     26  C   UNL     1      -0.821  -2.106  -0.893  0.00  0.00    +0.023 A 
ATOM     27  C   UNL     1      -0.017  -2.783   0.015  0.00  0.00    +0.034 A 
ATOM     28  C   UNL     1       0.735  -2.070   0.940  0.00  0.00    +0.027 A 
ATOM     29  C   UNL     1       0.686  -0.690   0.950  0.00  0.00    -0.046 A 
ATOM     30  C   UNL     1       1.506   0.085   1.949  0.00  0.00    +0.044 C 
ENDBRANCH  19  27
ENDBRANCH  18  20
ENDBRANCH  17  18
ENDBRANCH   1  17
TORSDOF 5
