REMARK  Name = ZINC45971890
REMARK  3 active torsions:
REMARK  status: ('A' for Active; 'I' for Inactive)
REMARK    1  A    between atoms: C_7  and  C_14
REMARK    2  A    between atoms: N_16  and  N_17
REMARK    3  A    between atoms: N_17  and  C_18
REMARK                            x       y       z     vdW  Elec       q    Type
REMARK                         _______ _______ _______ _____ _____    ______ ____
ROOT
ATOM      1  C   UNL     1      -0.016   1.358   0.009  0.00  0.00    +0.001 A 
ATOM      2  C   UNL     1       1.171   2.088   0.002  0.00  0.00    +0.002 A 
ATOM      3  C   UNL     1       2.379   1.464  -0.012  0.00  0.00    +0.028 A 
ATOM      4  C   UNL     1       2.439   0.058  -0.019  0.00  0.00    +0.072 A 
ATOM      5  C   UNL     1       1.229  -0.680  -0.013  0.00  0.00    +0.013 A 
ATOM      6  C   UNL     1       0.002  -0.004   0.002  0.00  0.00    +0.011 A 
ATOM      7  C   UNL     1       1.294  -2.095  -0.021  0.00  0.00    +0.052 A 
ATOM      8  C   UNL     1       2.550  -2.690  -0.034  0.00  0.00    -0.013 A 
ATOM      9  C   UNL     1       3.694  -1.893  -0.038  0.00  0.00    +0.046 A 
ATOM     10  N   UNL     1       3.609  -0.581  -0.031  0.00  0.00    -0.251 NA
ATOM     11  C   UNL     1       4.923  -2.782  -0.052  0.00  0.00    +0.056 C 
ATOM     12  C   UNL     1       4.424  -4.174   0.388  0.00  0.00    +0.011 C 
ATOM     13  C   UNL     1       2.942  -4.151  -0.043  0.00  0.00    +0.038 C 
ENDROOT
BRANCH   7  14
ATOM     14  C   UNL     1       0.063  -2.915  -0.017  0.00  0.00    +0.261 C 
ATOM     15  O   UNL     1      -0.451  -3.246  -1.067  0.00  0.00    -0.269 OA
ATOM     16  N   UNL     1      -0.489  -3.295   1.153  0.00  0.00    -0.232 N 
ATOM     17  H   UNL     1      -0.079  -3.031   1.991  0.00  0.00    +0.173 HD
BRANCH  16  18
ATOM     18  N   UNL     1      -1.655  -4.072   1.157  0.00  0.00    -0.264 N 
ATOM     19  H   UNL     1      -2.065  -4.336   0.319  0.00  0.00    +0.170 HD
BRANCH  18  20
ATOM     20  C   UNL     1      -2.228  -4.466   2.370  0.00  0.00    +0.045 A 
ATOM     21  C   UNL     1      -1.645  -4.084   3.571  0.00  0.00    +0.027 A 
ATOM     22  C   UNL     1      -2.213  -4.474   4.768  0.00  0.00    +0.040 A 
ATOM     23  C   UNL     1      -3.362  -5.246   4.771  0.00  0.00    +0.124 A 
ATOM     24  C   UNL     1      -3.945  -5.629   3.575  0.00  0.00    +0.040 A 
ATOM     25  C   UNL     1      -3.384  -5.236   2.376  0.00  0.00    +0.027 A 
ATOM     26  F   UNL     1      -3.915  -5.628   5.943  0.00  0.00    -0.205 F 
ENDBRANCH  18  20
ENDBRANCH  16  18
ENDBRANCH   7  14
TORSDOF 3
