REMARK  Name = ZINC62580030
REMARK  12 active torsions:
REMARK  status: ('A' for Active; 'I' for Inactive)
REMARK    1  A    between atoms: C_1  and  C_2
REMARK    2  A    between atoms: C_2  and  C_3
REMARK    3  A    between atoms: C_3  and  C_4
REMARK    4  A    between atoms: C_4  and  N_5
REMARK    5  A    between atoms: N_14  and  C_36
REMARK    6  A    between atoms: C_15  and  C_17
REMARK    7  A    between atoms: C_17  and  N_18
REMARK    8  A    between atoms: N_18  and  C_19
REMARK    9  A    between atoms: N_18  and  C_28
REMARK   10  A    between atoms: C_19  and  C_20
REMARK   11  A    between atoms: C_23  and  O_26
REMARK   12  A    between atoms: O_26  and  C_27
REMARK                            x       y       z     vdW  Elec       q    Type
REMARK                         _______ _______ _______ _____ _____    ______ ____
ROOT
ATOM      1  C   UNL     1      -3.625  -3.026   4.633  0.00  0.00    -0.002 C 
ENDROOT
BRANCH   1  12
ATOM      2  N   UNL     1       0.467  -2.838   1.858  0.00  0.00    -0.277 N 
ATOM      3  C   UNL     1      -0.831  -2.819   2.341  0.00  0.00    +0.168 A 
ATOM      4  C   UNL     1      -1.871  -2.551   1.460  0.00  0.00    +0.151 A 
ATOM      5  C   UNL     1      -1.576  -2.307   0.102  0.00  0.00    +0.280 A 
ATOM      6  O   UNL     1      -2.470  -2.069  -0.690  0.00  0.00    -0.265 OA
ATOM      7  N   UNL     1      -0.291  -2.339  -0.309  0.00  0.00    -0.273 N 
ATOM      8  H   UNL     1      -0.084  -2.172  -1.242  0.00  0.00    +0.173 HD
ATOM      9  C   UNL     1       0.706  -2.595   0.555  0.00  0.00    +0.331 A 
ATOM     10  O   UNL     1       1.852  -2.610   0.150  0.00  0.00    -0.246 OA
ATOM     11  N   UNL     1      -3.031  -2.596   2.207  0.00  0.00    -0.327 N 
ATOM     12  C   UNL     1      -2.673  -2.880   3.474  0.00  0.00    +0.096 A 
ATOM     13  N   UNL     1      -1.373  -3.011   3.547  0.00  0.00    -0.216 NA
ATOM     14  C   UNL     1      -4.394  -2.376   1.715  0.00  0.00    +0.151 C 
BRANCH   2  15
ATOM     15  C   UNL     1       1.582  -3.118   2.766  0.00  0.00    +0.128 C 
BRANCH  15  16
ATOM     16  C   UNL     1       2.091  -1.807   3.368  0.00  0.00    +0.021 C 
BRANCH  16  18
ATOM     17  C   UNL     1       3.765  -0.788   4.918  0.00  0.00    +0.004 C 
ATOM     18  C   UNL     1       3.256  -2.100   4.316  0.00  0.00    -0.002 C 
ENDBRANCH  16  18
ENDBRANCH  15  16
ENDBRANCH   2  15
ENDBRANCH   1  12
BRANCH   1  19
ATOM     19  N   UNL     1      -3.351  -4.285   5.337  0.00  0.00    +0.390 N 
ATOM     20  H   UNL     1      -2.357  -4.459   5.341  0.00  0.00    -0.080 HD
BRANCH  19  21
ATOM     21  C   UNL     1      -4.039  -5.388   4.653  0.00  0.00    -0.045 C 
ATOM     22  C   UNL     1      -3.599  -5.440   3.180  0.00  0.00    +0.009 C 
ATOM     23  C   UNL     1      -4.539  -6.375   2.381  0.00  0.00    +0.164 C 
ATOM     24  S   UNL     1      -6.119  -6.252   3.315  0.00  0.00    -0.033 S 
ATOM     25  O   UNL     1      -6.444  -7.530   3.844  0.00  0.00    -0.174 OA
ATOM     26  O   UNL     1      -7.073  -5.561   2.520  0.00  0.00    -0.174 OA
ATOM     27  C   UNL     1      -5.576  -5.153   4.691  0.00  0.00    +0.151 C 
ENDBRANCH  19  21
BRANCH  19  28
ATOM     28  C   UNL     1      -3.837  -4.189   6.721  0.00  0.00    -0.042 C 
BRANCH  28  29
ATOM     29  C   UNL     1      -3.432  -5.425   7.482  0.00  0.00    -0.064 A 
ATOM     30  C   UNL     1      -4.316  -6.480   7.606  0.00  0.00    +0.005 A 
ATOM     31  C   UNL     1      -3.948  -7.614   8.304  0.00  0.00    +0.046 A 
ATOM     32  C   UNL     1      -2.689  -7.693   8.881  0.00  0.00    +0.120 A 
ATOM     33  C   UNL     1      -1.803  -6.632   8.755  0.00  0.00    +0.046 A 
ATOM     34  C   UNL     1      -2.174  -5.503   8.052  0.00  0.00    +0.005 A 
BRANCH  32  35
ATOM     35  O   UNL     1      -2.324  -8.806   9.569  0.00  0.00    -0.495 OA
ATOM     36  C   UNL     1      -1.012  -8.818  10.136  0.00  0.00    +0.277 C 
ENDBRANCH  32  35
ENDBRANCH  28  29
ENDBRANCH  19  28
ENDBRANCH   1  19
TORSDOF 9
