REMARK  Name = ZINC57927642
REMARK  6 active torsions:
REMARK  status: ('A' for Active; 'I' for Inactive)
REMARK    1  A    between atoms: C_1  and  C_2
REMARK    2  A    between atoms: C_7  and  N_8
REMARK    3  A    between atoms: C_9  and  C_11
REMARK    4  A    between atoms: C_11  and  C_13
REMARK    5  A    between atoms: C_11  and  N_14
REMARK    6  A    between atoms: C_22  and  C_26
REMARK                            x       y       z     vdW  Elec       q    Type
REMARK                         _______ _______ _______ _____ _____    ______ ____
ROOT
ATOM      1  C   UNL     1      -0.168   0.052   4.882  0.00  0.00    +0.164 C 
ATOM      2  C   UNL     1      -1.431   0.915   4.870  0.00  0.00    +0.038 C 
ENDROOT
BRANCH   1   3
ATOM      3  N   UNL     1      -0.241  -0.905   5.988  0.00  0.00    -0.257 N 
ATOM      4  C   UNL     1       0.734  -0.880   6.992  0.00  0.00    +0.058 A 
ATOM      5  C   UNL     1       1.591   0.201   7.121  0.00  0.00    +0.025 A 
ATOM      6  C   UNL     1       2.550   0.204   8.117  0.00  0.00    +0.002 A 
ATOM      7  C   UNL     1       2.661  -0.866   8.985  0.00  0.00    +0.002 A 
ATOM      8  C   UNL     1       1.809  -1.950   8.865  0.00  0.00    +0.025 A 
ATOM      9  C   UNL     1       0.845  -1.958   7.873  0.00  0.00    +0.049 A 
ATOM     10  N   UNL     1      -0.041  -3.035   7.733  0.00  0.00    -0.332 N 
ATOM     11  C   UNL     1      -1.378  -2.761   7.183  0.00  0.00    +0.154 C 
ATOM     12  C   UNL     1      -1.250  -1.797   6.032  0.00  0.00    +0.240 C 
ATOM     13  O   UNL     1      -2.062  -1.827   5.132  0.00  0.00    -0.273 OA
ATOM     14  C   UNL     1      -2.260  -2.142   8.269  0.00  0.00    +0.038 C 
ATOM     15  H   UNL     1       0.219  -3.934   7.990  0.00  0.00    +0.147 HD
ENDBRANCH   1   3
BRANCH   1  17
ATOM     16  N   UNL     1       0.025  -0.015   2.417  0.00  0.00    -0.284 N 
ATOM     17  C   UNL     1      -0.056  -0.694   3.578  0.00  0.00    +0.238 C 
ATOM     18  O   UNL     1      -0.040  -1.907   3.573  0.00  0.00    -0.273 OA
ATOM     19  H   UNL     1       0.078   0.954   2.425  0.00  0.00    +0.155 HD
BRANCH  16  26
ATOM     20  C   UNL     1      -1.264   1.184   0.181  0.00  0.00    +0.045 C 
ATOM     21  C   UNL     1      -0.584  -0.158   0.084  0.00  0.00    -0.029 A 
ATOM     22  C   UNL     1      -0.569  -0.840  -1.117  0.00  0.00    +0.005 A 
ATOM     23  C   UNL     1       0.055  -2.071  -1.206  0.00  0.00    +0.000 A 
ATOM     24  C   UNL     1       0.666  -2.622  -0.095  0.00  0.00    +0.002 A 
ATOM     25  C   UNL     1       0.655  -1.945   1.108  0.00  0.00    +0.023 A 
ATOM     26  C   UNL     1       0.034  -0.706   1.201  0.00  0.00    +0.036 A 
ENDBRANCH  16  26
ENDBRANCH   1  17
TORSDOF 3
