REMARK  Name = ZINC52344371
REMARK  5 active torsions:
REMARK  status: ('A' for Active; 'I' for Inactive)
REMARK    1  A    between atoms: C_1  and  C_2
REMARK    2  A    between atoms: C_2  and  C_3
REMARK    3  A    between atoms: C_3  and  C_5
REMARK    4  A    between atoms: C_3  and  N_11
REMARK    5  A    between atoms: C_19  and  C_21
REMARK                            x       y       z     vdW  Elec       q    Type
REMARK                         _______ _______ _______ _____ _____    ______ ____
ROOT
ATOM      1  N   UNL     1      -4.968  -0.248   0.498  0.00  0.00    -0.296 N 
ATOM      2  C   UNL     1      -4.557   0.977   0.882  0.00  0.00    +0.303 C 
ATOM      3  O   UNL     1      -4.314   1.825   0.047  0.00  0.00    -0.253 OA
ATOM      4  N   UNL     1      -4.417   1.260   2.192  0.00  0.00    -0.272 N 
ATOM      5  C   UNL     1      -4.593   0.214   3.208  0.00  0.00    +0.110 C 
ATOM      6  C   UNL     1      -3.350   0.180   4.102  0.00  0.00    +0.019 C 
ATOM      7  C   UNL     1      -3.100   1.577   4.676  0.00  0.00    +0.004 C 
ATOM      8  C   UNL     1      -2.846   2.562   3.532  0.00  0.00    +0.034 C 
ATOM      9  C   UNL     1      -4.078   2.621   2.631  0.00  0.00    +0.190 C 
ATOM     10  H   UNL     1      -5.104  -0.944   1.161  0.00  0.00    +0.151 HD
ENDROOT
BRANCH   9  11
ATOM     11  C   UNL     1      -3.781   3.480   1.429  0.00  0.00    +0.376 C 
ATOM     12  O   UNL     1      -4.362   4.542   1.281  0.00  0.00    -0.244 OA
ATOM     13  O   UNL     1      -2.961   3.114   0.606  0.00  0.00    -0.244 OA
ENDBRANCH   9  11
BRANCH   1  14
ATOM     14  C   UNL     1      -5.210  -0.529  -0.919  0.00  0.00    +0.077 C 
BRANCH  14  15
ATOM     15  C   UNL     1      -6.210  -1.680  -1.047  0.00  0.00    +0.009 C 
ATOM     16  C   UNL     1      -5.698  -2.890  -0.264  0.00  0.00    +0.005 C 
ATOM     17  C   UNL     1      -6.699  -4.041  -0.393  0.00  0.00    +0.000 C 
ATOM     18  C   UNL     1      -8.053  -3.605   0.170  0.00  0.00    +0.000 C 
ATOM     19  C   UNL     1      -8.565  -2.394  -0.613  0.00  0.00    +0.000 C 
ATOM     20  C   UNL     1      -7.564  -1.244  -0.484  0.00  0.00    +0.005 C 
ENDBRANCH  14  15
BRANCH  14  22
ATOM     21  C   UNL     1      -2.937   0.273  -1.575  0.00  0.00    +0.006 C 
ATOM     22  C   UNL     1      -3.893  -0.920  -1.593  0.00  0.00    +0.019 C 
ENDBRANCH  14  22
ENDBRANCH   1  14
TORSDOF 4
