REMARK  Name = ZINC08254936
REMARK  9 active torsions:
REMARK  status: ('A' for Active; 'I' for Inactive)
REMARK    1  A    between atoms: C_1  and  C_2
REMARK    2  A    between atoms: C_7  and  N_8
REMARK    3  A    between atoms: C_9  and  C_11
REMARK    4  A    between atoms: C_11  and  C_13
REMARK    5  A    between atoms: C_11  and  O_14
REMARK    6  A    between atoms: O_14  and  C_15
REMARK    7  A    between atoms: C_15  and  C_17
REMARK    8  A    between atoms: C_20  and  N_23
REMARK    9  A    between atoms: C_24  and  C_28
REMARK                            x       y       z     vdW  Elec       q    Type
REMARK                         _______ _______ _______ _____ _____    ______ ____
ROOT
ATOM      1  O   UNL     1       2.454  -6.676   0.587  0.00  0.00    -0.449 OA
ENDROOT
BRANCH   1   2
ATOM      2  C   UNL     1       2.989  -8.024   0.510  0.00  0.00    +0.259 C 
ATOM      3  C   UNL     1       3.907  -8.277   1.707  0.00  0.00    +0.062 C 
BRANCH   2   5
ATOM      4  N   UNL     1       2.114 -10.337   0.466  0.00  0.00    -0.282 N 
ATOM      5  C   UNL     1       1.855  -9.016   0.528  0.00  0.00    +0.258 C 
ATOM      6  O   UNL     1       0.709  -8.626   0.599  0.00  0.00    -0.271 OA
ATOM      7  H   UNL     1       3.031 -10.653   0.479  0.00  0.00    +0.155 HD
BRANCH   4  14
ATOM      8  C   UNL     1       2.509 -12.703  -1.064  0.00  0.00    +0.045 C 
ATOM      9  C   UNL     1       1.210 -12.421  -0.354  0.00  0.00    -0.029 A 
ATOM     10  C   UNL     1       0.170 -13.327  -0.431  0.00  0.00    +0.006 A 
ATOM     11  C   UNL     1      -1.024 -13.067   0.215  0.00  0.00    +0.020 A 
ATOM     12  C   UNL     1      -1.179 -11.902   0.947  0.00  0.00    +0.043 A 
ATOM     13  C   UNL     1      -0.140 -10.995   1.031  0.00  0.00    +0.043 A 
ATOM     14  C   UNL     1       1.060 -11.254   0.382  0.00  0.00    +0.038 A 
ATOM     15 CL   UNL     1      -2.680 -11.579   1.757  0.00  0.00    -0.083 Cl
ENDBRANCH   4  14
ENDBRANCH   2   5
ENDBRANCH   1   2
BRANCH   1  16
ATOM     16  C   UNL     1       3.165  -5.701  -0.013  0.00  0.00    +0.340 C 
ATOM     17  O   UNL     1       4.203  -5.970  -0.585  0.00  0.00    -0.245 OA
BRANCH  16  18
ATOM     18  C   UNL     1       2.683  -4.307   0.024  0.00  0.00    +0.059 A 
ATOM     19  C   UNL     1       3.419  -3.294  -0.597  0.00  0.00    +0.017 A 
ATOM     20  C   UNL     1       2.966  -1.995  -0.560  0.00  0.00    +0.028 A 
ATOM     21  C   UNL     1       1.778  -1.689   0.095  0.00  0.00    +0.066 A 
ATOM     22  C   UNL     1       1.046  -2.693   0.719  0.00  0.00    +0.028 A 
ATOM     23  C   UNL     1       1.489  -3.996   0.681  0.00  0.00    +0.017 A 
BRANCH  21  24
ATOM     24  N   UNL     1       1.322  -0.368   0.132  0.00  0.00    -0.237 N 
ATOM     25  C   UNL     1       1.336   0.513  -0.902  0.00  0.00    +0.042 A 
ATOM     26  C   UNL     1       0.809   1.676  -0.457  0.00  0.00    +0.044 A 
ATOM     27  C   UNL     1       0.461   1.506   0.888  0.00  0.00    +0.135 A 
ATOM     28  N   UNL     1       0.767   0.283   1.241  0.00  0.00    -0.175 NA
ATOM     29  C   UNL     1       1.848   0.243  -2.294  0.00  0.00    +0.066 C 
ENDBRANCH  21  24
ENDBRANCH  16  18
ENDBRANCH   1  16
TORSDOF 6
