REMARK  Name = ZINC14010178
REMARK  9 active torsions:
REMARK  status: ('A' for Active; 'I' for Inactive)
REMARK    1  A    between atoms: C_4  and  C_7
REMARK    2  A    between atoms: C_7  and  C_8
REMARK    3  A    between atoms: C_7  and  C_14
REMARK    4  A    between atoms: N_16  and  C_17
REMARK    5  A    between atoms: C_17  and  N_19
REMARK    6  A    between atoms: C_25  and  C_27
REMARK    7  A    between atoms: C_27  and  C_28
REMARK    8  A    between atoms: C_28  and  O_30
REMARK    9  A    between atoms: O_30  and  C_31
REMARK                            x       y       z     vdW  Elec       q    Type
REMARK                         _______ _______ _______ _____ _____    ______ ____
ROOT
ATOM      1  C   UNL     1       4.083   3.574  -3.838  0.00  0.00    +0.140 C 
ATOM      2  S   UNL     1       4.081   2.532  -2.480  0.00  0.00    -0.018 S 
ENDROOT
BRANCH   1   3
ATOM      3  N   UNL     1       4.153   3.059  -5.082  0.00  0.00    -0.299 N 
ATOM      4  C   UNL     1       4.359   1.618  -5.305  0.00  0.00    +0.126 C 
ATOM      5  C   UNL     1       5.669   1.429  -6.063  0.00  0.00    +0.123 C 
ATOM      6  N   UNL     1       5.756   2.355  -7.184  0.00  0.00    -0.312 N 
ATOM      7  C   UNL     1       5.067   3.493  -7.281  0.00  0.00    +0.234 C 
ATOM      8  O   UNL     1       5.284   4.222  -8.226  0.00  0.00    -0.274 OA
ATOM      9  C   UNL     1       4.034   3.915  -6.272  0.00  0.00    +0.171 C 
ATOM     10  H   UNL     1       6.357   2.128  -7.910  0.00  0.00    +0.149 HD
BRANCH   9  11
ATOM     11  C   UNL     1       2.636   3.762  -6.875  0.00  0.00    +0.152 C 
BRANCH  11  12
ATOM     12  C   UNL     1       1.613   4.319  -5.919  0.00  0.00    +0.310 C 
ATOM     13  O   UNL     1       1.971   4.878  -4.910  0.00  0.00    -0.251 OA
BRANCH  12  14
ATOM     14  O   UNL     1       0.304   4.194  -6.190  0.00  0.00    -0.461 OA
BRANCH  14  15
ATOM     15  C   UNL     1      -0.625   4.755  -5.225  0.00  0.00    +0.176 C 
ATOM     16  C   UNL     1      -0.977   3.694  -4.180  0.00  0.00    +0.044 C 
ATOM     17  C   UNL     1      -1.956   4.285  -3.163  0.00  0.00    +0.004 C 
ATOM     18  C   UNL     1      -3.229   4.734  -3.883  0.00  0.00    +0.000 C 
ATOM     19  C   UNL     1      -2.877   5.795  -4.927  0.00  0.00    +0.004 C 
ATOM     20  C   UNL     1      -1.898   5.205  -5.944  0.00  0.00    +0.044 C 
ENDBRANCH  14  15
ENDBRANCH  12  14
ENDBRANCH  11  12
ENDBRANCH   9  11
ENDBRANCH   1   3
BRANCH   1  23
ATOM     21  C   UNL     1       4.049   5.428  -2.421  0.00  0.00    +0.230 C 
ATOM     22  O   UNL     1       4.142   4.695  -1.459  0.00  0.00    -0.274 OA
ATOM     23  N   UNL     1       4.014   4.908  -3.664  0.00  0.00    -0.267 N 
ATOM     24  H   UNL     1       3.940   5.495  -4.433  0.00  0.00    +0.157 HD
BRANCH  21  25
ATOM     25  C   UNL     1       3.972   6.920  -2.226  0.00  0.00    +0.135 C 
BRANCH  25  29
ATOM     26  C   UNL     1       7.258   8.789  -4.216  0.00  0.00    +0.000 A 
ATOM     27  C   UNL     1       7.487   7.764  -3.317  0.00  0.00    +0.000 A 
ATOM     28  C   UNL     1       6.423   7.159  -2.673  0.00  0.00    +0.005 A 
ATOM     29  C   UNL     1       5.131   7.579  -2.928  0.00  0.00    -0.031 A 
ATOM     30  C   UNL     1       4.903   8.605  -3.827  0.00  0.00    +0.005 A 
ATOM     31  C   UNL     1       5.966   9.210  -4.470  0.00  0.00    +0.000 A 
ENDBRANCH  25  29
BRANCH  25  32
ATOM     32  C   UNL     1       4.030   7.239  -0.754  0.00  0.00    -0.031 A 
ATOM     33  C   UNL     1       5.053   6.729   0.023  0.00  0.00    +0.005 A 
ATOM     34  C   UNL     1       5.109   7.024   1.373  0.00  0.00    +0.000 A 
ATOM     35  C   UNL     1       4.137   7.822   1.947  0.00  0.00    +0.000 A 
ATOM     36  C   UNL     1       3.111   8.327   1.170  0.00  0.00    +0.000 A 
ATOM     37  C   UNL     1       3.057   8.035  -0.180  0.00  0.00    +0.005 A 
ENDBRANCH  25  32
ENDBRANCH  21  25
ENDBRANCH   1  23
TORSDOF 9
