REMARK  Name = ZINC55491418
REMARK  2 active torsions:
REMARK  status: ('A' for Active; 'I' for Inactive)
REMARK    1  A    between atoms: C_3  and  O_23
REMARK    2  A    between atoms: C_6  and  C_7
REMARK                            x       y       z     vdW  Elec       q    Type
REMARK                         _______ _______ _______ _____ _____    ______ ____
ROOT
ATOM      1  C   UNL     1      -1.265  -0.761   0.011  0.00  0.00    +0.142 A 
ATOM      2  N   UNL     1      -1.234  -2.129   0.009  0.00  0.00    -0.306 N 
ATOM      3  H   UNL     1      -0.378  -2.586   0.002  0.00  0.00    +0.170 HD
ATOM      4  C   UNL     1      -2.368  -2.852   0.016  0.00  0.00    +0.260 A 
ATOM      5  O   UNL     1      -2.325  -4.070   0.015  0.00  0.00    -0.267 OA
ATOM      6  C   UNL     1      -3.628  -2.170   0.026  0.00  0.00    +0.075 A 
ATOM      7  C   UNL     1      -4.972  -2.748   0.034  0.00  0.00    -0.023 A 
ATOM      8  C   UNL     1      -6.010  -1.885   0.043  0.00  0.00    -0.004 A 
ATOM      9  S   UNL     1      -5.270  -0.275   0.042  0.00  0.00    -0.073 S 
ATOM     10  C   UNL     1      -3.564  -0.766   0.028  0.00  0.00    +0.116 A 
ATOM     11  N   UNL     1      -2.410  -0.111   0.025  0.00  0.00    -0.222 NA
ATOM     12  C   UNL     1      -7.470  -2.222   0.050  0.00  0.00    +0.043 C 
ATOM     13  C   UNL     1      -7.627  -3.702  -0.329  0.00  0.00    +0.005 C 
ATOM     14  C   UNL     1      -6.640  -4.529   0.500  0.00  0.00    +0.005 C 
ATOM     15  C   UNL     1      -5.211  -4.255   0.032  0.00  0.00    +0.037 C 
ENDROOT
BRANCH   1  21
ATOM     16  C   UNL     1      -0.017   1.393   0.010  0.00  0.00    +0.015 A 
ATOM     17  C   UNL     1       1.168   2.096   0.002  0.00  0.00    +0.047 A 
ATOM     18  C   UNL     1       2.380   1.419  -0.013  0.00  0.00    +0.135 A 
ATOM     19  C   UNL     1       2.404   0.029  -0.021  0.00  0.00    +0.083 A 
ATOM     20  C   UNL     1       1.224  -0.682  -0.014  0.00  0.00    +0.035 A 
ATOM     21  C   UNL     1       0.002  -0.004   0.002  0.00  0.00    +0.019 A 
ATOM     22 CL   UNL     1       3.923  -0.812  -0.040  0.00  0.00    -0.080 Cl
BRANCH  18  23
ATOM     23  O   UNL     1       3.546   2.117  -0.021  0.00  0.00    -0.505 OA
ATOM     24  H   UNL     1       3.892   2.314   0.860  0.00  0.00    +0.292 HD
ENDBRANCH  18  23
ENDBRANCH   1  21
TORSDOF 2
