REMARK  Name = ZINC35324207
REMARK  7 active torsions:
REMARK  status: ('A' for Active; 'I' for Inactive)
REMARK    1  A    between atoms: C_1  and  C_2
REMARK    2  A    between atoms: C_5  and  O_39
REMARK    3  A    between atoms: C_18  and  C_38
REMARK    4  A    between atoms: C_23  and  C_24
REMARK    5  A    between atoms: C_28  and  O_30
REMARK    6  A    between atoms: O_30  and  C_31
REMARK    7  A    between atoms: C_35  and  O_37
REMARK                            x       y       z     vdW  Elec       q    Type
REMARK                         _______ _______ _______ _____ _____    ______ ____
ROOT
ATOM      1  C   UNL     1       0.009   1.713  -0.096  0.00  0.00    +0.012 C 
ATOM      2  C   UNL     1       0.002   0.190  -0.039  0.00  0.00    -0.026 C 
ATOM      3  C   UNL     1      -1.447  -0.312  -0.011  0.00  0.00    +0.010 C 
ATOM      4  C   UNL     1      -2.156   0.158   1.257  0.00  0.00    +0.032 C 
ATOM      5  C   UNL     1      -1.412  -0.325   2.501  0.00  0.00    +0.115 C 
ATOM      6  C   UNL     1       0.031   0.185   2.474  0.00  0.00    +0.035 C 
ATOM      7  C   UNL     1       0.718  -0.328   1.212  0.00  0.00    -0.002 C 
ATOM      8  C   UNL     1       2.199   0.032   1.213  0.00  0.00    +0.004 C 
ATOM      9  C   UNL     1       2.884  -0.545  -0.037  0.00  0.00    +0.004 C 
ATOM     10  C   UNL     1       2.183   0.037  -1.257  0.00  0.00    -0.003 C 
ATOM     11  C   UNL     1       0.716  -0.402  -1.253  0.00  0.00    -0.001 C 
ATOM     12  C   UNL     1       0.072  -0.042  -2.582  0.00  0.00    +0.005 C 
ATOM     13  C   UNL     1       0.655  -0.914  -3.709  0.00  0.00    +0.010 C 
ATOM     14  C   UNL     1       2.060  -1.349  -3.380  0.00  0.00    +0.001 C 
ATOM     15  C   UNL     1       2.815  -0.271  -2.575  0.00  0.00    +0.005 C 
ATOM     16  C   UNL     1       4.251  -0.798  -2.589  0.00  0.00    +0.037 C 
ATOM     17  C   UNL     1       4.385  -1.498  -3.941  0.00  0.00    -0.040 C 
ATOM     18  C   UNL     1       5.482  -2.045  -4.441  0.00  0.00    +0.010 C 
ATOM     19  C   UNL     1       3.007  -1.443  -4.605  0.00  0.00    +0.147 C 
ATOM     20  C   UNL     1       2.079  -2.721  -2.698  0.00  0.00    +0.014 C 
ENDROOT
BRANCH  18  21
ATOM     21  C   UNL     1       6.702  -2.144  -3.612  0.00  0.00    -0.018 A 
ATOM     22  C   UNL     1       6.598  -2.393  -2.243  0.00  0.00    +0.057 A 
ATOM     23  C   UNL     1       7.740  -2.486  -1.468  0.00  0.00    +0.170 A 
ATOM     24  C   UNL     1       8.994  -2.331  -2.053  0.00  0.00    +0.208 A 
ATOM     25  C   UNL     1       9.099  -2.083  -3.418  0.00  0.00    +0.166 A 
ATOM     26  C   UNL     1       7.959  -1.995  -4.198  0.00  0.00    +0.057 A 
ATOM     27  O   UNL     1       9.947  -2.466  -1.085  0.00  0.00    -0.449 OA
ATOM     28  C   UNL     1       9.252  -2.297   0.165  0.00  0.00    +0.467 C 
ATOM     29  O   UNL     1       7.908  -2.718  -0.132  0.00  0.00    -0.452 OA
BRANCH  25  30
ATOM     30  O   UNL     1      10.325  -1.932  -3.988  0.00  0.00    -0.491 OA
ATOM     31  C   UNL     1      10.359  -1.679  -5.394  0.00  0.00    +0.277 C 
ENDBRANCH  25  30
ENDBRANCH  18  21
BRANCH  19  32
ATOM     32  O   UNL     1       2.882  -0.283  -5.423  0.00  0.00    -0.387 OA
ATOM     33  H   UNL     1       3.452  -0.290  -6.204  0.00  0.00    +0.210 HD
ENDBRANCH  19  32
BRANCH   5  34
ATOM     34  O   UNL     1      -2.068   0.169   3.671  0.00  0.00    -0.392 OA
ATOM     35  H   UNL     1      -2.986  -0.119   3.758  0.00  0.00    +0.210 HD
ENDBRANCH   5  34
TORSDOF 4
