REMARK  Name = ZINC60098786
REMARK  4 active torsions:
REMARK  status: ('A' for Active; 'I' for Inactive)
REMARK    1  A    between atoms: C_1  and  C_2
REMARK    2  A    between atoms: C_7  and  N_12
REMARK    3  A    between atoms: C_9  and  C_11
REMARK    4  A    between atoms: C_13  and  C_15
REMARK                            x       y       z     vdW  Elec       q    Type
REMARK                         _______ _______ _______ _____ _____    ______ ____
ROOT
ATOM      1  N   UNL     1       0.735  -0.503   3.687  0.00  0.00    -0.308 N 
ATOM      2  C   UNL     1       0.634   0.166   4.853  0.00  0.00    +0.247 C 
ATOM      3  O   UNL     1      -0.045   1.173   4.919  0.00  0.00    -0.270 OA
ATOM      4  H   UNL     1       1.276  -1.306   3.634  0.00  0.00    +0.149 HD
ENDROOT
BRANCH   1  10
ATOM      5  C   UNL     1      -0.019   1.526   0.010  0.00  0.00    +0.008 C 
ATOM      6  C   UNL     1       0.002  -0.004   0.002  0.00  0.00    -0.009 C 
ATOM      7  C   UNL     1      -1.433  -0.534   0.013  0.00  0.00    +0.003 C 
ATOM      8  C   UNL     1      -2.149  -0.040   1.272  0.00  0.00    +0.002 C 
ATOM      9  C   UNL     1      -1.409  -0.547   2.511  0.00  0.00    +0.022 C 
ATOM     10  C   UNL     1       0.026  -0.018   2.500  0.00  0.00    +0.076 C 
ATOM     11  C   UNL     1       0.742  -0.511   1.242  0.00  0.00    +0.009 C 
ATOM     12  C   UNL     1       2.178   0.019   1.231  0.00  0.00    +0.009 C 
ENDBRANCH   1  10
BRANCH   2  13
ATOM     13  C   UNL     1       1.348  -0.323   6.049  0.00  0.00    +0.074 A 
ATOM     14  C   UNL     1       2.138  -1.478   5.984  0.00  0.00    +0.019 A 
ATOM     15  C   UNL     1       2.787  -1.894   7.132  0.00  0.00    +0.041 A 
ATOM     16  C   UNL     1       2.637  -1.163   8.300  0.00  0.00    +0.131 A 
ATOM     17  N   UNL     1       1.885  -0.078   8.333  0.00  0.00    -0.223 NA
ATOM     18  C   UNL     1       1.252   0.361   7.263  0.00  0.00    +0.143 A 
ATOM     19 CL   UNL     1       0.284   1.799   7.367  0.00  0.00    -0.061 Cl
ATOM     20 CL   UNL     1       3.450  -1.683   9.743  0.00  0.00    -0.062 Cl
ENDBRANCH   2  13
TORSDOF 2
