REMARK  Name = ZINC36556795
REMARK  19 active torsions:
REMARK  status: ('A' for Active; 'I' for Inactive)
REMARK    1  A    between atoms: C_1  and  C_2
REMARK    2  A    between atoms: C_7  and  C_8
REMARK    3  A    between atoms: C_8  and  C_9
REMARK    4  A    between atoms: N_11  and  C_12
REMARK    5  A    between atoms: N_11  and  C_19
REMARK    6  A    between atoms: C_12  and  C_13
REMARK    7  A    between atoms: C_16  and  C_18
REMARK    8  A    between atoms: C_19  and  C_21
REMARK    9  A    between atoms: C_19  and  C_29
REMARK   10  A    between atoms: C_24  and  O_27
REMARK   11  A    between atoms: O_27  and  C_28
REMARK   12  A    between atoms: N_31  and  C_32
REMARK   13  A    between atoms: C_32  and  C_33
REMARK   14  A    between atoms: C_32  and  C_34
REMARK   15  A    between atoms: C_32  and  C_35
REMARK   16  A    between atoms: C_35  and  C_36
REMARK   17  A    between atoms: C_36  and  C_37
REMARK   18  A    between atoms: C_36  and  C_38
REMARK   19  A    between atoms: C_36  and  C_39
REMARK                            x       y       z     vdW  Elec       q    Type
REMARK                         _______ _______ _______ _____ _____    ______ ____
ROOT
ATOM      1  C   UNL     1      -4.019   1.256   3.715  0.00  0.00    +0.193 C 
ENDROOT
BRANCH   1   2
ATOM      2  C   UNL     1      -4.431   0.341   4.839  0.00  0.00    -0.018 A 
ATOM      3  C   UNL     1      -3.480  -0.149   5.714  0.00  0.00    +0.009 A 
ATOM      4  C   UNL     1      -3.855  -0.988   6.746  0.00  0.00    +0.046 A 
ATOM      5  C   UNL     1      -5.188  -1.340   6.902  0.00  0.00    +0.120 A 
ATOM      6  C   UNL     1      -6.141  -0.847   6.023  0.00  0.00    +0.046 A 
ATOM      7  C   UNL     1      -5.761  -0.004   4.996  0.00  0.00    +0.009 A 
BRANCH   5   8
ATOM      8  O   UNL     1      -5.559  -2.166   7.916  0.00  0.00    -0.495 OA
ATOM      9  C   UNL     1      -6.948  -2.485   8.016  0.00  0.00    +0.277 C 
ENDBRANCH   5   8
ENDBRANCH   1   2
BRANCH   1  10
ATOM     10  C   UNL     1      -3.874   2.661   4.238  0.00  0.00    +0.239 C 
ATOM     11  O   UNL     1      -2.990   3.377   3.817  0.00  0.00    -0.273 OA
ATOM     12  N   UNL     1      -4.727   3.123   5.174  0.00  0.00    -0.308 N 
ATOM     13  H   UNL     1      -5.396   2.532   5.554  0.00  0.00    +0.149 HD
BRANCH  12  14
ATOM     14  C   UNL     1      -4.643   4.516   5.619  0.00  0.00    +0.030 C 
ATOM     15  C   UNL     1      -3.450   4.680   6.562  0.00  0.00    +0.031 C 
ATOM     16  C   UNL     1      -4.462   5.428   4.404  0.00  0.00    +0.031 C 
BRANCH  14  17
ATOM     17  C   UNL     1      -5.930   4.896   6.354  0.00  0.00    +0.031 C 
BRANCH  17  18
ATOM     18  C   UNL     1      -7.132   4.298   5.619  0.00  0.00    -0.036 C 
ATOM     19  C   UNL     1      -7.364   2.865   6.103  0.00  0.00    +0.010 C 
ATOM     20  C   UNL     1      -8.376   5.141   5.907  0.00  0.00    +0.010 C 
ATOM     21  C   UNL     1      -6.858   4.290   4.114  0.00  0.00    +0.010 C 
ENDBRANCH  17  18
ENDBRANCH  14  17
ENDBRANCH  12  14
ENDBRANCH   1  10
BRANCH   1  24
ATOM     22  C   UNL     1      -2.715  -0.122   2.185  0.00  0.00    +0.221 C 
ATOM     23  O   UNL     1      -3.753  -0.583   1.762  0.00  0.00    -0.275 OA
ATOM     24  N   UNL     1      -2.739   0.805   3.163  0.00  0.00    -0.278 N 
BRANCH  22  25
ATOM     25  C   UNL     1      -1.398  -0.585   1.618  0.00  0.00    +0.131 C 
BRANCH  25  32
ATOM     26  C   UNL     1      -1.955   0.252  -1.091  0.00  0.00    +0.044 C 
ATOM     27  C   UNL     1      -1.913  -1.215  -0.749  0.00  0.00    -0.047 A 
ATOM     28  C   UNL     1      -2.135  -2.161  -1.732  0.00  0.00    +0.003 A 
ATOM     29  C   UNL     1      -2.097  -3.507  -1.419  0.00  0.00    +0.000 A 
ATOM     30  C   UNL     1      -1.835  -3.907  -0.121  0.00  0.00    +0.000 A 
ATOM     31  C   UNL     1      -1.612  -2.961   0.862  0.00  0.00    +0.004 A 
ATOM     32  C   UNL     1      -1.646  -1.615   0.547  0.00  0.00    -0.036 A 
ENDBRANCH  25  32
ENDBRANCH  22  25
BRANCH  24  33
ATOM     33  C   UNL     1      -1.484   1.363   3.675  0.00  0.00    +0.183 C 
BRANCH  33  34
ATOM     34  C   UNL     1      -0.903   2.310   2.656  0.00  0.00    +0.122 A 
ATOM     35  C   UNL     1      -0.857   3.650   2.764  0.00  0.00    +0.046 A 
ATOM     36  C   UNL     1      -0.234   4.135   1.592  0.00  0.00    +0.045 A 
ATOM     37  C   UNL     1       0.064   3.062   0.837  0.00  0.00    +0.102 A 
ATOM     38  O   UNL     1      -0.339   1.959   1.489  0.00  0.00    -0.463 OA
ATOM     39  C   UNL     1       0.740   3.092  -0.510  0.00  0.00    +0.086 C 
ENDBRANCH  33  34
ENDBRANCH  24  33
ENDBRANCH   1  24
TORSDOF 11
