REMARK  Name = ZINC56964133
REMARK  9 active torsions:
REMARK  status: ('A' for Active; 'I' for Inactive)
REMARK    1  A    between atoms: C_1  and  N_2
REMARK    2  A    between atoms: N_2  and  C_3
REMARK    3  A    between atoms: C_3  and  C_4
REMARK    4  A    between atoms: C_9  and  O_10
REMARK    5  A    between atoms: N_13  and  C_14
REMARK    6  A    between atoms: C_14  and  C_15
REMARK    7  A    between atoms: C_15  and  C_21
REMARK    8  A    between atoms: C_24  and  O_27
REMARK    9  A    between atoms: O_27  and  C_28
REMARK                            x       y       z     vdW  Elec       q    Type
REMARK                         _______ _______ _______ _____ _____    ______ ____
ROOT
ATOM      1  C   UNL     1       3.418  -3.173  -4.432  0.00  0.00    +0.134 C 
ATOM      2  N   UNL     1       2.540  -3.436  -3.290  0.00  0.00    -0.284 N 
ATOM      3  C   UNL     1       1.463  -2.655  -3.073  0.00  0.00    +0.302 C 
ATOM      4  O   UNL     1       0.735  -2.873  -2.125  0.00  0.00    -0.253 OA
ATOM      5  N   UNL     1       1.195  -1.631  -3.908  0.00  0.00    -0.298 N 
ATOM      6  H   UNL     1       1.776  -1.458  -4.665  0.00  0.00    +0.150 HD
ENDROOT
BRANCH   2   7
ATOM      7  C   UNL     1       2.832  -4.548  -2.382  0.00  0.00    +0.147 C 
BRANCH   7   8
ATOM      8  C   UNL     1       3.721  -4.065  -1.265  0.00  0.00    +0.011 A 
ATOM      9  C   UNL     1       5.082  -4.302  -1.314  0.00  0.00    +0.009 A 
ATOM     10  C   UNL     1       5.898  -3.859  -0.289  0.00  0.00    +0.001 A 
ATOM     11  C   UNL     1       5.356  -3.178   0.785  0.00  0.00    +0.004 A 
ATOM     12  C   UNL     1       3.997  -2.939   0.838  0.00  0.00    +0.046 A 
ATOM     13  C   UNL     1       3.176  -3.377  -0.191  0.00  0.00    +0.122 A 
BRANCH  13  14
ATOM     14  O   UNL     1       1.839  -3.138  -0.144  0.00  0.00    -0.506 OA
ATOM     15  H   UNL     1       1.330  -3.833   0.296  0.00  0.00    +0.292 HD
ENDBRANCH  13  14
ENDBRANCH   7   8
ENDBRANCH   2   7
BRANCH   5  16
ATOM     16  C   UNL     1       0.024  -0.782  -3.673  0.00  0.00    +0.117 C 
BRANCH  16  17
ATOM     17  C   UNL     1       0.014   0.364  -4.687  0.00  0.00    +0.015 C 
ATOM     18  C   UNL     1      -1.186   1.276  -4.417  0.00  0.00    +0.041 C 
ATOM     19  C   UNL     1      -2.478   0.481  -4.619  0.00  0.00    +0.160 C 
ATOM     20  O   UNL     1      -2.508  -0.048  -5.946  0.00  0.00    -0.380 OA
ATOM     21  C   UNL     1      -1.436  -0.945  -6.241  0.00  0.00    +0.160 C 
ATOM     22  C   UNL     1      -0.102  -0.207  -6.104  0.00  0.00    +0.041 C 
BRANCH  17  23
ATOM     23  C   UNL     1       1.290   1.156  -4.565  0.00  0.00    -0.039 A 
ATOM     24  C   UNL     1       2.129   1.285  -5.657  0.00  0.00    +0.008 A 
ATOM     25  C   UNL     1       3.300   2.011  -5.548  0.00  0.00    +0.046 A 
ATOM     26  C   UNL     1       3.632   2.611  -4.342  0.00  0.00    +0.120 A 
ATOM     27  C   UNL     1       2.788   2.481  -3.248  0.00  0.00    +0.046 A 
ATOM     28  C   UNL     1       1.617   1.758  -3.364  0.00  0.00    +0.008 A 
BRANCH  26  29
ATOM     29  O   UNL     1       4.783   3.325  -4.232  0.00  0.00    -0.495 OA
ATOM     30  C   UNL     1       5.062   3.915  -2.960  0.00  0.00    +0.277 C 
ENDBRANCH  26  29
ENDBRANCH  17  23
ENDBRANCH  16  17
ENDBRANCH   5  16
TORSDOF 7
