REMARK  Name = ZINC02807191
REMARK  14 active torsions:
REMARK  status: ('A' for Active; 'I' for Inactive)
REMARK    1  A    between atoms: C_1  and  C_2
REMARK    2  A    between atoms: C_3  and  C_26
REMARK    3  A    between atoms: C_15  and  C_19
REMARK    4  A    between atoms: C_16  and  N_18
REMARK    5  A    between atoms: C_19  and  O_21
REMARK    6  A    between atoms: O_21  and  C_22
REMARK    7  A    between atoms: C_22  and  C_23
REMARK    8  A    between atoms: C_23  and  O_24
REMARK    9  A    between atoms: O_24  and  C_25
REMARK   10  A    between atoms: C_26  and  O_28
REMARK   11  A    between atoms: O_28  and  C_29
REMARK   12  A    between atoms: C_29  and  C_30
REMARK   13  A    between atoms: C_29  and  C_31
REMARK   14  A    between atoms: C_29  and  C_32
REMARK                            x       y       z     vdW  Elec       q    Type
REMARK                         _______ _______ _______ _____ _____    ______ ____
ROOT
ATOM      1  C   UNL     1       3.910   2.139   2.647  0.00  0.00    +0.087 C 
ATOM      2  C   UNL     1       3.285   1.350   3.768  0.00  0.00    +0.116 C 
ATOM      3  C   UNL     1       1.962   1.134   3.750  0.00  0.00    +0.098 C 
ATOM      4  C   UNL     1       1.295   0.357   4.847  0.00  0.00    +0.145 C 
ATOM      5  C   UNL     1       0.519   1.281   5.752  0.00  0.00    -0.001 A 
ATOM      6  C   UNL     1       0.885   2.339   6.553  0.00  0.00    +0.022 A 
ATOM      7  C   UNL     1      -0.074   3.014   7.287  0.00  0.00    +0.018 A 
ATOM      8  C   UNL     1      -1.399   2.622   7.214  0.00  0.00    +0.017 A 
ATOM      9  C   UNL     1      -1.769   1.562   6.413  0.00  0.00    +0.025 A 
ATOM     10  C   UNL     1      -0.809   0.878   5.670  0.00  0.00    +0.038 A 
ATOM     11  N   UNL     1      -0.931  -0.208   4.800  0.00  0.00    -0.284 N 
ATOM     12  C   UNL     1       0.253  -0.575   4.276  0.00  0.00    +0.237 C 
ATOM     13  O   UNL     1       0.446  -1.481   3.494  0.00  0.00    -0.274 OA
ATOM     14 BR   UNL     1       0.424   4.469   8.388  0.00  0.00    -0.050 Br
ATOM     15  C   UNL     1       2.315  -0.421   5.632  0.00  0.00    +0.117 C 
ATOM     16  C   UNL     1       3.635  -0.110   5.539  0.00  0.00    +0.195 C 
ATOM     17  O   UNL     1       4.071   0.887   4.752  0.00  0.00    -0.446 OA
ATOM     18  H   UNL     1      -1.918  -0.657   4.616  0.00  0.00    +0.155 HD
ENDROOT
BRANCH  16  19
ATOM     19  N   UNL     1       4.544  -0.832   6.265  0.00  0.00    -0.329 N 
ATOM     20  H   UNL     1       5.615  -0.593   6.200  0.00  0.00    +0.145 HD
ATOM     21  H   UNL     1       4.202  -1.652   6.914  0.00  0.00    +0.145 HD
ENDBRANCH  16  19
BRANCH  15  22
ATOM     22  C   UNL     1       1.902  -1.468   6.470  0.00  0.00    +0.342 C 
ATOM     23  O   UNL     1       1.419  -1.222   7.560  0.00  0.00    -0.245 OA
BRANCH  22  24
ATOM     24  O   UNL     1       2.040  -2.750   6.066  0.00  0.00    -0.459 OA
BRANCH  24  25
ATOM     25  C   UNL     1       1.598  -3.766   6.969  0.00  0.00    +0.260 C 
BRANCH  25  26
ATOM     26  C   UNL     1       1.833  -5.142   6.343  0.00  0.00    +0.200 C 
BRANCH  26  27
ATOM     27  O   UNL     1       3.236  -5.360   6.185  0.00  0.00    -0.380 OA
ATOM     28  C   UNL     1       3.567  -6.624   5.606  0.00  0.00    +0.194 C 
ENDBRANCH  26  27
ENDBRANCH  25  26
ENDBRANCH  24  25
ENDBRANCH  22  24
ENDBRANCH  15  22
BRANCH   3  29
ATOM     29  C   UNL     1       1.183   1.651   2.685  0.00  0.00    +0.341 C 
ATOM     30  O   UNL     1       0.559   2.685   2.834  0.00  0.00    -0.245 OA
BRANCH  29  31
ATOM     31  O   UNL     1       1.134   0.997   1.506  0.00  0.00    -0.456 OA
BRANCH  31  32
ATOM     32  C   UNL     1       0.329   1.575   0.477  0.00  0.00    +0.106 C 
ATOM     33  C   UNL     1       0.850   2.976   0.148  0.00  0.00    +0.055 C 
ATOM     34  C   UNL     1      -1.121   1.670   0.956  0.00  0.00    +0.055 C 
ATOM     35  C   UNL     1       0.396   0.699  -0.776  0.00  0.00    +0.055 C 
ENDBRANCH  31  32
ENDBRANCH  29  31
ENDBRANCH   3  29
TORSDOF 9
