REMARK  Name = ZINC16460957
REMARK  12 active torsions:
REMARK  status: ('A' for Active; 'I' for Inactive)
REMARK    1  A    between atoms: C_1  and  C_2
REMARK    2  A    between atoms: C_2  and  C_4
REMARK    3  A    between atoms: C_2  and  N_7
REMARK    4  A    between atoms: C_4  and  C_5
REMARK    5  A    between atoms: C_4  and  C_6
REMARK    6  A    between atoms: C_8  and  C_10
REMARK    7  A    between atoms: C_13  and  C_15
REMARK    8  A    between atoms: C_15  and  S_16
REMARK    9  A    between atoms: S_16  and  C_17
REMARK   10  A    between atoms: C_20  and  C_29
REMARK   11  A    between atoms: N_21  and  C_22
REMARK   12  A    between atoms: C_29  and  C_30
REMARK                            x       y       z     vdW  Elec       q    Type
REMARK                         _______ _______ _______ _____ _____    ______ ____
ROOT
ATOM      1  C   UNL     1      -8.044  -2.171   3.102  0.00  0.00    +0.197 A 
ATOM      2  N   UNL     1      -8.217  -3.384   3.575  0.00  0.00    -0.122 NA
ATOM      3  N   UNL     1      -9.059  -3.359   4.545  0.00  0.00    -0.133 NA
ATOM      4  C   UNL     1      -9.472  -2.140   4.751  0.00  0.00    +0.143 A 
ATOM      5  N   UNL     1      -8.836  -1.336   3.842  0.00  0.00    -0.274 N 
ENDROOT
BRANCH   5   6
ATOM      6  C   UNL     1      -8.971   0.052   3.699  0.00  0.00    +0.052 A 
ATOM      7  C   UNL     1      -8.510   0.902   4.696  0.00  0.00    +0.026 A 
ATOM      8  C   UNL     1      -8.644   2.269   4.552  0.00  0.00    +0.003 A 
ATOM      9  C   UNL     1      -9.236   2.793   3.418  0.00  0.00    +0.020 A 
ATOM     10  C   UNL     1      -9.696   1.949   2.422  0.00  0.00    +0.043 A 
ATOM     11  C   UNL     1      -9.559   0.579   2.558  0.00  0.00    +0.046 A 
ATOM     12 CL   UNL     1     -10.439   2.609   1.000  0.00  0.00    -0.083 Cl
ENDBRANCH   5   6
BRANCH   1  13
ATOM     13  S   UNL     1      -6.986  -1.706   1.772  0.00  0.00    -0.079 S 
BRANCH  13  14
ATOM     14  C   UNL     1      -6.237  -3.270   1.240  0.00  0.00    +0.140 C 
BRANCH  14  18
ATOM     15  C   UNL     1      -3.371  -2.534  -1.010  0.00  0.00    +0.133 A 
ATOM     16  C   UNL     1      -4.117  -2.651  -2.153  0.00  0.00    +0.080 A 
ATOM     17  S   UNL     1      -5.643  -3.017  -1.552  0.00  0.00    -0.079 S 
ATOM     18  C   UNL     1      -5.297  -3.011   0.090  0.00  0.00    +0.089 A 
ATOM     19  N   UNL     1      -4.022  -2.735   0.140  0.00  0.00    -0.239 NA
BRANCH  15  21
ATOM     20  N   UNL     1      -1.237  -2.112   0.102  0.00  0.00    -0.307 N 
ATOM     21  C   UNL     1      -1.935  -2.212  -1.047  0.00  0.00    +0.263 C 
ATOM     22  O   UNL     1      -1.378  -2.038  -2.114  0.00  0.00    -0.269 OA
ATOM     23  H   UNL     1      -1.681  -2.252   0.953  0.00  0.00    +0.149 HD
BRANCH  20  25
ATOM     24  C   UNL     1       0.373  -0.275  -0.006  0.00  0.00    +0.028 C 
ATOM     25  C   UNL     1       0.192  -1.792   0.065  0.00  0.00    +0.073 C 
BRANCH  25  26
ATOM     26  C   UNL     1       0.867  -2.328   1.329  0.00  0.00    +0.003 C 
ATOM     27  C   UNL     1       0.686  -3.845   1.401  0.00  0.00    +0.009 C 
ATOM     28  C   UNL     1       2.360  -1.993   1.291  0.00  0.00    +0.009 C 
ENDBRANCH  25  26
ENDBRANCH  20  25
ENDBRANCH  15  21
ENDBRANCH  14  18
ENDBRANCH  13  14
ENDBRANCH   1  13
BRANCH   4  29
ATOM     29  C   UNL     1     -10.462  -1.697   5.797  0.00  0.00    +0.111 C 
BRANCH  29  30
ATOM     30  C   UNL     1     -11.863  -1.869   5.269  0.00  0.00    -0.040 A 
ATOM     31  C   UNL     1     -12.512  -0.803   4.673  0.00  0.00    +0.004 A 
ATOM     32  C   UNL     1     -13.797  -0.961   4.189  0.00  0.00    +0.000 A 
ATOM     33  C   UNL     1     -14.432  -2.184   4.300  0.00  0.00    +0.000 A 
ATOM     34  C   UNL     1     -13.783  -3.249   4.895  0.00  0.00    +0.000 A 
ATOM     35  C   UNL     1     -12.496  -3.093   5.375  0.00  0.00    +0.004 A 
ENDBRANCH  29  30
ENDBRANCH   4  29
TORSDOF 9
