REMARK  Name = ZINC06667771
REMARK  2 active torsions:
REMARK  status: ('A' for Active; 'I' for Inactive)
REMARK    1  A    between atoms: C_6  and  C_7
REMARK    2  A    between atoms: C_19  and  C_21
REMARK                            x       y       z     vdW  Elec       q    Type
REMARK                         _______ _______ _______ _____ _____    ______ ____
ROOT
ATOM      1  C   UNL     1      -1.293  -0.775   0.010  0.00  0.00    +0.083 C 
ATOM      2  C   UNL     1      -1.349  -1.653   1.234  0.00  0.00    +0.061 C 
ATOM      3  C   UNL     1      -1.963  -1.209   2.372  0.00  0.00    +0.250 C 
ATOM      4  O   UNL     1      -2.540   0.010   2.407  0.00  0.00    -0.270 OA
ATOM      5  N   UNL     1      -1.985  -2.024   3.482  0.00  0.00    -0.254 N 
ATOM      6  C   UNL     1      -1.784  -3.383   3.276  0.00  0.00    +0.185 C 
ATOM      7  N   UNL     1      -0.815  -3.713   2.333  0.00  0.00    -0.274 N 
ATOM      8  C   UNL     1      -0.777  -2.930   1.194  0.00  0.00    +0.126 C 
ATOM      9  N   UNL     1      -0.221  -3.393   0.078  0.00  0.00    -0.164 NA
ATOM     10  C   UNL     1      -0.438  -2.826  -1.096  0.00  0.00    +0.256 C 
ATOM     11  O   UNL     1       0.129  -3.260  -2.081  0.00  0.00    -0.272 OA
ATOM     12  C   UNL     1      -1.374  -1.653  -1.241  0.00  0.00    +0.191 C 
ATOM     13  N   UNL     1      -2.458  -4.291   3.924  0.00  0.00    -0.272 NA
ATOM     14  H   UNL     1      -2.292  -5.231   3.755  0.00  0.00    +0.189 HD
ATOM     15  H   UNL     1      -0.200  -4.452   2.468  0.00  0.00    +0.156 HD
ATOM     16  H   UNL     1      -2.134  -1.664   4.370  0.00  0.00    +0.158 HD
ENDROOT
BRANCH   1  22
ATOM     17  C   UNL     1      -0.017   1.378   0.010  0.00  0.00    +0.007 A 
ATOM     18  C   UNL     1       1.170   2.086   0.002  0.00  0.00    +0.038 A 
ATOM     19  C   UNL     1       2.379   1.410  -0.013  0.00  0.00    +0.123 A 
ATOM     20  C   UNL     1       2.396   0.026  -0.021  0.00  0.00    +0.038 A 
ATOM     21  C   UNL     1       1.208  -0.680  -0.013  0.00  0.00    +0.007 A 
ATOM     22  C   UNL     1       0.002  -0.004   0.002  0.00  0.00    -0.038 A 
ATOM     23  F   UNL     1       3.540   2.101  -0.021  0.00  0.00    -0.205 F 
ENDBRANCH   1  22
BRANCH  12  24
ATOM     24  C   UNL     1      -2.752  -2.144  -1.406  0.00  0.00    +0.076 C 
ATOM     25  N   UNL     1      -3.816  -2.522  -1.533  0.00  0.00    -0.196 NA
ENDBRANCH  12  24
TORSDOF 2
