REMARK  Name = ZINC09331923
REMARK  2 active torsions:
REMARK  status: ('A' for Active; 'I' for Inactive)
REMARK    1  A    between atoms: C_6  and  C_7
REMARK    2  A    between atoms: C_12  and  C_20
REMARK                            x       y       z     vdW  Elec       q    Type
REMARK                         _______ _______ _______ _____ _____    ______ ____
ROOT
ATOM      1  C   UNL     1      -1.293  -0.775   0.010  0.00  0.00    +0.032 C 
ATOM      2  C   UNL     1      -1.350  -1.674   1.247  0.00  0.00    +0.060 C 
ATOM      3  C   UNL     1      -2.628  -2.478   1.232  0.00  0.00    +0.020 C 
ATOM      4  C   UNL     1      -3.203  -2.846   0.067  0.00  0.00    +0.041 C 
ATOM      5  C   UNL     1      -4.483  -3.651   0.020  0.00  0.00    +0.175 C 
ATOM      6  N   UNL     1      -4.770  -4.209   1.335  0.00  0.00    -0.221 N 
ATOM      7  C   UNL     1      -4.147  -3.804   2.470  0.00  0.00    +0.218 A 
ATOM      8  N   UNL     1      -4.635  -4.492   3.465  0.00  0.00    -0.201 NA
ATOM      9  C   UNL     1      -5.560  -5.343   3.010  0.00  0.00    +0.247 A 
ATOM     10  N   UNL     1      -5.672  -5.203   1.712  0.00  0.00    -0.156 NA
ATOM     11  N   UNL     1      -3.171  -2.822   2.447  0.00  0.00    -0.287 N 
ATOM     12  C   UNL     1      -2.628  -2.489  -1.166  0.00  0.00    +0.164 C 
ATOM     13  O   UNL     1      -3.157  -2.854  -2.197  0.00  0.00    -0.292 OA
ATOM     14  C   UNL     1      -1.374  -1.662  -1.236  0.00  0.00    +0.088 C 
ATOM     15  H   UNL     1      -2.878  -2.389   3.265  0.00  0.00    +0.155 HD
ENDROOT
BRANCH   1  21
ATOM     16  C   UNL     1      -0.017   1.378   0.010  0.00  0.00    +0.007 A 
ATOM     17  C   UNL     1       1.170   2.086   0.002  0.00  0.00    +0.038 A 
ATOM     18  C   UNL     1       2.379   1.410  -0.013  0.00  0.00    +0.123 A 
ATOM     19  C   UNL     1       2.396   0.026  -0.021  0.00  0.00    +0.038 A 
ATOM     20  C   UNL     1       1.208  -0.680  -0.013  0.00  0.00    +0.007 A 
ATOM     21  C   UNL     1       0.002  -0.004   0.002  0.00  0.00    -0.043 A 
ATOM     22  F   UNL     1       3.540   2.101  -0.021  0.00  0.00    -0.205 F 
ENDBRANCH   1  21
BRANCH   5  23
ATOM     23  C   UNL     1      -5.621  -2.756  -0.399  0.00  0.00    -0.018 A 
ATOM     24  C   UNL     1      -5.943  -1.646   0.360  0.00  0.00    +0.007 A 
ATOM     25  C   UNL     1      -6.987  -0.825  -0.024  0.00  0.00    +0.020 A 
ATOM     26  C   UNL     1      -7.708  -1.113  -1.169  0.00  0.00    +0.041 A 
ATOM     27  C   UNL     1      -7.385  -2.224  -1.928  0.00  0.00    +0.020 A 
ATOM     28  C   UNL     1      -6.338  -3.041  -1.546  0.00  0.00    +0.007 A 
ATOM     29 CL   UNL     1      -9.019  -0.083  -1.651  0.00  0.00    -0.084 Cl
ENDBRANCH   5  23
TORSDOF 2
