REMARK  Name = ZINC12422333
REMARK  4 active torsions:
REMARK  status: ('A' for Active; 'I' for Inactive)
REMARK    1  A    between atoms: C_1  and  C_2
REMARK    2  A    between atoms: C_4  and  C_7
REMARK    3  A    between atoms: N_9  and  C_10
REMARK    4  A    between atoms: C_10  and  C_11
REMARK                            x       y       z     vdW  Elec       q    Type
REMARK                         _______ _______ _______ _____ _____    ______ ____
ROOT
ATOM      1  C   UNL     1       4.012   3.191   1.655  0.00  0.00    +0.290 C 
ATOM      2  O   UNL     1       5.150   3.614   1.606  0.00  0.00    -0.266 OA
ATOM      3  N   UNL     1       3.099   3.606   0.753  0.00  0.00    -0.241 N 
ATOM      4  C   UNL     1       3.482   4.432  -0.289  0.00  0.00    +0.169 A 
ATOM      5  N   UNL     1       4.672   4.912  -0.565  0.00  0.00    -0.221 NA
ATOM      6  C   UNL     1       4.903   5.716  -1.627  0.00  0.00    +0.116 A 
ATOM      7  C   UNL     1       6.129   6.297  -2.033  0.00  0.00    +0.152 A 
ATOM      8  C   UNL     1       6.191   7.095  -3.147  0.00  0.00    +0.079 A 
ATOM      9  C   UNL     1       5.062   7.362  -3.912  0.00  0.00    +0.127 A 
ATOM     10  C   UNL     1       3.847   6.811  -3.542  0.00  0.00    +0.055 A 
ATOM     11  C   UNL     1       3.777   6.010  -2.428  0.00  0.00    +0.046 A 
ATOM     12  S   UNL     1       2.483   5.110  -1.607  0.00  0.00    -0.052 S 
ATOM     13  F   UNL     1       5.149   8.152  -5.004  0.00  0.00    -0.205 F 
ATOM     14  F   UNL     1       7.249   6.062  -1.316  0.00  0.00    -0.203 F 
ENDROOT
BRANCH   1  18
ATOM     15  C   UNL     1       3.913   0.097   5.667  0.00  0.00    +0.069 C 
ATOM     16  C   UNL     1       3.566   0.881   4.428  0.00  0.00    +0.081 A 
ATOM     17  C   UNL     1       4.406   1.781   3.735  0.00  0.00    +0.080 A 
ATOM     18  C   UNL     1       3.629   2.223   2.699  0.00  0.00    +0.222 A 
ATOM     19  O   UNL     1       2.446   1.592   2.824  0.00  0.00    -0.350 OA
ATOM     20  N   UNL     1       2.435   0.858   3.784  0.00  0.00    -0.083 NA
ENDBRANCH   1  18
BRANCH   3  21
ATOM     21  C   UNL     1       1.702   3.182   0.877  0.00  0.00    +0.147 C 
BRANCH  21  22
ATOM     22  C   UNL     1       1.459   1.961  -0.011  0.00  0.00    +0.136 C 
ATOM     23  C   UNL     1      -0.036   1.572   0.006  0.00  0.00    +0.035 C 
ATOM     24  C   UNL     1      -0.023   0.028  -0.027  0.00  0.00    +0.031 C 
ATOM     25  C   UNL     1       1.478  -0.334  -0.060  0.00  0.00    +0.160 C 
ATOM     26  O   UNL     1       2.146   0.807   0.520  0.00  0.00    -0.375 OA
ENDBRANCH  21  22
ENDBRANCH   3  21
TORSDOF 3
