REMARK  Name = ZINC49590029
REMARK  11 active torsions:
REMARK  status: ('A' for Active; 'I' for Inactive)
REMARK    1  A    between atoms: C_1  and  O_2
REMARK    2  A    between atoms: O_2  and  C_3
REMARK    3  A    between atoms: C_6  and  C_27
REMARK    4  A    between atoms: C_8  and  C_25
REMARK    5  A    between atoms: C_9  and  S_13
REMARK    6  A    between atoms: S_13  and  C_14
REMARK    7  A    between atoms: C_14  and  C_15
REMARK    8  A    between atoms: C_15  and  O_17
REMARK    9  A    between atoms: O_17  and  C_18
REMARK   10  A    between atoms: C_18  and  C_19
REMARK   11  A    between atoms: C_32  and  N_33
REMARK                            x       y       z     vdW  Elec       q    Type
REMARK                         _______ _______ _______ _____ _____    ______ ____
ROOT
ATOM      1  C   UNL     1       2.274   0.429  -0.024  0.00  0.00    +0.341 C 
ATOM      2  O   UNL     1       2.803   1.016   1.070  0.00  0.00    -0.245 OA
ATOM      3  C   UNL     1       1.755  -0.822   0.061  0.00  0.00    +0.109 C 
ATOM      4  C   UNL     1       1.758  -1.563   1.376  0.00  0.00    +0.086 C 
ATOM      5  C   UNL     1       0.496  -2.424   1.463  0.00  0.00    +0.156 C 
ATOM      6  C   UNL     1       0.298  -3.173   0.173  0.00  0.00    +0.085 C 
ATOM      7  N   UNL     1       0.626  -2.655  -0.978  0.00  0.00    -0.173 NA
ATOM      8  C   UNL     1       1.199  -1.444  -1.078  0.00  0.00    +0.271 C 
ATOM      9  O   UNL     1       1.243  -0.882  -2.160  0.00  0.00    -0.268 OA
ENDROOT
BRANCH   4  10
ATOM     10  C   UNL     1       2.979  -2.444   1.456  0.00  0.00    -0.008 A 
ATOM     11  C   UNL     1       3.253  -3.338   0.438  0.00  0.00    +0.006 A 
ATOM     12  C   UNL     1       4.372  -4.146   0.510  0.00  0.00    +0.000 A 
ATOM     13  C   UNL     1       5.218  -4.059   1.601  0.00  0.00    +0.002 A 
ATOM     14  C   UNL     1       4.944  -3.165   2.618  0.00  0.00    +0.033 A 
ATOM     15  C   UNL     1       3.826  -2.354   2.543  0.00  0.00    +0.130 A 
BRANCH  15  16
ATOM     16  N   UNL     1       3.535  -1.392   3.631  0.00  0.00    +0.057 N 
ATOM     17  O   UNL     1       4.438  -0.786   4.159  0.00  0.00    -0.126 OA
ATOM     18  O   UNL     1       2.395  -1.213   3.990  0.00  0.00    -0.126 OA
ENDBRANCH  15  16
ENDBRANCH   4  10
BRANCH   1  20
ATOM     19  C   UNL     1       2.824   2.400  -1.219  0.00  0.00    +0.280 C 
ATOM     20  O   UNL     1       2.261   1.087  -1.202  0.00  0.00    -0.465 OA
ENDBRANCH   1  20
BRANCH   5  21
ATOM     21  C   UNL     1       0.633  -3.385   2.570  0.00  0.00    +0.073 C 
ATOM     22  N   UNL     1       0.740  -4.126   3.424  0.00  0.00    -0.196 NA
ENDBRANCH   5  21
BRANCH   6  23
ATOM     23  S   UNL     1      -0.353  -4.699   0.216  0.00  0.00    -0.100 S 
BRANCH  23  24
ATOM     24  C   UNL     1      -0.405  -5.203  -1.526  0.00  0.00    +0.195 C 
BRANCH  24  25
ATOM     25  C   UNL     1      -0.984  -6.590  -1.630  0.00  0.00    +0.318 C 
ATOM     26  O   UNL     1      -1.327  -7.179  -0.632  0.00  0.00    -0.250 OA
BRANCH  25  27
ATOM     27  O   UNL     1      -1.119  -7.173  -2.832  0.00  0.00    -0.459 OA
BRANCH  27  28
ATOM     28  C   UNL     1      -1.676  -8.489  -2.856  0.00  0.00    +0.267 C 
BRANCH  28  29
ATOM     29  C   UNL     1      -1.750  -8.977  -4.280  0.00  0.00    -0.010 A 
ATOM     30  C   UNL     1      -2.880  -8.729  -5.038  0.00  0.00    +0.007 A 
ATOM     31  C   UNL     1      -2.947  -9.177  -6.344  0.00  0.00    +0.000 A 
ATOM     32  C   UNL     1      -1.886  -9.871  -6.893  0.00  0.00    +0.000 A 
ATOM     33  C   UNL     1      -0.756 -10.118  -6.136  0.00  0.00    +0.000 A 
ATOM     34  C   UNL     1      -0.686  -9.666  -4.831  0.00  0.00    +0.007 A 
ENDBRANCH  28  29
ENDBRANCH  27  28
ENDBRANCH  25  27
ENDBRANCH  24  25
ENDBRANCH  23  24
ENDBRANCH   6  23
TORSDOF 10
