REMARK  Name = ZINC00918223
REMARK  9 active torsions:
REMARK  status: ('A' for Active; 'I' for Inactive)
REMARK    1  A    between atoms: C_1  and  O_2
REMARK    2  A    between atoms: O_2  and  C_3
REMARK    3  A    between atoms: C_10  and  C_15
REMARK    4  A    between atoms: C_15  and  N_16
REMARK    5  A    between atoms: N_16  and  C_17
REMARK    6  A    between atoms: N_16  and  S_27
REMARK    7  A    between atoms: C_17  and  C_18
REMARK    8  A    between atoms: S_27  and  C_30
REMARK    9  A    between atoms: C_34  and  C_36
REMARK                            x       y       z     vdW  Elec       q    Type
REMARK                         _______ _______ _______ _____ _____    ______ ____
ROOT
ATOM      1  N   UNL     1      -0.929   2.078  -1.175  0.00  0.00    -0.168 NA
ENDROOT
BRANCH   1   2
ATOM      2  S   UNL     1      -0.342   1.802   0.349  0.00  0.00    +0.061 S 
ATOM      3  O   UNL     1      -0.499   0.412   0.599  0.00  0.00    -0.153 OA
ATOM      4  O   UNL     1       0.919   2.451   0.422  0.00  0.00    -0.153 OA
BRANCH   2   5
ATOM      5  C   UNL     1      -1.406   2.639   1.476  0.00  0.00    +0.106 A 
ATOM      6  C   UNL     1      -1.218   3.984   1.735  0.00  0.00    +0.028 A 
ATOM      7  C   UNL     1      -2.055   4.642   2.616  0.00  0.00    +0.002 A 
ATOM      8  C   UNL     1      -3.074   3.953   3.247  0.00  0.00    +0.012 A 
ATOM      9  C   UNL     1      -3.259   2.607   2.992  0.00  0.00    +0.057 A 
ATOM     10  C   UNL     1      -2.425   1.950   2.107  0.00  0.00    +0.041 A 
BRANCH   9  11
ATOM     11  C   UNL     1      -4.370   1.856   3.679  0.00  0.00    +0.417 C 
ATOM     12  F   UNL     1      -3.898   1.324   4.884  0.00  0.00    -0.166 F 
ATOM     13  F   UNL     1      -5.432   2.728   3.939  0.00  0.00    -0.166 F 
ATOM     14  F   UNL     1      -4.812   0.817   2.852  0.00  0.00    -0.166 F 
ENDBRANCH   9  11
ENDBRANCH   2   5
ENDBRANCH   1   2
BRANCH   1  15
ATOM     15  C   UNL     1      -0.342   3.131  -2.007  0.00  0.00    +0.150 C 
BRANCH  15  23
ATOM     16  C   UNL     1       2.149   0.647  -7.111  0.00  0.00    +0.121 A 
ATOM     17  C   UNL     1       3.433   0.496  -6.593  0.00  0.00    +0.047 A 
ATOM     18  C   UNL     1       3.720   0.884  -5.303  0.00  0.00    +0.030 A 
ATOM     19  C   UNL     1       2.721   1.432  -4.504  0.00  0.00    +0.049 A 
ATOM     20  C   UNL     1       1.422   1.586  -5.024  0.00  0.00    +0.002 A 
ATOM     21  C   UNL     1       1.144   1.188  -6.336  0.00  0.00    +0.055 A 
ATOM     22  C   UNL     1       0.381   2.164  -4.172  0.00  0.00    +0.020 A 
ATOM     23  C   UNL     1       0.707   2.532  -2.909  0.00  0.00    +0.033 A 
ATOM     24  C   UNL     1       2.026   2.362  -2.437  0.00  0.00    +0.254 A 
ATOM     25  O   UNL     1       2.299   2.705  -1.300  0.00  0.00    -0.268 OA
ATOM     26  N   UNL     1       2.988   1.827  -3.209  0.00  0.00    -0.322 N 
ATOM     27  H   UNL     1       3.910   1.714  -2.839  0.00  0.00    +0.169 HD
BRANCH  16  29
ATOM     28  C   UNL     1       2.969  -0.294  -9.135  0.00  0.00    +0.277 C 
ATOM     29  O   UNL     1       1.884   0.258  -8.387  0.00  0.00    -0.495 OA
ENDBRANCH  16  29
ENDBRANCH  15  23
ENDBRANCH   1  15
BRANCH   1  30
ATOM     30  C   UNL     1      -2.036   1.269  -1.691  0.00  0.00    +0.145 C 
BRANCH  30  31
ATOM     31  C   UNL     1      -3.325   2.038  -1.558  0.00  0.00    -0.028 A 
ATOM     32  C   UNL     1      -4.146   1.825  -0.467  0.00  0.00    +0.009 A 
ATOM     33  C   UNL     1      -5.327   2.532  -0.337  0.00  0.00    +0.050 A 
ATOM     34  C   UNL     1      -5.696   3.448  -1.308  0.00  0.00    +0.166 A 
ATOM     35  C   UNL     1      -4.872   3.659  -2.411  0.00  0.00    +0.167 A 
ATOM     36  C   UNL     1      -3.687   2.951  -2.531  0.00  0.00    +0.054 A 
ATOM     37  O   UNL     1      -5.450   4.599  -3.214  0.00  0.00    -0.453 OA
ATOM     38  C   UNL     1      -6.828   4.663  -2.802  0.00  0.00    +0.466 C 
ATOM     39  O   UNL     1      -6.791   4.256  -1.421  0.00  0.00    -0.453 OA
ENDBRANCH  30  31
ENDBRANCH   1  30
TORSDOF 8
