REMARK  Name = ZINC14475855
REMARK  9 active torsions:
REMARK  status: ('A' for Active; 'I' for Inactive)
REMARK    1  A    between atoms: C_1  and  C_2
REMARK    2  A    between atoms: C_2  and  N_3
REMARK    3  A    between atoms: N_3  and  C_4
REMARK    4  A    between atoms: N_3  and  S_6
REMARK    5  A    between atoms: C_4  and  C_5
REMARK    6  A    between atoms: S_6  and  C_9
REMARK    7  A    between atoms: C_22  and  C_25
REMARK    8  A    between atoms: C_27  and  N_32
REMARK    9  A    between atoms: C_30  and  O_31
REMARK                            x       y       z     vdW  Elec       q    Type
REMARK                         _______ _______ _______ _____ _____    ______ ____
ROOT
ATOM      1  C   UNL     1      -0.124   0.133   0.025  0.00  0.00    +0.106 A 
ATOM      2  C   UNL     1       1.054  -0.593   0.013  0.00  0.00    +0.030 A 
ATOM      3  C   UNL     1       2.265   0.070  -0.002  0.00  0.00    +0.025 A 
ATOM      4  C   UNL     1       2.296   1.460  -0.003  0.00  0.00    +0.031 A 
ATOM      5  C   UNL     1       1.121   2.188   0.012  0.00  0.00    -0.018 A 
ATOM      6  C   UNL     1      -0.092   1.512   0.025  0.00  0.00    +0.034 A 
ATOM      7  C   UNL     1       1.090   3.701   0.009  0.00  0.00    +0.049 C 
ATOM      8  C   UNL     1       0.359   4.128   1.284  0.00  0.00    -0.023 C 
ATOM      9  C   UNL     1       1.216   4.407   2.235  0.00  0.00    -0.030 C 
ATOM     10  C   UNL     1       2.638   4.204   1.745  0.00  0.00    +0.033 C 
ATOM     11  C   UNL     1       2.491   4.305   0.209  0.00  0.00    +0.029 C 
ATOM     12  C   UNL     1       3.567   3.501  -0.497  0.00  0.00    +0.108 C 
ATOM     13  N   UNL     1       3.534   2.113  -0.021  0.00  0.00    -0.336 N 
ATOM     14  H   UNL     1       4.462   1.621   0.305  0.00  0.00    +0.147 HD
ENDROOT
BRANCH  12  15
ATOM     15  C   UNL     1       3.321   3.529  -1.983  0.00  0.00    +0.017 A 
ATOM     16  C   UNL     1       2.754   2.436  -2.611  0.00  0.00    +0.041 A 
ATOM     17  C   UNL     1       2.528   2.461  -3.974  0.00  0.00    +0.127 A 
ATOM     18  C   UNL     1       2.868   3.579  -4.713  0.00  0.00    +0.036 A 
ATOM     19  C   UNL     1       3.435   4.674  -4.091  0.00  0.00    +0.048 A 
ATOM     20  C   UNL     1       3.658   4.654  -2.722  0.00  0.00    +0.122 A 
BRANCH  17  21
ATOM     21  N   UNL     1       1.921   1.289  -4.644  0.00  0.00    +0.056 N 
ATOM     22  O   UNL     1       1.620   0.304  -3.994  0.00  0.00    -0.126 OA
ATOM     23  O   UNL     1       1.721   1.310  -5.845  0.00  0.00    -0.126 OA
ENDBRANCH  17  21
BRANCH  20  24
ATOM     24  O   UNL     1       4.211   5.732  -2.106  0.00  0.00    -0.506 OA
ATOM     25  H   UNL     1       4.478   6.623  -2.692  0.00  0.00    +0.292 HD
ENDBRANCH  20  24
ENDBRANCH  12  15
BRANCH   1  26
ATOM     26  S   UNL     1      -1.672  -0.709   0.042  0.00  0.00    +0.061 S 
ATOM     27  O   UNL     1      -1.428  -1.997   0.591  0.00  0.00    -0.153 OA
ATOM     28  O   UNL     1      -2.618   0.191   0.603  0.00  0.00    -0.153 OA
BRANCH  26  29
ATOM     29  N   UNL     1      -2.119  -0.943  -1.535  0.00  0.00    -0.177 NA
BRANCH  29  31
ATOM     30  C   UNL     1      -2.829  -3.202  -2.149  0.00  0.00    +0.022 C 
ATOM     31  C   UNL     1      -1.711  -2.162  -2.239  0.00  0.00    +0.106 C 
ENDBRANCH  29  31
BRANCH  29  32
ATOM     32  C   UNL     1      -2.922   0.068  -2.227  0.00  0.00    +0.106 C 
ATOM     33  C   UNL     1      -2.000   1.004  -3.009  0.00  0.00    +0.022 C 
ENDBRANCH  29  32
ENDBRANCH  26  29
ENDBRANCH   1  26
TORSDOF 7
