REMARK  Name = ZINC09814053
REMARK  9 active torsions:
REMARK  status: ('A' for Active; 'I' for Inactive)
REMARK    1  A    between atoms: C_4  and  C_7
REMARK    2  A    between atoms: C_7  and  C_8
REMARK    3  A    between atoms: C_8  and  C_10
REMARK    4  A    between atoms: C_8  and  N_28
REMARK    5  A    between atoms: C_10  and  O_12
REMARK    6  A    between atoms: O_12  and  C_13
REMARK    7  A    between atoms: C_13  and  C_14
REMARK    8  A    between atoms: C_20  and  C_22
REMARK    9  A    between atoms: C_29  and  C_31
REMARK                            x       y       z     vdW  Elec       q    Type
REMARK                         _______ _______ _______ _____ _____    ______ ____
ROOT
ATOM      1  C   UNL     1       7.202   0.174   0.534  0.00  0.00    +0.328 C 
ATOM      2  O   UNL     1       6.924   1.281   0.931  0.00  0.00    -0.249 OA
ENDROOT
BRANCH   1   3
ATOM      3  C   UNL     1       6.132  -0.704  -0.061  0.00  0.00    +0.186 C 
BRANCH   3   4
ATOM      4  N   UNL     1       4.852   0.008  -0.045  0.00  0.00    -0.298 N 
ATOM      5  C   UNL     1       3.696  -0.685  -0.037  0.00  0.00    +0.245 C 
ATOM      6  O   UNL     1       3.715  -1.900  -0.044  0.00  0.00    -0.270 OA
ATOM      7  H   UNL     1       4.836   0.978  -0.039  0.00  0.00    +0.150 HD
BRANCH   5   8
ATOM      8  C   UNL     1       2.403   0.034  -0.021  0.00  0.00    +0.037 A 
ATOM      9  C   UNL     1       1.204  -0.681  -0.013  0.00  0.00    +0.013 A 
ATOM     10  C   UNL     1       0.002  -0.004   0.002  0.00  0.00    +0.001 A 
ATOM     11  C   UNL     1      -0.017   1.379   0.010  0.00  0.00    +0.000 A 
ATOM     12  C   UNL     1       1.168   2.094   0.002  0.00  0.00    +0.001 A 
ATOM     13  C   UNL     1       2.377   1.429  -0.013  0.00  0.00    +0.013 A 
ENDBRANCH   5   8
ENDBRANCH   3   4
BRANCH   3  14
ATOM     14  C   UNL     1       6.503  -1.054  -1.503  0.00  0.00    +0.069 C 
BRANCH  14  18
ATOM     15  C   UNL     1       3.653  -3.820  -3.076  0.00  0.00    +0.000 A 
ATOM     16  C   UNL     1       3.445  -2.460  -3.214  0.00  0.00    +0.000 A 
ATOM     17  C   UNL     1       4.368  -1.565  -2.705  0.00  0.00    +0.004 A 
ATOM     18  C   UNL     1       5.497  -2.030  -2.058  0.00  0.00    -0.045 A 
ATOM     19  C   UNL     1       5.707  -3.389  -1.924  0.00  0.00    +0.004 A 
ATOM     20  C   UNL     1       4.782  -4.284  -2.429  0.00  0.00    +0.000 A 
ENDBRANCH  14  18
ENDBRANCH   3  14
ENDBRANCH   1   3
BRANCH   1  21
ATOM     21  O   UNL     1       8.465  -0.273   0.624  0.00  0.00    -0.454 OA
BRANCH  21  22
ATOM     22  C   UNL     1       9.443   0.626   1.208  0.00  0.00    +0.328 C 
BRANCH  22  23
ATOM     23  C   UNL     1      10.794  -0.043   1.224  0.00  0.00    +0.258 C 
ATOM     24  O   UNL     1      10.919  -1.167   0.787  0.00  0.00    -0.272 OA
ATOM     25  N   UNL     1      11.862   0.609   1.725  0.00  0.00    -0.236 N 
ATOM     26  C   UNL     1      13.104  -0.007   1.741  0.00  0.00    +0.315 A 
ATOM     27  N   UNL     1      13.378  -1.212   1.302  0.00  0.00    -0.092 NA
ATOM     28  N   UNL     1      14.630  -1.455   1.473  0.00  0.00    -0.106 NA
ATOM     29  C   UNL     1      15.204  -0.415   2.028  0.00  0.00    +0.250 A 
ATOM     30  O   UNL     1      14.250   0.525   2.204  0.00  0.00    -0.405 OA
ATOM     31  H   UNL     1      11.762   1.508   2.075  0.00  0.00    +0.159 HD
BRANCH  29  32
ATOM     32  C   UNL     1      16.631  -0.291   2.388  0.00  0.00    +0.039 A 
ATOM     33  C   UNL     1      17.109   0.884   2.970  0.00  0.00    +0.013 A 
ATOM     34  C   UNL     1      18.442   0.990   3.309  0.00  0.00    +0.001 A 
ATOM     35  C   UNL     1      19.307  -0.060   3.062  0.00  0.00    +0.000 A 
ATOM     36  C   UNL     1      18.842  -1.226   2.480  0.00  0.00    +0.001 A 
ATOM     37  C   UNL     1      17.510  -1.348   2.141  0.00  0.00    +0.013 A 
ENDBRANCH  29  32
ENDBRANCH  22  23
ENDBRANCH  21  22
ENDBRANCH   1  21
TORSDOF 9
