REMARK  Name = ZINC09413018
REMARK  10 active torsions:
REMARK  status: ('A' for Active; 'I' for Inactive)
REMARK    1  A    between atoms: C_1  and  C_2
REMARK    2  A    between atoms: C_2  and  N_3
REMARK    3  A    between atoms: C_5  and  C_14
REMARK    4  A    between atoms: C_14  and  N_65
REMARK    5  A    between atoms: C_15  and  N_65
REMARK    6  A    between atoms: C_16  and  C_17
REMARK    7  A    between atoms: C_16  and  N_65
REMARK    8  A    between atoms: N_19  and  C_20
REMARK    9  A    between atoms: C_24  and  S_26
REMARK   10  A    between atoms: S_26  and  N_29
REMARK                            x       y       z     vdW  Elec       q    Type
REMARK                         _______ _______ _______ _____ _____    ______ ____
ROOT
ATOM      1  C   UNL     1       7.562   4.865   0.916  0.00  0.00    +0.201 C 
ATOM      2  O   UNL     1       7.161   3.990   1.653  0.00  0.00    -0.278 OA
ATOM      3  N   UNL     1       8.885   5.021   0.712  0.00  0.00    -0.287 N 
ATOM      4  H   UNL     1       9.211   5.769   0.188  0.00  0.00    +0.155 HD
ENDROOT
BRANCH   3   5
ATOM      5  C   UNL     1       9.790   4.103   1.258  0.00  0.00    +0.035 A 
ATOM      6  C   UNL     1       9.445   2.761   1.357  0.00  0.00    +0.023 A 
ATOM      7  C   UNL     1      10.340   1.858   1.896  0.00  0.00    +0.004 A 
ATOM      8  C   UNL     1      11.578   2.289   2.337  0.00  0.00    +0.028 A 
ATOM      9  C   UNL     1      11.924   3.624   2.240  0.00  0.00    +0.107 A 
ATOM     10  C   UNL     1      11.036   4.532   1.697  0.00  0.00    +0.051 A 
BRANCH   9  11
ATOM     11  S   UNL     1      13.503   4.167   2.804  0.00  0.00    +0.061 S 
ATOM     12  O   UNL     1      13.373   5.550   3.104  0.00  0.00    -0.153 OA
ATOM     13  O   UNL     1      13.940   3.217   3.765  0.00  0.00    -0.153 OA
BRANCH  11  14
ATOM     14  N   UNL     1      14.545   4.057   1.521  0.00  0.00    -0.177 NA
ATOM     15  C   UNL     1      15.361   2.883   1.179  0.00  0.00    +0.109 C 
ATOM     16  C   UNL     1      16.188   3.249  -0.072  0.00  0.00    +0.018 C 
ATOM     17  C   UNL     1      16.220   4.800  -0.023  0.00  0.00    +0.018 C 
ATOM     18  C   UNL     1      14.813   5.122   0.538  0.00  0.00    +0.109 C 
ENDBRANCH  11  14
ENDBRANCH   9  11
ENDBRANCH   3   5
BRANCH   1  19
ATOM     19  C   UNL     1       6.581   5.780   0.229  0.00  0.00    +0.019 C 
BRANCH  19  21
ATOM     20  C   UNL     1       4.980   5.656   2.040  0.00  0.00    -0.095 C 
ATOM     21  N   UNL     1       5.210   5.379   0.607  0.00  0.00    +0.386 N 
ATOM     22  H   UNL     1       5.098   4.372   0.440  0.00  0.00    -0.081 HD
BRANCH  21  23
ATOM     23  C   UNL     1       4.224   6.114  -0.214  0.00  0.00    -0.032 C 
BRANCH  23  26
ATOM     24  N   UNL     1       0.468   5.717  -0.513  0.00  0.00    -0.324 N 
ATOM     25  C   UNL     1       1.797   6.257  -0.822  0.00  0.00    +0.147 C 
ATOM     26  C   UNL     1       2.835   5.524   0.037  0.00  0.00    +0.174 C 
ATOM     27  O   UNL     1       2.821   4.143  -0.339  0.00  0.00    -0.487 OA
ATOM     28  C   UNL     1       1.599   3.559  -0.476  0.00  0.00    +0.142 A 
ATOM     29  C   UNL     1       0.440   4.320  -0.571  0.00  0.00    +0.072 A 
ATOM     30  C   UNL     1      -0.788   3.684  -0.722  0.00  0.00    +0.027 A 
ATOM     31  C   UNL     1      -0.855   2.306  -0.779  0.00  0.00    +0.002 A 
ATOM     32  C   UNL     1       0.298   1.551  -0.676  0.00  0.00    +0.004 A 
ATOM     33  C   UNL     1       1.522   2.175  -0.528  0.00  0.00    +0.047 A 
BRANCH  24  35
ATOM     34  C   UNL     1      -0.746   7.778  -1.038  0.00  0.00    +0.024 C 
ATOM     35  C   UNL     1      -0.555   6.301  -1.391  0.00  0.00    +0.102 C 
ENDBRANCH  24  35
ENDBRANCH  23  26
ENDBRANCH  21  23
ENDBRANCH  19  21
ENDBRANCH   1  19
TORSDOF 8
