REMARK  Name = ZINC58439404
REMARK  11 active torsions:
REMARK  status: ('A' for Active; 'I' for Inactive)
REMARK    1  A    between atoms: C_1  and  C_2
REMARK    2  A    between atoms: C_4  and  C_25
REMARK    3  A    between atoms: C_6  and  C_24
REMARK    4  A    between atoms: C_7  and  C_8
REMARK    5  A    between atoms: C_8  and  S_9
REMARK    6  A    between atoms: S_9  and  C_12
REMARK    7  A    between atoms: C_12  and  C_13
REMARK    8  A    between atoms: C_16  and  C_18
REMARK    9  A    between atoms: C_25  and  C_26
REMARK   10  A    between atoms: C_25  and  C_27
REMARK   11  A    between atoms: C_25  and  C_28
REMARK                            x       y       z     vdW  Elec       q    Type
REMARK                         _______ _______ _______ _____ _____    ______ ____
ROOT
ATOM      1  S   UNL     1      -1.684   0.321   3.046  0.00  0.00    -0.021 S 
ATOM      2  O   UNL     1      -2.316   1.188   2.114  0.00  0.00    -0.174 OA
ATOM      3  O   UNL     1      -2.276  -0.940   3.328  0.00  0.00    -0.174 OA
ENDROOT
BRANCH   1   4
ATOM      4  C   UNL     1       0.025   0.045   2.505  0.00  0.00    +0.202 C 
BRANCH   4  11
ATOM      5  C   UNL     1      -0.018   1.503   0.010  0.00  0.00    +0.044 C 
ATOM      6  C   UNL     1       0.002  -0.004   0.002  0.00  0.00    -0.045 A 
ATOM      7  C   UNL     1       0.006  -0.689  -1.199  0.00  0.00    +0.007 A 
ATOM      8  C   UNL     1       0.025  -2.071  -1.206  0.00  0.00    -0.041 A 
ATOM      9  C   UNL     1       0.040  -2.768  -0.013  0.00  0.00    +0.007 A 
ATOM     10  C   UNL     1       0.037  -2.084   1.188  0.00  0.00    -0.045 A 
ATOM     11  C   UNL     1       0.023  -0.702   1.195  0.00  0.00    -0.021 A 
ATOM     12  C   UNL     1       0.054  -2.844   2.489  0.00  0.00    +0.044 C 
BRANCH   8  13
ATOM     13  C   UNL     1       0.027  -2.817  -2.516  0.00  0.00    -0.013 C 
ATOM     14  C   UNL     1       1.267  -2.426  -3.323  0.00  0.00    +0.015 C 
ATOM     15  C   UNL     1       0.049  -4.323  -2.244  0.00  0.00    +0.015 C 
ATOM     16  C   UNL     1      -1.231  -2.460  -3.309  0.00  0.00    +0.015 C 
ENDBRANCH   8  13
ENDBRANCH   4  11
ENDBRANCH   1   4
BRANCH   1  17
ATOM     17  C   UNL     1      -1.469   1.216   4.609  0.00  0.00    +0.222 C 
BRANCH  17  18
ATOM     18  C   UNL     1      -2.821   1.527   5.199  0.00  0.00    +0.070 A 
ATOM     19  C   UNL     1      -3.454   2.690   4.879  0.00  0.00    +0.072 A 
ATOM     20  S   UNL     1      -4.955   2.521   5.837  0.00  0.00    -0.072 S 
ATOM     21  C   UNL     1      -4.576   0.928   6.556  0.00  0.00    +0.145 A 
ATOM     22  N   UNL     1      -3.390   0.678   6.017  0.00  0.00    -0.239 NA
BRANCH  21  23
ATOM     23  C   UNL     1      -5.372   0.108   7.493  0.00  0.00    +0.185 A 
ATOM     24  N   UNL     1      -4.888  -1.056   7.908  0.00  0.00    -0.234 NA
ATOM     25  C   UNL     1      -5.575  -1.813   8.746  0.00  0.00    +0.115 A 
ATOM     26  C   UNL     1      -6.815  -1.376   9.192  0.00  0.00    +0.039 A 
ATOM     27  C   UNL     1      -7.291  -0.155   8.739  0.00  0.00    +0.115 A 
ATOM     28  N   UNL     1      -6.552   0.556   7.905  0.00  0.00    -0.234 NA
ENDBRANCH  21  23
ENDBRANCH  17  18
ENDBRANCH   1  17
TORSDOF 6
