REMARK  Name = ZINC00627146
REMARK  7 active torsions:
REMARK  status: ('A' for Active; 'I' for Inactive)
REMARK    1  A    between atoms: C_1  and  N_2
REMARK    2  A    between atoms: N_11  and  C_25
REMARK    3  A    between atoms: C_12  and  S_14
REMARK    4  A    between atoms: S_14  and  C_15
REMARK    5  A    between atoms: C_15  and  C_16
REMARK    6  A    between atoms: C_16  and  C_18
REMARK    7  A    between atoms: C_25  and  C_26
REMARK                            x       y       z     vdW  Elec       q    Type
REMARK                         _______ _______ _______ _____ _____    ______ ____
ROOT
ATOM      1  C   UNL     1       5.649   3.583   1.028  0.00  0.00    +0.155 C 
ATOM      2  N   UNL     1       4.355   3.102   1.517  0.00  0.00    -0.280 N 
ATOM      3  C   UNL     1       3.364   2.745   0.617  0.00  0.00    +0.169 A 
ATOM      4  C   UNL     1       2.142   2.296   1.108  0.00  0.00    +0.152 A 
ATOM      5  C   UNL     1       1.952   2.207   2.498  0.00  0.00    +0.280 A 
ATOM      6  O   UNL     1       0.892   1.813   2.951  0.00  0.00    -0.265 OA
ATOM      7  N   UNL     1       2.955   2.569   3.326  0.00  0.00    -0.273 N 
ATOM      8  H   UNL     1       2.821   2.510   4.315  0.00  0.00    +0.173 HD
ATOM      9  C   UNL     1       4.130   3.006   2.841  0.00  0.00    +0.331 A 
ATOM     10  O   UNL     1       5.010   3.324   3.617  0.00  0.00    -0.246 OA
ATOM     11  N   UNL     1       1.356   2.010  -0.000  0.00  0.00    -0.309 N 
ATOM     12  C   UNL     1       2.107   2.297  -1.097  0.00  0.00    +0.172 A 
ATOM     13  N   UNL     1       3.292   2.731  -0.715  0.00  0.00    -0.204 NA
ENDROOT
BRANCH  12  14
ATOM     14  S   UNL     1       1.579   2.119  -2.769  0.00  0.00    -0.080 S 
BRANCH  14  15
ATOM     15  C   UNL     1       3.070   2.676  -3.631  0.00  0.00    +0.157 C 
BRANCH  15  16
ATOM     16  C   UNL     1       2.844   2.607  -5.119  0.00  0.00    +0.173 C 
ATOM     17  O   UNL     1       1.781   2.220  -5.554  0.00  0.00    -0.291 OA
BRANCH  16  18
ATOM     18  C   UNL     1       3.914   3.011  -6.045  0.00  0.00    +0.018 A 
ATOM     19  C   UNL     1       5.141   3.464  -5.546  0.00  0.00    +0.013 A 
ATOM     20  C   UNL     1       6.141   3.835  -6.419  0.00  0.00    +0.020 A 
ATOM     21  C   UNL     1       5.930   3.771  -7.787  0.00  0.00    +0.041 A 
ATOM     22  C   UNL     1       4.716   3.328  -8.288  0.00  0.00    +0.020 A 
ATOM     23  C   UNL     1       3.709   2.948  -7.427  0.00  0.00    +0.013 A 
ATOM     24 CL   UNL     1       7.193   4.247  -8.879  0.00  0.00    -0.084 Cl
ENDBRANCH  16  18
ENDBRANCH  15  16
ENDBRANCH  14  15
ENDBRANCH  12  14
BRANCH  11  25
ATOM     25  C   UNL     1      -0.018   1.503   0.010  0.00  0.00    +0.159 C 
BRANCH  25  26
ATOM     26  C   UNL     1       0.002  -0.004   0.002  0.00  0.00    -0.028 A 
ATOM     27  C   UNL     1      -0.006  -0.689  -1.199  0.00  0.00    +0.007 A 
ATOM     28  C   UNL     1       0.019  -2.071  -1.207  0.00  0.00    +0.020 A 
ATOM     29  C   UNL     1       0.040  -2.769  -0.013  0.00  0.00    +0.041 A 
ATOM     30  C   UNL     1       0.042  -2.083   1.188  0.00  0.00    +0.020 A 
ATOM     31  C   UNL     1       0.023  -0.701   1.196  0.00  0.00    +0.007 A 
ATOM     32 CL   UNL     1       0.064  -4.505  -0.023  0.00  0.00    -0.084 Cl
ENDBRANCH  25  26
ENDBRANCH  11  25
TORSDOF 6
