REMARK  Name = ZINC12348987
REMARK  10 active torsions:
REMARK  status: ('A' for Active; 'I' for Inactive)
REMARK    1  A    between atoms: C_1  and  C_2
REMARK    2  A    between atoms: C_2  and  O_3
REMARK    3  A    between atoms: O_3  and  C_4
REMARK    4  A    between atoms: C_4  and  C_6
REMARK    5  A    between atoms: C_6  and  N_7
REMARK    6  A    between atoms: C_11  and  S_27
REMARK    7  A    between atoms: N_16  and  C_17
REMARK    8  A    between atoms: C_17  and  C_19
REMARK    9  A    between atoms: C_19  and  C_20
REMARK   10  A    between atoms: S_27  and  N_30
REMARK                            x       y       z     vdW  Elec       q    Type
REMARK                         _______ _______ _______ _____ _____    ______ ____
ROOT
ATOM      1  N   UNL     1      -0.984   1.347   1.073  0.00  0.00    -0.310 N 
ATOM      2  C   UNL     1      -0.547   1.735   2.326  0.00  0.00    +0.058 A 
ATOM      3  C   UNL     1       0.772   1.930   2.766  0.00  0.00    +0.029 A 
ATOM      4  C   UNL     1       1.031   2.320   4.059  0.00  0.00    +0.030 A 
ATOM      5  C   UNL     1       0.004   2.533   4.964  0.00  0.00    +0.106 A 
ATOM      6  C   UNL     1      -1.305   2.348   4.556  0.00  0.00    +0.045 A 
ATOM      7  C   UNL     1      -1.565   1.958   3.264  0.00  0.00    +0.041 A 
ATOM      8  S   UNL     1      -3.045   1.616   2.346  0.00  0.00    -0.052 S 
ATOM      9  C   UNL     1      -2.314   1.214   0.826  0.00  0.00    +0.167 A 
ATOM     10  N   UNL     1      -2.911   0.859  -0.309  0.00  0.00    -0.156 NA
ENDROOT
BRANCH   5  11
ATOM     11  S   UNL     1       0.362   3.031   6.616  0.00  0.00    +0.056 S 
ATOM     12  O   UNL     1      -0.748   2.633   7.409  0.00  0.00    -0.153 OA
ATOM     13  O   UNL     1       1.688   2.603   6.891  0.00  0.00    -0.153 OA
BRANCH  11  14
ATOM     14  N   UNL     1       0.385   4.687   6.632  0.00  0.00    -0.204 NA
ATOM     15  H   UNL     1       0.133   5.168   7.436  0.00  0.00    +0.144 HD
ATOM     16  H   UNL     1       0.652   5.177   5.838  0.00  0.00    +0.144 HD
ENDBRANCH  11  14
ENDBRANCH   5  11
BRANCH  10  17
ATOM     17  C   UNL     1      -4.237   0.781  -0.367  0.00  0.00    +0.243 C 
ATOM     18  O   UNL     1      -4.904   1.034   0.618  0.00  0.00    -0.273 OA
BRANCH  17  19
ATOM     19  C   UNL     1      -4.913   0.378  -1.652  0.00  0.00    +0.133 C 
BRANCH  19  20
ATOM     20  C   UNL     1      -6.406   0.367  -1.451  0.00  0.00    -0.038 A 
ATOM     21  C   UNL     1      -7.038  -0.790  -1.033  0.00  0.00    +0.005 A 
ATOM     22  C   UNL     1      -8.407  -0.799  -0.844  0.00  0.00    +0.020 A 
ATOM     23  C   UNL     1      -9.147   0.345  -1.084  0.00  0.00    +0.041 A 
ATOM     24  C   UNL     1      -8.514   1.500  -1.508  0.00  0.00    +0.020 A 
ATOM     25  C   UNL     1      -7.144   1.511  -1.691  0.00  0.00    +0.005 A 
ATOM     26 CL   UNL     1     -10.867   0.332  -0.852  0.00  0.00    -0.084 Cl
ENDBRANCH  19  20
ENDBRANCH  17  19
ENDBRANCH  10  17
BRANCH   1  27
ATOM     27  C   UNL     1      -0.013   1.086   0.008  0.00  0.00    +0.244 C 
BRANCH  27  28
ATOM     28  C   UNL     1      -0.525   1.656  -1.290  0.00  0.00    +0.327 C 
ATOM     29  O   UNL     1      -1.504   2.363  -1.294  0.00  0.00    -0.249 OA
BRANCH  28  30
ATOM     30  O   UNL     1       0.107   1.377  -2.441  0.00  0.00    -0.464 OA
BRANCH  30  32
ATOM     31  C   UNL     1       0.406   1.534  -4.853  0.00  0.00    +0.048 C 
ATOM     32  C   UNL     1      -0.441   1.960  -3.652  0.00  0.00    +0.229 C 
ENDBRANCH  30  32
ENDBRANCH  28  30
ENDBRANCH  27  28
ENDBRANCH   1  27
TORSDOF 9
