REMARK  Name = ZINC04899346
REMARK  3 active torsions:
REMARK  status: ('A' for Active; 'I' for Inactive)
REMARK    1  A    between atoms: C_1  and  C_2
REMARK    2  A    between atoms: C_2  and  C_14
REMARK    3  A    between atoms: N_3  and  N_4
REMARK                            x       y       z     vdW  Elec       q    Type
REMARK                         _______ _______ _______ _____ _____    ______ ____
ROOT
ATOM      1  C   UNL     1      -3.817   3.101   0.056  0.00  0.00    +0.068 C 
ATOM      2  C   UNL     1      -2.519   3.868   0.047  0.00  0.00    +0.063 C 
ATOM      3  N   UNL     1      -2.533   5.166   0.053  0.00  0.00    -0.185 NA
ENDROOT
BRANCH   3   4
ATOM      4  N   UNL     1      -3.753   5.854   0.069  0.00  0.00    -0.219 N 
ATOM      5  C   UNL     1      -3.768   7.244   0.076  0.00  0.00    +0.159 A 
ATOM      6  C   UNL     1      -5.000   7.927   0.091  0.00  0.00    +0.050 A 
ATOM      7  C   UNL     1      -5.026   9.286   0.098  0.00  0.00    +0.053 A 
ATOM      8  C   UNL     1      -3.810   9.995   0.090  0.00  0.00    +0.178 A 
ATOM      9  N   UNL     1      -3.500  11.282   0.093  0.00  0.00    -0.128 NA
ATOM     10  N   UNL     1      -2.219  11.410   0.081  0.00  0.00    -0.136 NA
ATOM     11  C   UNL     1      -1.647  10.231   0.070  0.00  0.00    +0.249 A 
ATOM     12  N   UNL     1      -2.626   9.301   0.075  0.00  0.00    -0.198 N 
ATOM     13  N   UNL     1      -2.633   7.905   0.074  0.00  0.00    -0.147 NA
ATOM     14  H   UNL     1      -4.588   5.360   0.074  0.00  0.00    +0.176 HD
ENDBRANCH   3   4
BRANCH   2  15
ATOM     15  C   UNL     1      -1.235   3.144   0.031  0.00  0.00    -0.001 A 
ATOM     16  C   UNL     1      -1.217   1.747   0.017  0.00  0.00    +0.011 A 
ATOM     17  C   UNL     1      -0.013   1.076   0.008  0.00  0.00    +0.022 A 
ATOM     18  C   UNL     1       1.178   1.783   0.000  0.00  0.00    +0.059 A 
ATOM     19  C   UNL     1       1.168   3.169   0.007  0.00  0.00    +0.060 A 
ATOM     20  C   UNL     1      -0.031   3.853   0.023  0.00  0.00    +0.031 A 
ATOM     21 CL   UNL     1       2.666   4.046  -0.003  0.00  0.00    -0.082 Cl
ATOM     22 CL   UNL     1       2.690   0.930  -0.019  0.00  0.00    -0.082 Cl
ENDBRANCH   2  15
TORSDOF 2
