REMARK  Name = ZINC09318699
REMARK  6 active torsions:
REMARK  status: ('A' for Active; 'I' for Inactive)
REMARK    1  A    between atoms: C_1  and  C_2
REMARK    2  A    between atoms: C_2  and  C_3
REMARK    3  A    between atoms: C_2  and  C_4
REMARK    4  A    between atoms: C_7  and  N_10
REMARK    5  A    between atoms: C_12  and  C_17
REMARK    6  A    between atoms: C_19  and  C_22
REMARK                            x       y       z     vdW  Elec       q    Type
REMARK                         _______ _______ _______ _____ _____    ______ ____
ROOT
ATOM      1  N   UNL     1       1.217  -0.448  -0.365  0.00  0.00    -0.271 N 
ATOM      2  C   UNL     1       2.133   0.667  -0.633  0.00  0.00    +0.127 C 
ATOM      3  C   UNL     1       1.473   1.907   0.010  0.00  0.00    +0.104 C 
ATOM      4  C   UNL     1      -0.021   1.508   0.001  0.00  0.00    +0.111 C 
ATOM      5  C   UNL     1      -0.002  -0.004  -0.013  0.00  0.00    +0.221 C 
ATOM      6  O   UNL     1      -0.949  -0.713   0.255  0.00  0.00    -0.275 OA
ENDROOT
BRANCH   1  10
ATOM      7  C   UNL     1       2.259  -4.471  -0.659  0.00  0.00    -0.045 A 
ATOM      8  C   UNL     1       3.159  -3.495  -1.048  0.00  0.00    +0.006 A 
ATOM      9  C   UNL     1       2.816  -2.160  -0.952  0.00  0.00    +0.024 A 
ATOM     10  C   UNL     1       1.567  -1.799  -0.464  0.00  0.00    +0.036 A 
ATOM     11  C   UNL     1       0.668  -2.781  -0.069  0.00  0.00    +0.024 A 
ATOM     12  C   UNL     1       1.015  -4.114  -0.172  0.00  0.00    +0.006 A 
BRANCH   7  14
ATOM     13  C   UNL     1       2.582  -6.569   0.622  0.00  0.00    +0.012 C 
ATOM     14  C   UNL     1       2.636  -5.926  -0.765  0.00  0.00    +0.013 C 
ATOM     15  C   UNL     1       1.656  -6.640  -1.698  0.00  0.00    +0.012 C 
ENDBRANCH   7  14
ENDBRANCH   1  10
BRANCH   3  16
ATOM     16  C   UNL     1       1.708   3.138  -0.827  0.00  0.00    +0.233 A 
ATOM     17  N   UNL     1       2.223   4.269  -0.417  0.00  0.00    -0.191 NA
ATOM     18  C   UNL     1       2.241   5.076  -1.504  0.00  0.00    +0.209 A 
ATOM     19  N   UNL     1       1.739   4.390  -2.501  0.00  0.00    -0.056 NA
ATOM     20  O   UNL     1       1.435   3.276  -2.128  0.00  0.00    -0.337 OA
BRANCH  18  21
ATOM     21  C   UNL     1       2.734   6.468  -1.556  0.00  0.00    +0.060 A 
ATOM     22  C   UNL     1       2.783   7.327  -2.622  0.00  0.00    +0.019 A 
ATOM     23  C   UNL     1       3.287   8.592  -2.430  0.00  0.00    +0.008 A 
ATOM     24  C   UNL     1       3.730   8.948  -1.195  0.00  0.00    +0.046 A 
ATOM     25  S   UNL     1       3.429   7.465  -0.249  0.00  0.00    -0.093 S 
ENDBRANCH  18  21
ENDBRANCH   3  16
TORSDOF 4
