REMARK  Name = ZINC12193574
REMARK  11 active torsions:
REMARK  status: ('A' for Active; 'I' for Inactive)
REMARK    1  A    between atoms: C_1  and  C_2
REMARK    2  A    between atoms: C_3  and  C_16
REMARK    3  A    between atoms: N_8  and  C_9
REMARK    4  A    between atoms: N_8  and  C_10
REMARK    5  A    between atoms: C_16  and  C_18
REMARK    6  A    between atoms: C_16  and  N_19
REMARK    7  A    between atoms: C_20  and  C_22
REMARK    8  A    between atoms: C_25  and  C_27
REMARK    9  A    between atoms: C_27  and  N_62
REMARK   10  A    between atoms: C_28  and  N_62
REMARK   11  A    between atoms: C_29  and  N_62
REMARK                            x       y       z     vdW  Elec       q    Type
REMARK                         _______ _______ _______ _____ _____    ______ ____
ROOT
ATOM      1  C   UNL     1      -4.909   1.862   0.031  0.00  0.00    +0.104 C 
ATOM      2  C   UNL     1      -5.115   1.647   1.532  0.00  0.00    +0.033 C 
ENDROOT
BRANCH   1   5
ATOM      3  C   UNL     1      -7.661   1.318  -0.776  0.00  0.00    +0.066 C 
ATOM      4  C   UNL     1      -7.111   2.721  -0.828  0.00  0.00    +0.048 A 
ATOM      5  C   UNL     1      -5.804   2.977  -0.445  0.00  0.00    +0.012 A 
ATOM      6  C   UNL     1      -5.340   4.282  -0.503  0.00  0.00    +0.121 A 
ATOM      7  N   UNL     1      -6.151   5.236  -0.930  0.00  0.00    -0.222 NA
ATOM      8  C   UNL     1      -7.395   4.957  -1.290  0.00  0.00    +0.218 A 
ATOM      9  N   UNL     1      -7.871   3.722  -1.241  0.00  0.00    -0.219 NA
ATOM     10  N   UNL     1      -8.217   5.981  -1.726  0.00  0.00    -0.300 N 
ATOM     11  C   UNL     1      -9.597   5.693  -2.128  0.00  0.00    +0.132 C 
BRANCH  10  12
ATOM     12  C   UNL     1      -7.709   7.354  -1.787  0.00  0.00    +0.076 C 
ATOM     13  C   UNL     1      -8.554   8.251  -0.880  0.00  0.00    +0.022 C 
ATOM     14  C   UNL     1      -8.023   9.685  -0.944  0.00  0.00    +0.002 C 
ATOM     15  C   UNL     1      -8.103  10.195  -2.384  0.00  0.00    +0.000 C 
ATOM     16  C   UNL     1      -7.258   9.298  -3.291  0.00  0.00    +0.002 C 
ATOM     17  C   UNL     1      -7.789   7.864  -3.227  0.00  0.00    +0.022 C 
ENDBRANCH  10  12
ENDBRANCH   1   5
BRANCH   1  18
ATOM     18  N   UNL     1      -3.510   2.217  -0.224  0.00  0.00    -0.302 N 
ATOM     19  C   UNL     1      -2.593   1.247  -0.410  0.00  0.00    +0.280 C 
ATOM     20  O   UNL     1      -2.926   0.078  -0.367  0.00  0.00    -0.267 OA
ATOM     21  H   UNL     1      -3.245   3.149  -0.258  0.00  0.00    +0.150 HD
BRANCH  19  22
ATOM     22  C   UNL     1      -1.193   1.602  -0.665  0.00  0.00    +0.189 A 
ATOM     23  C   UNL     1      -0.167   0.724  -0.871  0.00  0.00    +0.055 A 
ATOM     24  C   UNL     1       0.988   1.494  -1.080  0.00  0.00    +0.043 A 
ATOM     25  C   UNL     1       0.622   2.792  -0.989  0.00  0.00    +0.090 A 
ATOM     26  O   UNL     1      -0.692   2.853  -0.735  0.00  0.00    -0.457 OA
BRANCH  25  27
ATOM     27  C   UNL     1       1.541   3.976  -1.146  0.00  0.00    -0.004 C 
BRANCH  27  30
ATOM     28  C   UNL     1       0.273   4.894  -2.993  0.00  0.00    -0.096 C 
ATOM     29  C   UNL     1       2.637   5.375  -2.791  0.00  0.00    -0.096 C 
ATOM     30  N   UNL     1       1.585   4.360  -2.572  0.00  0.00    +0.381 N 
ATOM     31  H   UNL     1       1.802   3.528  -3.135  0.00  0.00    -0.082 HD
ENDBRANCH  27  30
ENDBRANCH  25  27
ENDBRANCH  19  22
ENDBRANCH   1  18
TORSDOF 6
