REMARK  Name = ZINC10754781
REMARK  3 active torsions:
REMARK  status: ('A' for Active; 'I' for Inactive)
REMARK    1  A    between atoms: C_13  and  C_15
REMARK    2  A    between atoms: N_20  and  S_22
REMARK    3  A    between atoms: S_22  and  C_25
REMARK                            x       y       z     vdW  Elec       q    Type
REMARK                         _______ _______ _______ _____ _____    ______ ____
ROOT
ATOM      1  C   UNL     1       2.791  -2.075   2.261  0.00  0.00    +0.001 A 
ATOM      2  C   UNL     1       1.526  -2.594   2.051  0.00  0.00    +0.004 A 
ATOM      3  C   UNL     1       0.591  -1.900   1.306  0.00  0.00    +0.046 A 
ATOM      4  C   UNL     1       0.914  -0.666   0.758  0.00  0.00    +0.130 A 
ATOM      5  C   UNL     1       2.189  -0.138   0.998  0.00  0.00    +0.043 A 
ATOM      6  C   UNL     1       3.127  -0.841   1.732  0.00  0.00    +0.013 A 
ATOM      7  C   UNL     1       2.478   1.230   0.463  0.00  0.00    +0.090 A 
ATOM      8  C   UNL     1       1.382   1.931  -0.001  0.00  0.00    +0.056 A 
ATOM      9  S   UNL     1       2.100   3.449  -0.547  0.00  0.00    -0.053 S 
ATOM     10  C   UNL     1       3.789   3.055  -0.101  0.00  0.00    +0.165 A 
ATOM     11  N   UNL     1       3.654   1.841   0.402  0.00  0.00    -0.224 NA
ATOM     12  N   UNL     1       4.938   3.824  -0.245  0.00  0.00    -0.264 N 
ATOM     13  C   UNL     1       4.862   5.054  -0.789  0.00  0.00    +0.223 C 
ATOM     14  O   UNL     1       3.790   5.492  -1.153  0.00  0.00    -0.275 OA
ATOM     15  C   UNL     1      -0.017   1.429   0.010  0.00  0.00    +0.274 C 
ATOM     16  O   UNL     1       0.002  -0.004   0.002  0.00  0.00    -0.486 OA
ATOM     17  H   UNL     1       5.795   3.474   0.045  0.00  0.00    +0.157 HD
ENDROOT
BRANCH  13  18
ATOM     18  C   UNL     1       6.108   5.888  -0.946  0.00  0.00    +0.091 C 
ATOM     19  C   UNL     1       7.106   5.150  -1.841  0.00  0.00    +0.015 C 
ATOM     20  C   UNL     1       8.385   5.980  -1.974  0.00  0.00    +0.018 C 
ATOM     21  C   UNL     1       8.050   7.324  -2.628  0.00  0.00    +0.109 C 
ATOM     22  N   UNL     1       6.986   7.976  -1.853  0.00  0.00    -0.175 NA
ATOM     23  C   UNL     1       5.747   7.231  -1.589  0.00  0.00    +0.122 C 
BRANCH  22  24
ATOM     24  S   UNL     1       7.178   9.520  -1.288  0.00  0.00    +0.067 S 
ATOM     25  O   UNL     1       6.309   9.656  -0.172  0.00  0.00    -0.152 OA
ATOM     26  O   UNL     1       8.578   9.748  -1.196  0.00  0.00    -0.152 OA
BRANCH  24  27
ATOM     27  C   UNL     1       6.572  10.610  -2.534  0.00  0.00    +0.143 A 
ATOM     28  C   UNL     1       5.319  11.099  -2.704  0.00  0.00    +0.036 A 
ATOM     29  C   UNL     1       5.071  11.950  -3.765  0.00  0.00    +0.010 A 
ATOM     30  C   UNL     1       6.087  12.271  -4.602  0.00  0.00    +0.047 A 
ATOM     31  S   UNL     1       7.451  11.363  -3.893  0.00  0.00    -0.077 S 
ENDBRANCH  24  27
ENDBRANCH  22  24
ENDBRANCH  13  18
TORSDOF 3
