REMARK  Name = ZINC62572063
REMARK  8 active torsions:
REMARK  status: ('A' for Active; 'I' for Inactive)
REMARK    1  A    between atoms: C_1  and  C_2
REMARK    2  A    between atoms: C_2  and  O_3
REMARK    3  A    between atoms: O_3  and  C_4
REMARK    4  A    between atoms: C_4  and  C_6
REMARK    5  A    between atoms: C_7  and  C_20
REMARK    6  A    between atoms: C_12  and  C_14
REMARK    7  A    between atoms: C_20  and  N_21
REMARK    8  A    between atoms: C_28  and  C_31
REMARK                            x       y       z     vdW  Elec       q    Type
REMARK                         _______ _______ _______ _____ _____    ______ ____
ROOT
ATOM      1  C   UNL     1      -2.795  -2.411   0.132  0.00  0.00    +0.080 C 
ATOM      2  C   UNL     1      -2.985  -3.731  -0.085  0.00  0.00    +0.044 C 
ATOM      3  N   UNL     1      -4.241  -4.254  -0.192  0.00  0.00    -0.271 N 
ATOM      4  C   UNL     1      -5.360  -3.525  -0.096  0.00  0.00    +0.304 C 
ATOM      5  O   UNL     1      -6.435  -4.081  -0.205  0.00  0.00    -0.252 OA
ATOM      6  N   UNL     1      -5.333  -2.195   0.120  0.00  0.00    -0.288 N 
ATOM      7  C   UNL     1      -4.024  -1.534   0.257  0.00  0.00    +0.144 C 
ATOM      8  H   UNL     1      -4.328  -5.208  -0.348  0.00  0.00    +0.156 HD
ATOM      9  H   UNL     1      -6.156  -1.686   0.186  0.00  0.00    +0.151 HD
ENDROOT
BRANCH   7  10
ATOM     10  C   UNL     1      -3.979  -0.859   1.604  0.00  0.00    -0.022 A 
ATOM     11  C   UNL     1      -4.369  -1.549   2.736  0.00  0.00    +0.006 A 
ATOM     12  C   UNL     1      -4.327  -0.930   3.972  0.00  0.00    +0.000 A 
ATOM     13  C   UNL     1      -3.894   0.379   4.074  0.00  0.00    +0.000 A 
ATOM     14  C   UNL     1      -3.503   1.069   2.942  0.00  0.00    +0.000 A 
ATOM     15  C   UNL     1      -3.541   0.448   1.707  0.00  0.00    +0.006 A 
ENDBRANCH   7  10
BRANCH   1  16
ATOM     16  C   UNL     1      -1.494  -1.868   0.244  0.00  0.00    +0.339 C 
ATOM     17  O   UNL     1      -1.024  -1.637   1.343  0.00  0.00    -0.245 OA
BRANCH  16  18
ATOM     18  O   UNL     1      -0.774  -1.605  -0.866  0.00  0.00    -0.462 OA
BRANCH  18  20
ATOM     19  C   UNL     1       1.190  -0.829  -2.041  0.00  0.00    +0.048 C 
ATOM     20  C   UNL     1       0.532  -1.057  -0.678  0.00  0.00    +0.229 C 
ENDBRANCH  18  20
ENDBRANCH  16  18
ENDBRANCH   1  16
BRANCH   2  21
ATOM     21  C   UNL     1      -1.789  -4.640  -0.210  0.00  0.00    +0.177 C 
BRANCH  21  22
ATOM     22  N   UNL     1      -1.771  -5.580   0.914  0.00  0.00    -0.293 N 
ATOM     23  C   UNL     1      -1.119  -5.239   2.055  0.00  0.00    +0.203 A 
ATOM     24  N   UNL     1      -1.080  -6.050   3.079  0.00  0.00    -0.230 NA
ATOM     25  C   UNL     1      -1.679  -7.237   3.035  0.00  0.00    +0.116 A 
ATOM     26  C   UNL     1      -2.377  -7.675   1.898  0.00  0.00    +0.080 A 
ATOM     27  C   UNL     1      -2.405  -6.761   0.797  0.00  0.00    +0.263 A 
ATOM     28  O   UNL     1      -2.989  -7.050  -0.233  0.00  0.00    -0.267 OA
ATOM     29  C   UNL     1      -2.976  -8.999   2.013  0.00  0.00    +0.004 A 
ATOM     30  C   UNL     1      -2.820  -9.687   3.170  0.00  0.00    +0.056 A 
ATOM     31  S   UNL     1      -1.851  -8.582   4.179  0.00  0.00    -0.076 S 
BRANCH  29  32
ATOM     32  C   UNL     1      -3.742  -9.582   0.886  0.00  0.00    -0.016 A 
ATOM     33  C   UNL     1      -4.741  -8.838   0.260  0.00  0.00    +0.011 A 
ATOM     34  C   UNL     1      -5.451  -9.385  -0.789  0.00  0.00    +0.039 A 
ATOM     35  C   UNL     1      -5.172 -10.671  -1.221  0.00  0.00    +0.123 A 
ATOM     36  C   UNL     1      -4.180 -11.415  -0.603  0.00  0.00    +0.039 A 
ATOM     37  C   UNL     1      -3.461 -10.874   0.444  0.00  0.00    +0.011 A 
ATOM     38  F   UNL     1      -5.870 -11.203  -2.249  0.00  0.00    -0.205 F 
ENDBRANCH  29  32
ENDBRANCH  21  22
ENDBRANCH   2  21
TORSDOF 7
