REMARK  Name = ZINC16857278
REMARK  9 active torsions:
REMARK  status: ('A' for Active; 'I' for Inactive)
REMARK    1  A    between atoms: C_1  and  C_2
REMARK    2  A    between atoms: C_3  and  C_16
REMARK    3  A    between atoms: C_4  and  O_15
REMARK    4  A    between atoms: C_6  and  C_8
REMARK    5  A    between atoms: C_8  and  C_9
REMARK    6  A    between atoms: C_16  and  C_17
REMARK    7  A    between atoms: C_17  and  S_18
REMARK    8  A    between atoms: S_18  and  C_19
REMARK    9  A    between atoms: C_19  and  C_20
REMARK                            x       y       z     vdW  Elec       q    Type
REMARK                         _______ _______ _______ _____ _____    ______ ____
ROOT
ATOM      1  C   UNL     1       1.399   2.040   2.508  0.00  0.00    +0.066 C 
ATOM      2  C   UNL     1       2.069   2.292   1.182  0.00  0.00    +0.049 A 
ATOM      3  C   UNL     1       1.395   2.047  -0.000  0.00  0.00    +0.036 A 
ATOM      4  C   UNL     1       2.054   2.301  -1.202  0.00  0.00    +0.219 A 
ATOM      5  N   UNL     1       3.300   2.760  -1.169  0.00  0.00    -0.198 NA
ATOM      6  C   UNL     1       3.908   2.974  -0.019  0.00  0.00    +0.137 A 
ATOM      7  N   UNL     1       3.313   2.745   1.134  0.00  0.00    -0.236 NA
ENDROOT
BRANCH   4   8
ATOM      8  O   UNL     1       1.433   2.082  -2.387  0.00  0.00    -0.492 OA
ATOM      9  H   UNL     1       0.947   2.847  -2.723  0.00  0.00    +0.294 HD
ENDBRANCH   4   8
BRANCH   6  10
ATOM     10  C   UNL     1       5.322   3.495  -0.024  0.00  0.00    +0.111 C 
BRANCH  10  11
ATOM     11  C   UNL     1       5.302   5.002  -0.014  0.00  0.00    -0.040 A 
ATOM     12  C   UNL     1       5.291   5.701  -1.207  0.00  0.00    +0.004 A 
ATOM     13  C   UNL     1       5.268   7.083  -1.198  0.00  0.00    +0.000 A 
ATOM     14  C   UNL     1       5.266   7.766   0.004  0.00  0.00    +0.000 A 
ATOM     15  C   UNL     1       5.282   7.068   1.196  0.00  0.00    +0.000 A 
ATOM     16  C   UNL     1       5.300   5.685   1.187  0.00  0.00    +0.004 A 
ENDBRANCH  10  11
ENDBRANCH   6  10
BRANCH   3  17
ATOM     17  C   UNL     1      -0.019   1.526   0.010  0.00  0.00    +0.053 C 
BRANCH  17  18
ATOM     18  C   UNL     1       0.002  -0.004   0.002  0.00  0.00    +0.074 C 
BRANCH  18  19
ATOM     19  S   UNL     1      -1.700  -0.632   0.015  0.00  0.00    -0.156 S 
BRANCH  19  20
ATOM     20  C   UNL     1      -1.502  -2.435   0.003  0.00  0.00    +0.104 C 
BRANCH  20  21
ATOM     21  C   UNL     1      -2.860  -3.089   0.013  0.00  0.00    -0.037 A 
ATOM     22  C   UNL     1      -3.469  -3.401   1.214  0.00  0.00    +0.006 A 
ATOM     23  C   UNL     1      -4.716  -3.995   1.224  0.00  0.00    +0.020 A 
ATOM     24  C   UNL     1      -5.351  -4.289   0.030  0.00  0.00    +0.041 A 
ATOM     25  C   UNL     1      -4.739  -3.982  -1.172  0.00  0.00    +0.020 A 
ATOM     26  C   UNL     1      -3.494  -3.383  -1.180  0.00  0.00    +0.006 A 
ATOM     27 CL   UNL     1      -6.915  -5.042   0.041  0.00  0.00    -0.084 Cl
ENDBRANCH  20  21
ENDBRANCH  19  20
ENDBRANCH  18  19
ENDBRANCH  17  18
ENDBRANCH   3  17
TORSDOF 8
