REMARK  Name = ZINC10441714
REMARK  8 active torsions:
REMARK  status: ('A' for Active; 'I' for Inactive)
REMARK    1  A    between atoms: C_1  and  C_2
REMARK    2  A    between atoms: C_4  and  C_33
REMARK    3  A    between atoms: C_5  and  N_9
REMARK    4  A    between atoms: C_6  and  C_8
REMARK    5  A    between atoms: C_10  and  C_12
REMARK    6  A    between atoms: C_12  and  S_13
REMARK    7  A    between atoms: S_13  and  C_14
REMARK    8  A    between atoms: N_24  and  C_25
REMARK                            x       y       z     vdW  Elec       q    Type
REMARK                         _______ _______ _______ _____ _____    ______ ____
ROOT
ATOM      1  C   UNL     1       4.930   1.369  -0.942  0.00  0.00    +0.177 A 
ATOM      2  N   UNL     1       4.934   0.344  -0.126  0.00  0.00    -0.223 NA
ATOM      3  C   UNL     1       6.071  -0.312   0.179  0.00  0.00    +0.079 A 
ATOM      4  C   UNL     1       6.075  -1.409   1.045  0.00  0.00    +0.028 A 
ATOM      5  C   UNL     1       7.252  -2.041   1.333  0.00  0.00    +0.002 A 
ATOM      6  C   UNL     1       8.449  -1.609   0.776  0.00  0.00    +0.001 A 
ATOM      7  C   UNL     1       8.478  -0.539  -0.075  0.00  0.00    +0.015 A 
ATOM      8  C   UNL     1       7.292   0.124  -0.386  0.00  0.00    +0.065 A 
ATOM      9  C   UNL     1       7.263   1.279  -1.293  0.00  0.00    +0.267 A 
ATOM     10  O   UNL     1       8.281   1.702  -1.810  0.00  0.00    -0.267 OA
ATOM     11  N   UNL     1       6.063   1.857  -1.532  0.00  0.00    -0.253 N 
ENDROOT
BRANCH  11  12
ATOM     12  C   UNL     1       5.980   2.962  -2.391  0.00  0.00    +0.087 A 
ATOM     13  C   UNL     1       6.108   4.248  -1.883  0.00  0.00    +0.032 A 
ATOM     14  C   UNL     1       6.027   5.336  -2.730  0.00  0.00    +0.040 A 
ATOM     15  C   UNL     1       5.817   5.146  -4.086  0.00  0.00    +0.126 A 
ATOM     16  C   UNL     1       5.690   3.866  -4.596  0.00  0.00    +0.078 A 
ATOM     17  C   UNL     1       5.776   2.773  -3.753  0.00  0.00    +0.150 A 
ATOM     18  F   UNL     1       5.657   1.523  -4.251  0.00  0.00    -0.203 F 
ATOM     19  F   UNL     1       5.738   6.213  -4.911  0.00  0.00    -0.205 F 
ENDBRANCH  11  12
BRANCH   1  20
ATOM     20  S   UNL     1       3.394   2.160  -1.290  0.00  0.00    -0.078 S 
BRANCH  20  21
ATOM     21  C   UNL     1       2.283   1.144  -0.286  0.00  0.00    +0.173 C 
BRANCH  21  23
ATOM     22  N   UNL     1      -0.134   1.043   0.231  0.00  0.00    -0.284 N 
ATOM     23  C   UNL     1       0.871   1.650  -0.431  0.00  0.00    +0.228 C 
ATOM     24  O   UNL     1       0.639   2.604  -1.142  0.00  0.00    -0.275 OA
ATOM     25  H   UNL     1       0.043   0.248   0.758  0.00  0.00    +0.155 HD
BRANCH  22  30
ATOM     26  C   UNL     1      -5.403   3.122  -0.085  0.00  0.00    +0.044 C 
ATOM     27  C   UNL     1      -4.004   2.570  -0.001  0.00  0.00    -0.050 A 
ATOM     28  C   UNL     1      -3.770   1.236  -0.281  0.00  0.00    +0.008 A 
ATOM     29  C   UNL     1      -2.489   0.726  -0.205  0.00  0.00    -0.029 A 
ATOM     30  C   UNL     1      -1.434   1.556   0.153  0.00  0.00    +0.039 A 
ATOM     31  C   UNL     1      -1.672   2.894   0.438  0.00  0.00    -0.029 A 
ATOM     32  C   UNL     1      -2.955   3.398   0.355  0.00  0.00    +0.008 A 
ATOM     33  C   UNL     1      -0.531   3.795   0.834  0.00  0.00    +0.045 C 
ATOM     34  C   UNL     1      -2.236  -0.728  -0.509  0.00  0.00    +0.045 C 
ENDBRANCH  22  30
ENDBRANCH  21  23
ENDBRANCH  20  21
ENDBRANCH   1  20
TORSDOF 5
