REMARK  Name = ZINC13205135
REMARK  13 active torsions:
REMARK  status: ('A' for Active; 'I' for Inactive)
REMARK    1  A    between atoms: C_1  and  C_2
REMARK    2  A    between atoms: C_5  and  C_8
REMARK    3  A    between atoms: C_11  and  S_16
REMARK    4  A    between atoms: N_12  and  C_13
REMARK    5  A    between atoms: C_13  and  C_14
REMARK    6  A    between atoms: S_16  and  C_17
REMARK    7  A    between atoms: C_17  and  C_18
REMARK    8  A    between atoms: N_20  and  C_21
REMARK    9  A    between atoms: C_22  and  C_28
REMARK   10  A    between atoms: C_23  and  C_27
REMARK   11  A    between atoms: C_24  and  C_26
REMARK   12  A    between atoms: C_28  and  O_30
REMARK   13  A    between atoms: O_30  and  C_31
REMARK                            x       y       z     vdW  Elec       q    Type
REMARK                         _______ _______ _______ _____ _____    ______ ____
ROOT
ATOM      1  S   UNL     1       1.027   3.697   1.777  0.00  0.00    -0.077 S 
ENDROOT
BRANCH   1   5
ATOM      2  C   UNL     1      -1.771   0.971   1.844  0.00  0.00    +0.165 A 
ATOM      3  N   UNL     1      -2.159   1.805   2.780  0.00  0.00    -0.128 NA
ATOM      4  N   UNL     1      -1.325   2.778   2.875  0.00  0.00    -0.122 NA
ATOM      5  C   UNL     1      -0.349   2.621   2.008  0.00  0.00    +0.193 A 
ATOM      6  N   UNL     1      -0.601   1.469   1.319  0.00  0.00    -0.291 N 
BRANCH   2  11
ATOM      7  C   UNL     1      -4.455  -3.861   0.241  0.00  0.00    +0.044 C 
ATOM      8  C   UNL     1      -3.752  -2.596   0.661  0.00  0.00    -0.050 A 
ATOM      9  C   UNL     1      -4.038  -2.023   1.887  0.00  0.00    +0.004 A 
ATOM     10  C   UNL     1      -3.398  -0.865   2.278  0.00  0.00    +0.012 A 
ATOM     11  C   UNL     1      -2.460  -0.271   1.432  0.00  0.00    +0.019 A 
ATOM     12  C   UNL     1      -2.180  -0.850   0.194  0.00  0.00    +0.012 A 
ATOM     13  C   UNL     1      -2.823  -2.011  -0.182  0.00  0.00    +0.004 A 
ENDBRANCH   2  11
BRANCH   6  14
ATOM     14  C   UNL     1       0.209   0.884   0.247  0.00  0.00    +0.250 C 
BRANCH  14  15
ATOM     15  C   UNL     1      -0.240   1.437  -1.081  0.00  0.00    +0.375 C 
ATOM     16  O   UNL     1      -1.143   2.238  -1.128  0.00  0.00    -0.244 OA
ATOM     17  O   UNL     1       0.364   1.039  -2.212  0.00  0.00    -0.244 OA
ENDBRANCH  14  15
ENDBRANCH   6  14
ENDBRANCH   1   5
BRANCH   1  18
ATOM     18  C   UNL     1       0.656   4.954   3.026  0.00  0.00    +0.173 C 
BRANCH  18  19
ATOM     19  C   UNL     1       1.731   6.010   3.011  0.00  0.00    +0.228 C 
ATOM     20  O   UNL     1       2.657   5.921   2.232  0.00  0.00    -0.275 OA
ATOM     21  N   UNL     1       1.664   7.052   3.862  0.00  0.00    -0.279 N 
ATOM     22  H   UNL     1       0.923   7.123   4.485  0.00  0.00    +0.155 HD
BRANCH  21  23
ATOM     23  C   UNL     1       2.653   8.023   3.848  0.00  0.00    +0.086 A 
ATOM     24  C   UNL     1       2.757   9.162   4.641  0.00  0.00    +0.091 A 
ATOM     25  C   UNL     1       3.903  10.009   4.411  0.00  0.00    -0.025 A 
ATOM     26  C   UNL     1       4.768   9.627   3.454  0.00  0.00    -0.008 A 
ATOM     27  S   UNL     1       4.061   8.110   2.845  0.00  0.00    -0.078 S 
ATOM     28  C   UNL     1       6.033  10.314   3.010  0.00  0.00    +0.052 C 
ATOM     29  C   UNL     1       4.121  11.269   5.209  0.00  0.00    +0.045 C 
BRANCH  24  30
ATOM     30  C   UNL     1       1.754   9.484   5.658  0.00  0.00    +0.342 C 
ATOM     31  O   UNL     1       1.886   9.071   6.795  0.00  0.00    -0.245 OA
BRANCH  30  32
ATOM     32  O   UNL     1       0.685  10.240   5.335  0.00  0.00    -0.464 OA
ATOM     33  C   UNL     1      -0.269  10.520   6.394  0.00  0.00    +0.280 C 
ENDBRANCH  30  32
ENDBRANCH  24  30
ENDBRANCH  21  23
ENDBRANCH  18  19
ENDBRANCH   1  18
TORSDOF 9
