REMARK  Name = ZINC35593411
REMARK  13 active torsions:
REMARK  status: ('A' for Active; 'I' for Inactive)
REMARK    1  A    between atoms: C_1  and  C_2
REMARK    2  A    between atoms: C_2  and  C_3
REMARK    3  A    between atoms: C_2  and  C_4
REMARK    4  A    between atoms: C_2  and  C_5
REMARK    5  A    between atoms: N_8  and  C_10
REMARK    6  A    between atoms: N_11  and  C_23
REMARK    7  A    between atoms: C_16  and  C_18
REMARK    8  A    between atoms: C_23  and  C_24
REMARK    9  A    between atoms: N_26  and  C_27
REMARK   10  A    between atoms: C_27  and  C_28
REMARK   11  A    between atoms: C_28  and  C_29
REMARK   12  A    between atoms: C_29  and  O_30
REMARK   13  A    between atoms: O_30  and  C_31
REMARK                            x       y       z     vdW  Elec       q    Type
REMARK                         _______ _______ _______ _____ _____    ______ ____
ROOT
ATOM      1  C   UNL     1      -0.859  -0.336  -0.810  0.00  0.00    +0.075 A 
ATOM      2  C   UNL     1       0.396  -0.785  -1.223  0.00  0.00    +0.034 A 
ATOM      3  C   UNL     1       0.316  -1.085  -2.540  0.00  0.00    +0.131 A 
ATOM      4  N   UNL     1      -0.940  -0.833  -2.954  0.00  0.00    -0.253 N 
ATOM      5  N   UNL     1      -1.664  -0.369  -1.844  0.00  0.00    -0.174 NA
ATOM      6  C   UNL     1      -1.458  -1.014  -4.312  0.00  0.00    +0.174 C 
ATOM      7  N   UNL     1       1.392  -1.577  -3.295  0.00  0.00    -0.246 N 
ATOM      8  C   UNL     1       2.100  -2.599  -2.805  0.00  0.00    +0.231 C 
ATOM      9  O   UNL     1       3.196  -2.849  -3.262  0.00  0.00    -0.274 OA
ATOM     10  C   UNL     1       1.547  -3.437  -1.692  0.00  0.00    +0.166 C 
ATOM     11  S   UNL     1       1.941  -2.699  -0.071  0.00  0.00    -0.138 S 
ATOM     12  C   UNL     1       1.640  -0.922  -0.383  0.00  0.00    +0.118 C 
ENDROOT
BRANCH  12  13
ATOM     13  C   UNL     1       1.446  -0.203   0.928  0.00  0.00    +0.007 A 
ATOM     14  C   UNL     1       0.945  -0.677   2.095  0.00  0.00    +0.012 A 
ATOM     15  C   UNL     1       0.860   0.173   3.182  0.00  0.00    +0.008 A 
ATOM     16  C   UNL     1       1.281   1.454   3.049  0.00  0.00    +0.045 A 
ATOM     17  S   UNL     1       1.825   1.490   1.349  0.00  0.00    -0.100 S 
ENDBRANCH  12  13
BRANCH   1  19
ATOM     18  C   UNL     1      -2.675   0.594   0.599  0.00  0.00    +0.017 C 
ATOM     19  C   UNL     1      -1.227   0.103   0.584  0.00  0.00    +0.007 C 
ATOM     20  C   UNL     1      -0.299   1.238   1.023  0.00  0.00    +0.017 C 
ATOM     21  C   UNL     1      -1.079  -1.077   1.547  0.00  0.00    +0.017 C 
ENDBRANCH   1  19
BRANCH   7  22
ATOM     22  C   UNL     1       1.730  -0.986  -4.592  0.00  0.00    +0.210 C 
BRANCH  22  23
ATOM     23  C   UNL     1       2.829   0.029  -4.410  0.00  0.00    +0.231 C 
ATOM     24  O   UNL     1       3.286   0.237  -3.305  0.00  0.00    -0.274 OA
ATOM     25  N   UNL     1       3.306   0.705  -5.474  0.00  0.00    -0.314 N 
ATOM     26  H   UNL     1       2.941   0.539  -6.357  0.00  0.00    +0.149 HD
BRANCH  25  27
ATOM     27  C   UNL     1       4.375   1.691  -5.296  0.00  0.00    +0.106 C 
BRANCH  27  28
ATOM     28  C   UNL     1       4.728   2.309  -6.651  0.00  0.00    +0.047 C 
BRANCH  28  29
ATOM     29  C   UNL     1       5.844   3.339  -6.465  0.00  0.00    +0.161 C 
BRANCH  29  30
ATOM     30  O   UNL     1       6.174   3.917  -7.730  0.00  0.00    -0.383 OA
ATOM     31  C   UNL     1       7.212   4.897  -7.669  0.00  0.00    +0.193 C 
ENDBRANCH  29  30
ENDBRANCH  28  29
ENDBRANCH  27  28
ENDBRANCH  25  27
ENDBRANCH  22  23
ENDBRANCH   7  22
TORSDOF 8
