REMARK  Name = ZINC23741869
REMARK  8 active torsions:
REMARK  status: ('A' for Active; 'I' for Inactive)
REMARK    1  A    between atoms: C_1  and  C_2
REMARK    2  A    between atoms: C_2  and  C_4
REMARK    3  A    between atoms: C_2  and  O_23
REMARK    4  A    between atoms: N_6  and  C_7
REMARK    5  A    between atoms: C_9  and  C_19
REMARK    6  A    between atoms: C_12  and  N_13
REMARK    7  A    between atoms: O_23  and  C_24
REMARK    8  A    between atoms: C_24  and  C_26
REMARK                            x       y       z     vdW  Elec       q    Type
REMARK                         _______ _______ _______ _____ _____    ______ ____
ROOT
ATOM      1  C   UNL     1       1.393   2.495   4.772  0.00  0.00    +0.258 C 
ATOM      2  O   UNL     1       1.964   2.104   3.776  0.00  0.00    -0.271 OA
ATOM      3  N   UNL     1       0.081   2.798   4.721  0.00  0.00    -0.281 N 
ATOM      4  H   UNL     1      -0.421   3.222   5.604  0.00  0.00    +0.155 HD
ENDROOT
BRANCH   3   5
ATOM      5  C   UNL     1      -0.646   2.572   3.544  0.00  0.00    +0.055 A 
ATOM      6  C   UNL     1      -0.038   2.741   2.309  0.00  0.00    +0.037 A 
ATOM      7  C   UNL     1      -0.756   2.517   1.149  0.00  0.00    +0.057 A 
ATOM      8  C   UNL     1      -2.082   2.130   1.216  0.00  0.00    +0.014 A 
ATOM      9  C   UNL     1      -2.694   1.954   2.442  0.00  0.00    +0.025 A 
ATOM     10  C   UNL     1      -1.981   2.176   3.611  0.00  0.00    +0.051 A 
BRANCH  10  11
ATOM     11  N   UNL     1      -2.600   2.003   4.854  0.00  0.00    -0.324 N 
ATOM     12  C   UNL     1      -3.002   0.603   5.053  0.00  0.00    +0.133 C 
ATOM     13  C   UNL     1      -3.619   0.448   6.445  0.00  0.00    +0.178 C 
ATOM     14  O   UNL     1      -4.720   1.350   6.577  0.00  0.00    -0.377 OA
ATOM     15  C   UNL     1      -4.364   2.723   6.390  0.00  0.00    +0.178 C 
ATOM     16  C   UNL     1      -3.755   2.902   4.997  0.00  0.00    +0.133 C 
ENDBRANCH  10  11
BRANCH   7  17
ATOM     17  C   UNL     1      -0.094   2.701  -0.192  0.00  0.00    +0.417 C 
ATOM     18  F   UNL     1       0.486   1.494  -0.595  0.00  0.00    -0.166 F 
ATOM     19  F   UNL     1       0.897   3.684  -0.091  0.00  0.00    -0.166 F 
ATOM     20  F   UNL     1      -1.050   3.097  -1.133  0.00  0.00    -0.166 F 
ENDBRANCH   7  17
ENDBRANCH   3   5
BRANCH   1  22
ATOM     21  C   UNL     1       1.603   1.653   7.095  0.00  0.00    +0.062 C 
ATOM     22  C   UNL     1       2.151   2.644   6.066  0.00  0.00    +0.259 C 
BRANCH  22  23
ATOM     23  O   UNL     1       3.559   2.373   5.836  0.00  0.00    -0.449 OA
BRANCH  23  24
ATOM     24  C   UNL     1       4.442   3.017   6.624  0.00  0.00    +0.340 C 
ATOM     25  O   UNL     1       4.047   3.784   7.480  0.00  0.00    -0.245 OA
BRANCH  24  26
ATOM     26  C   UNL     1       5.888   2.792   6.448  0.00  0.00    +0.060 A 
ATOM     27  C   UNL     1       6.356   1.910   5.463  0.00  0.00    +0.017 A 
ATOM     28  C   UNL     1       7.681   1.689   5.284  0.00  0.00    +0.030 A 
ATOM     29  C   UNL     1       8.647   2.343   6.088  0.00  0.00    +0.080 A 
ATOM     30  C   UNL     1       8.150   3.229   7.075  0.00  0.00    +0.042 A 
ATOM     31  C   UNL     1       6.815   3.460   7.256  0.00  0.00    +0.032 A 
ATOM     32  S   UNL     1       9.641   3.821   7.838  0.00  0.00    -0.053 S 
ATOM     33  C   UNL     1      10.791   2.890   6.836  0.00  0.00    +0.157 A 
ATOM     34  N   UNL     1       9.988   2.227   6.031  0.00  0.00    -0.225 NA
ATOM     35  N   UNL     1      12.167   2.871   6.891  0.00  0.00    -0.337 N 
ATOM     36  H   UNL     1      12.737   2.236   6.196  0.00  0.00    +0.144 HD
ATOM     37  H   UNL     1      12.697   3.490   7.630  0.00  0.00    +0.144 HD
ENDBRANCH  24  26
ENDBRANCH  23  24
ENDBRANCH  22  23
ENDBRANCH   1  22
TORSDOF 7
