REMARK  Name = ZINC36151325
REMARK  6 active torsions:
REMARK  status: ('A' for Active; 'I' for Inactive)
REMARK    1  A    between atoms: C_1  and  C_2
REMARK    2  A    between atoms: C_2  and  C_3
REMARK    3  A    between atoms: C_2  and  C_4
REMARK    4  A    between atoms: C_2  and  C_5
REMARK    5  A    between atoms: C_12  and  C_15
REMARK    6  A    between atoms: C_15  and  C_16
REMARK                            x       y       z     vdW  Elec       q    Type
REMARK                         _______ _______ _______ _____ _____    ______ ____
ROOT
ATOM      1  C   UNL     1       0.718  -0.497  -1.257  0.00  0.00    +0.103 C 
ATOM      2  C   UNL     1      -0.040   0.000  -2.497  0.00  0.00    +0.101 C 
ATOM      3  S   UNL     1       0.678  -0.857  -3.942  0.00  0.00    -0.083 S 
ATOM      4  C   UNL     1       2.397  -0.797  -3.534  0.00  0.00    +0.209 A 
ATOM      5  N   UNL     1       3.427  -1.085  -4.271  0.00  0.00    -0.121 NA
ATOM      6  N   UNL     1       4.504  -0.919  -3.581  0.00  0.00    -0.132 NA
ATOM      7  C   UNL     1       4.209  -0.515  -2.375  0.00  0.00    +0.156 A 
ATOM      8  N   UNL     1       2.850  -0.412  -2.301  0.00  0.00    -0.225 N 
ATOM      9  N   UNL     1       2.094  -0.002  -1.252  0.00  0.00    -0.277 N 
ATOM     10  H   UNL     1       2.116   1.003  -1.161  0.00  0.00    +0.167 HD
ENDROOT
BRANCH   1  12
ATOM     11  C   UNL     1      -0.019   1.526   0.010  0.00  0.00    +0.012 C 
ATOM     12  C   UNL     1       0.002  -0.004   0.002  0.00  0.00    -0.017 C 
ATOM     13  C   UNL     1       0.742  -0.511   1.242  0.00  0.00    +0.012 C 
ATOM     14  C   UNL     1      -1.433  -0.534   0.013  0.00  0.00    +0.012 C 
ENDBRANCH   1  12
BRANCH   7  15
ATOM     15  C   UNL     1       5.188  -0.218  -1.269  0.00  0.00    +0.113 C 
BRANCH  15  16
ATOM     16  C   UNL     1       5.593   1.232  -1.333  0.00  0.00    -0.040 A 
ATOM     17  C   UNL     1       6.683   1.612  -2.093  0.00  0.00    +0.007 A 
ATOM     18  C   UNL     1       7.055   2.942  -2.153  0.00  0.00    +0.038 A 
ATOM     19  C   UNL     1       6.335   3.893  -1.450  0.00  0.00    +0.123 A 
ATOM     20  C   UNL     1       5.244   3.512  -0.689  0.00  0.00    +0.038 A 
ATOM     21  C   UNL     1       4.871   2.182  -0.635  0.00  0.00    +0.007 A 
ATOM     22  F   UNL     1       6.699   5.193  -1.508  0.00  0.00    -0.205 F 
ENDBRANCH  15  16
ENDBRANCH   7  15
TORSDOF 3
