REMARK  Name = ZINC39687657
REMARK  7 active torsions:
REMARK  status: ('A' for Active; 'I' for Inactive)
REMARK    1  A    between atoms: C_1  and  C_2
REMARK    2  A    between atoms: C_2  and  C_3
REMARK    3  A    between atoms: C_3  and  C_5
REMARK    4  A    between atoms: C_3  and  C_11
REMARK    5  A    between atoms: C_15  and  C_24
REMARK    6  A    between atoms: N_26  and  C_27
REMARK    7  A    between atoms: C_34  and  C_39
REMARK                            x       y       z     vdW  Elec       q    Type
REMARK                         _______ _______ _______ _____ _____    ______ ____
ROOT
ATOM      1  C   UNL     1      -1.929  -0.067  -0.976  0.00  0.00    +0.223 C 
ATOM      2  O   UNL     1      -2.558  -0.890  -1.608  0.00  0.00    -0.275 OA
ATOM      3  N   UNL     1      -1.996   1.236  -1.313  0.00  0.00    -0.300 N 
ATOM      4  C   UNL     1      -1.377   2.388  -0.616  0.00  0.00    +0.121 C 
ATOM      5  C   UNL     1      -0.882   3.312  -1.751  0.00  0.00    +0.100 C 
ATOM      6  C   UNL     1      -1.759   2.950  -2.962  0.00  0.00    -0.004 C 
ATOM      7  C   UNL     1      -2.700   1.841  -2.470  0.00  0.00    +0.115 C 
ATOM      8  C   UNL     1      -0.893   2.429  -4.105  0.00  0.00    -0.010 C 
ATOM      9  C   UNL     1      -1.780   2.130  -5.316  0.00  0.00    -0.082 C 
ATOM     10  N   UNL     1      -2.482   3.353  -5.725  0.00  0.00    +0.379 N 
ATOM     11  C   UNL     1      -3.383   3.795  -4.654  0.00  0.00    -0.082 C 
ATOM     12  C   UNL     1      -2.563   4.164  -3.414  0.00  0.00    -0.010 C 
ATOM     13  H   UNL     1      -1.807   4.078  -5.916  0.00  0.00    -0.086 HD
ATOM     14  H   UNL     1      -3.018   3.168  -6.559  0.00  0.00    -0.086 HD
ENDROOT
BRANCH   5  15
ATOM     15  C   UNL     1      -1.076   4.758  -1.374  0.00  0.00    +0.218 C 
ATOM     16  O   UNL     1      -1.968   5.071  -0.614  0.00  0.00    -0.275 OA
ATOM     17  N   UNL     1      -0.260   5.702  -1.880  0.00  0.00    -0.312 N 
ATOM     18  H   UNL     1       0.454   5.452  -2.488  0.00  0.00    +0.149 HD
BRANCH  17  19
ATOM     19  C   UNL     1      -0.448   7.108  -1.513  0.00  0.00    +0.076 C 
ATOM     20  C   UNL     1      -1.503   7.736  -2.427  0.00  0.00    +0.041 C 
ATOM     21  C   UNL     1      -1.723   9.196  -2.017  0.00  0.00    +0.108 C 
ATOM     22  N   UNL     1      -0.428   9.889  -2.025  0.00  0.00    -0.316 N 
ATOM     23  C   UNL     1       0.683   9.319  -1.251  0.00  0.00    +0.108 C 
ATOM     24  C   UNL     1       0.876   7.858  -1.669  0.00  0.00    +0.041 C 
ATOM     25  C   UNL     1      -0.257  11.063  -2.751  0.00  0.00    +0.102 A 
ATOM     26  C   UNL     1      -0.418  12.293  -2.120  0.00  0.00    -0.012 A 
ATOM     27  C   UNL     1      -0.245  13.452  -2.854  0.00  0.00    +0.008 A 
ATOM     28  C   UNL     1       0.084  13.342  -4.199  0.00  0.00    +0.018 A 
ATOM     29  C   UNL     1       0.228  12.089  -4.760  0.00  0.00    +0.084 A 
ATOM     30  N   UNL     1       0.062  11.000  -4.034  0.00  0.00    -0.349 N 
ATOM     31  C   UNL     1      -0.776  12.361  -0.658  0.00  0.00    +0.047 C 
ATOM     32  H   UNL     1       0.173  10.131  -4.452  0.00  0.00    +0.167 HD
ENDBRANCH  17  19
ENDBRANCH   5  15
BRANCH   1  33
ATOM     33  C   UNL     1      -1.074  -0.502   0.186  0.00  0.00    +0.105 C 
BRANCH  33  34
ATOM     34  C   UNL     1      -1.912  -0.542   1.439  0.00  0.00    -0.036 A 
ATOM     35  C   UNL     1      -3.011  -1.377   1.508  0.00  0.00    +0.004 A 
ATOM     36  C   UNL     1      -3.779  -1.413   2.657  0.00  0.00    +0.000 A 
ATOM     37  C   UNL     1      -3.447  -0.616   3.736  0.00  0.00    +0.000 A 
ATOM     38  C   UNL     1      -2.347   0.218   3.667  0.00  0.00    +0.000 A 
ATOM     39  C   UNL     1      -1.577   0.252   2.520  0.00  0.00    +0.004 A 
ENDBRANCH  33  34
BRANCH  33  41
ATOM     40  C   UNL     1       0.457  -1.825  -1.279  0.00  0.00    +0.005 C 
ATOM     41  C   UNL     1      -0.506  -1.895  -0.092  0.00  0.00    +0.014 C 
ENDBRANCH  33  41
ENDBRANCH   1  33
TORSDOF 5
