REMARK  Name = ZINC08771680
REMARK  2 active torsions:
REMARK  status: ('A' for Active; 'I' for Inactive)
REMARK    1  A    between atoms: C_6  and  N_7
REMARK    2  A    between atoms: C_12  and  C_14
REMARK                            x       y       z     vdW  Elec       q    Type
REMARK                         _______ _______ _______ _____ _____    ______ ____
ROOT
ATOM      1  N   UNL     1      -1.199  -0.721   0.010  0.00  0.00    -0.239 N 
ATOM      2  C   UNL     1      -1.144  -2.071  -0.096  0.00  0.00    +0.117 A 
ATOM      3  C   UNL     1      -2.276  -2.815  -0.094  0.00  0.00    +0.073 A 
ATOM      4  C   UNL     1      -3.515  -2.135   0.023  0.00  0.00    +0.212 A 
ATOM      5  O   UNL     1      -4.575  -2.740   0.032  0.00  0.00    -0.285 OA
ATOM      6  C   UNL     1      -3.469  -0.668   0.133  0.00  0.00    +0.193 A 
ATOM      7  N   UNL     1      -2.297  -0.069   0.123  0.00  0.00    -0.158 NA
ENDROOT
BRANCH   6   8
ATOM      8  C   UNL     1      -4.713   0.116   0.259  0.00  0.00    +0.274 C 
ATOM      9  O   UNL     1      -5.790  -0.450   0.271  0.00  0.00    -0.268 OA
ATOM     10  N   UNL     1      -4.657   1.459   0.359  0.00  0.00    -0.259 N 
ATOM     11  C   UNL     1      -5.824   2.194   0.476  0.00  0.00    +0.166 A 
ATOM     12  N   UNL     1      -7.065   1.768   0.514  0.00  0.00    -0.225 NA
ATOM     13  C   UNL     1      -8.117   2.608   0.633  0.00  0.00    +0.080 A 
ATOM     14  C   UNL     1      -9.492   2.281   0.685  0.00  0.00    +0.032 A 
ATOM     15  C   UNL     1     -10.441   3.262   0.807  0.00  0.00    +0.040 A 
ATOM     16  C   UNL     1     -10.091   4.604   0.884  0.00  0.00    +0.125 A 
ATOM     17  C   UNL     1      -8.754   4.959   0.837  0.00  0.00    +0.055 A 
ATOM     18  C   UNL     1      -7.798   3.982   0.714  0.00  0.00    +0.043 A 
ATOM     19  S   UNL     1      -6.024   3.964   0.623  0.00  0.00    -0.052 S 
ATOM     20  F   UNL     1     -11.046   5.553   1.004  0.00  0.00    -0.205 F 
ATOM     21  H   UNL     1      -3.798   1.910   0.349  0.00  0.00    +0.157 HD
ENDBRANCH   6   8
BRANCH   1  27
ATOM     22  C   UNL     1      -0.017   1.385  -0.037  0.00  0.00    +0.030 A 
ATOM     23  C   UNL     1       1.170   2.090  -0.045  0.00  0.00    +0.040 A 
ATOM     24  C   UNL     1       2.379   1.414  -0.013  0.00  0.00    +0.124 A 
ATOM     25  C   UNL     1       2.400   0.030   0.026  0.00  0.00    +0.040 A 
ATOM     26  C   UNL     1       1.216  -0.680   0.033  0.00  0.00    +0.030 A 
ATOM     27  C   UNL     1       0.002  -0.004   0.002  0.00  0.00    +0.066 A 
ATOM     28  F   UNL     1       3.539   2.107  -0.021  0.00  0.00    -0.205 F 
ENDBRANCH   1  27
TORSDOF 2
