REMARK  Name = ZINC40023891
REMARK  6 active torsions:
REMARK  status: ('A' for Active; 'I' for Inactive)
REMARK    1  A    between atoms: C_1  and  C_2
REMARK    2  A    between atoms: C_2  and  C_4
REMARK    3  A    between atoms: C_2  and  N_7
REMARK    4  A    between atoms: C_4  and  C_5
REMARK    5  A    between atoms: C_4  and  C_6
REMARK    6  A    between atoms: N_10  and  C_11
REMARK                            x       y       z     vdW  Elec       q    Type
REMARK                         _______ _______ _______ _____ _____    ______ ____
ROOT
ATOM      1  N   UNL     1      -1.367  -0.527   0.013  0.00  0.00    -0.296 N 
ATOM      2  C   UNL     1      -2.027  -0.659   1.181  0.00  0.00    +0.304 C 
ATOM      3  O   UNL     1      -1.481  -0.361   2.225  0.00  0.00    -0.253 OA
ATOM      4  N   UNL     1      -3.293  -1.122   1.190  0.00  0.00    -0.268 N 
ATOM      5  H   UNL     1      -1.802  -0.765  -0.820  0.00  0.00    +0.151 HD
ATOM      6  H   UNL     1      -3.757  -1.282   0.354  0.00  0.00    +0.156 HD
ENDROOT
BRANCH   4   7
ATOM      7  C   UNL     1      -3.939  -1.371   2.409  0.00  0.00    +0.057 A 
ATOM      8  C   UNL     1      -3.193  -1.647   3.547  0.00  0.00    +0.074 A 
ATOM      9  C   UNL     1      -3.831  -1.893   4.750  0.00  0.00    +0.168 A 
ATOM     10  C   UNL     1      -5.222  -1.863   4.818  0.00  0.00    +0.168 A 
ATOM     11  C   UNL     1      -5.964  -1.588   3.681  0.00  0.00    +0.071 A 
ATOM     12  C   UNL     1      -5.326  -1.336   2.481  0.00  0.00    +0.066 A 
ATOM     13 CL   UNL     1      -6.258  -0.982   1.060  0.00  0.00    -0.081 Cl
ATOM     14  O   UNL     1      -5.602  -2.135   6.102  0.00  0.00    -0.453 OA
ATOM     15  C   UNL     1      -4.450  -2.733   6.725  0.00  0.00    +0.466 C 
ATOM     16  O   UNL     1      -3.340  -2.184   5.991  0.00  0.00    -0.453 OA
ENDBRANCH   4   7
BRANCH   1  18
ATOM     17  C   UNL     1      -0.007   1.506  -0.002  0.00  0.00    +0.028 C 
ATOM     18  C   UNL     1       0.009  -0.024   0.003  0.00  0.00    +0.074 C 
BRANCH  18  19
ATOM     19  C   UNL     1       0.728  -0.530  -1.249  0.00  0.00    +0.003 C 
ATOM     20  C   UNL     1       0.068   0.069  -2.493  0.00  0.00    +0.009 C 
ATOM     21  C   UNL     1       2.198  -0.110  -1.199  0.00  0.00    +0.009 C 
ENDBRANCH  18  19
ENDBRANCH   1  18
TORSDOF 3
