REMARK  Name = ZINC65074809
REMARK  8 active torsions:
REMARK  status: ('A' for Active; 'I' for Inactive)
REMARK    1  A    between atoms: C_1  and  C_2
REMARK    2  A    between atoms: C_5  and  S_9
REMARK    3  A    between atoms: C_6  and  C_8
REMARK    4  A    between atoms: S_9  and  N_12
REMARK    5  A    between atoms: N_23  and  C_24
REMARK    6  A    between atoms: C_24  and  C_25
REMARK    7  A    between atoms: C_24  and  C_26
REMARK    8  A    between atoms: C_24  and  C_27
REMARK                            x       y       z     vdW  Elec       q    Type
REMARK                         _______ _______ _______ _____ _____    ______ ____
ROOT
ATOM      1  N   UNL     1       1.515  -5.056   0.521  0.00  0.00    -0.176 NA
ATOM      2  C   UNL     1       2.637  -5.133  -0.425  0.00  0.00    +0.111 C 
ATOM      3  C   UNL     1       3.803  -4.304   0.123  0.00  0.00    +0.047 C 
ATOM      4  C   UNL     1       4.143  -4.783   1.538  0.00  0.00    +0.075 C 
ATOM      5  C   UNL     1       2.930  -4.575   2.450  0.00  0.00    +0.047 C 
ATOM      6  C   UNL     1       1.756  -5.401   1.929  0.00  0.00    +0.111 C 
ATOM      7  C   UNL     1       5.310  -3.998   2.066  0.00  0.00    +0.089 C 
ATOM      8  N   UNL     1       6.291  -4.526   2.694  0.00  0.00    -0.374 N 
ATOM      9  C   UNL     1       6.405  -5.955   2.967  0.00  0.00    +0.129 C 
ATOM     10  C   UNL     1       5.045  -6.633   2.791  0.00  0.00    +0.102 C 
ATOM     11  N   UNL     1       4.479  -6.214   1.497  0.00  0.00    -0.303 NA
ATOM     12  N   UNL     1       5.324  -2.643   1.865  0.00  0.00    -0.328 N 
ATOM     13  H   UNL     1       3.670  -6.769   1.260  0.00  0.00    +0.123 HD
ATOM     14  H   UNL     1       4.635  -2.227   1.323  0.00  0.00    +0.148 HD
ATOM     15  H   UNL     1       7.001  -3.943   3.006  0.00  0.00    +0.161 HD
ENDROOT
BRANCH  12  16
ATOM     16  C   UNL     1       6.378  -1.824   2.467  0.00  0.00    +0.025 C 
ATOM     17  C   UNL     1       7.731  -2.215   1.872  0.00  0.00    +0.031 C 
ATOM     18  C   UNL     1       6.102  -0.346   2.180  0.00  0.00    +0.031 C 
ATOM     19  C   UNL     1       6.400  -2.054   3.980  0.00  0.00    +0.031 C 
ENDBRANCH  12  16
BRANCH   1  20
ATOM     20  S   UNL     1       0.012  -4.584   0.012  0.00  0.00    +0.061 S 
ATOM     21  O   UNL     1      -0.907  -5.015   1.007  0.00  0.00    -0.153 OA
ATOM     22  O   UNL     1      -0.099  -4.978  -1.349  0.00  0.00    -0.153 OA
BRANCH  20  27
ATOM     23  C   UNL     1      -0.085   1.448   0.076  0.00  0.00    +0.044 C 
ATOM     24  C   UNL     1      -0.061  -0.059   0.060  0.00  0.00    -0.050 A 
ATOM     25  C   UNL     1      -0.107  -0.738  -1.143  0.00  0.00    +0.005 A 
ATOM     26  C   UNL     1      -0.085  -2.120  -1.158  0.00  0.00    +0.029 A 
ATOM     27  C   UNL     1      -0.016  -2.823   0.031  0.00  0.00    +0.108 A 
ATOM     28  C   UNL     1       0.032  -2.143   1.234  0.00  0.00    -0.024 A 
ATOM     29  C   UNL     1       0.014  -0.761   1.248  0.00  0.00    +0.008 A 
ATOM     30  C   UNL     1       0.107  -2.910   2.529  0.00  0.00    +0.046 C 
ENDBRANCH  20  27
ENDBRANCH   1  20
TORSDOF 3
