REMARK  Name = ZINC58521316
REMARK  3 active torsions:
REMARK  status: ('A' for Active; 'I' for Inactive)
REMARK    1  A    between atoms: C_3  and  N_20
REMARK    2  A    between atoms: C_10  and  N_11
REMARK    3  A    between atoms: C_12  and  C_14
REMARK                            x       y       z     vdW  Elec       q    Type
REMARK                         _______ _______ _______ _____ _____    ______ ____
ROOT
ATOM      1  C   UNL     1      -0.025   1.379  -0.003  0.00  0.00    +0.026 A 
ATOM      2  C   UNL     1       1.155   2.115  -0.019  0.00  0.00    +0.025 A 
ATOM      3  C   UNL     1       2.382   1.486  -0.038  0.00  0.00    +0.038 A 
ATOM      4  C   UNL     1       2.440   0.080  -0.041  0.00  0.00    +0.008 A 
ATOM      5  C   UNL     1       3.660  -0.618  -0.060  0.00  0.00    +0.030 A 
ATOM      6  C   UNL     1       3.635  -1.980  -0.061  0.00  0.00    +0.111 A 
ATOM      7  N   UNL     1       2.495  -2.658  -0.047  0.00  0.00    -0.263 NA
ATOM      8  C   UNL     1       1.320  -2.073  -0.029  0.00  0.00    +0.121 A 
ATOM      9  C   UNL     1       1.237  -0.672  -0.025  0.00  0.00    +0.023 A 
ATOM     10  C   UNL     1      -0.001   0.001  -0.006  0.00  0.00    +0.043 A 
ENDROOT
BRANCH   3  11
ATOM     11  N   UNL     1       3.558   2.238  -0.054  0.00  0.00    -0.329 N 
ATOM     12  C   UNL     1       4.167   2.649  -1.327  0.00  0.00    +0.105 C 
ATOM     13  C   UNL     1       4.374   4.166  -1.308  0.00  0.00    +0.019 C 
ATOM     14  C   UNL     1       5.187   4.551  -0.070  0.00  0.00    +0.003 C 
ATOM     15  C   UNL     1       4.417   4.153   1.191  0.00  0.00    +0.019 C 
ATOM     16  C   UNL     1       4.207   2.640   1.201  0.00  0.00    +0.105 C 
ENDBRANCH   3  11
BRANCH  10  17
ATOM     17  N   UNL     1      -1.196  -0.724   0.010  0.00  0.00    -0.285 N 
ATOM     18  C   UNL     1      -2.260  -0.255   0.693  0.00  0.00    +0.220 C 
ATOM     19  O   UNL     1      -2.207   0.834   1.224  0.00  0.00    -0.275 OA
ATOM     20  H   UNL     1      -1.260  -1.565  -0.470  0.00  0.00    +0.155 HD
BRANCH  18  21
ATOM     21  C   UNL     1      -3.514  -1.084   0.795  0.00  0.00    +0.075 C 
ATOM     22  C   UNL     1      -4.064  -1.352  -0.607  0.00  0.00    +0.013 C 
ATOM     23  C   UNL     1      -5.338  -2.194  -0.503  0.00  0.00    +0.001 C 
ATOM     24  C   UNL     1      -6.383  -1.437   0.319  0.00  0.00    +0.000 C 
ATOM     25  C   UNL     1      -5.833  -1.168   1.721  0.00  0.00    +0.001 C 
ATOM     26  C   UNL     1      -4.560  -0.327   1.617  0.00  0.00    +0.013 C 
ENDBRANCH  18  21
ENDBRANCH  10  17
TORSDOF 3
