REMARK  Name = ZINC36370635
REMARK  10 active torsions:
REMARK  status: ('A' for Active; 'I' for Inactive)
REMARK    1  A    between atoms: C_1  and  C_2
REMARK    2  A    between atoms: C_2  and  C_3
REMARK    3  A    between atoms: C_2  and  O_4
REMARK    4  A    between atoms: O_4  and  C_5
REMARK    5  A    between atoms: C_5  and  C_7
REMARK    6  A    between atoms: C_7  and  C_9
REMARK    7  A    between atoms: C_7  and  N_20
REMARK    8  A    between atoms: C_9  and  C_10
REMARK    9  A    between atoms: N_20  and  C_21
REMARK   10  A    between atoms: C_21  and  C_22
REMARK                            x       y       z     vdW  Elec       q    Type
REMARK                         _______ _______ _______ _____ _____    ______ ____
ROOT
ATOM      1  C   UNL     1      -2.946  -2.263  -0.619  0.00  0.00    +0.040 C 
ENDROOT
BRANCH   1   2
ATOM      2  N   UNL     1      -2.921  -3.548  -1.331  0.00  0.00    +0.391 N 
ATOM      3  H   UNL     1      -3.863  -3.900  -1.423  0.00  0.00    -0.084 HD
ATOM      4  H   UNL     1      -2.521  -3.417  -2.248  0.00  0.00    -0.084 HD
BRANCH   2   5
ATOM      5  C   UNL     1      -2.110  -4.511  -0.575  0.00  0.00    -0.046 C 
BRANCH   5   6
ATOM      6  C   UNL     1      -2.085  -5.829  -1.304  0.00  0.00    -0.064 A 
ATOM      7  C   UNL     1      -3.051  -6.782  -1.044  0.00  0.00    +0.002 A 
ATOM      8  C   UNL     1      -3.028  -7.991  -1.714  0.00  0.00    +0.000 A 
ATOM      9  C   UNL     1      -2.038  -8.247  -2.644  0.00  0.00    +0.000 A 
ATOM     10  C   UNL     1      -1.072  -7.294  -2.905  0.00  0.00    +0.000 A 
ATOM     11  C   UNL     1      -1.098  -6.083  -2.239  0.00  0.00    +0.002 A 
ENDBRANCH   5   6
ENDBRANCH   2   5
ENDBRANCH   1   2
BRANCH   1  12
ATOM     12  C   UNL     1      -1.558  -1.678  -0.590  0.00  0.00    +0.293 C 
ATOM     13  O   UNL     1      -0.641  -2.271  -1.109  0.00  0.00    -0.253 OA
BRANCH  12  14
ATOM     14  O   UNL     1      -1.339  -0.499   0.012  0.00  0.00    -0.463 OA
BRANCH  14  16
ATOM     15  C   UNL     1      -0.019   1.526   0.010  0.00  0.00    +0.052 C 
ATOM     16  C   UNL     1       0.002  -0.004   0.002  0.00  0.00    +0.170 C 
ATOM     17  C   UNL     1       0.742  -0.511   1.242  0.00  0.00    +0.052 C 
ENDBRANCH  14  16
ENDBRANCH  12  14
ENDBRANCH   1  12
BRANCH   1  18
ATOM     18  C   UNL     1      -3.890  -1.299  -1.340  0.00  0.00    +0.004 C 
BRANCH  18  19
ATOM     19  C   UNL     1      -5.322  -1.833  -1.262  0.00  0.00    +0.034 C 
ATOM     20  C   UNL     1      -5.776  -1.837   0.172  0.00  0.00    +0.088 C 
ATOM     21  N   UNL     1      -6.292  -0.796   0.722  0.00  0.00    -0.259 NA
ATOM     22  C   UNL     1      -6.463   0.373   0.028  0.00  0.00    +0.067 A 
ATOM     23  C   UNL     1      -6.648   1.577   0.708  0.00  0.00    +0.028 A 
ATOM     24  C   UNL     1      -6.822   2.746  -0.004  0.00  0.00    +0.002 A 
ATOM     25  C   UNL     1      -6.812   2.728  -1.387  0.00  0.00    +0.000 A 
ATOM     26  C   UNL     1      -6.628   1.537  -2.068  0.00  0.00    +0.006 A 
ATOM     27  C   UNL     1      -6.452   0.363  -1.367  0.00  0.00    -0.021 A 
ATOM     28  C   UNL     1      -6.244  -0.940  -2.096  0.00  0.00    +0.046 C 
ENDBRANCH  18  19
ENDBRANCH   1  18
TORSDOF 8
