REMARK  Name = ZINC01007475
REMARK  6 active torsions:
REMARK  status: ('A' for Active; 'I' for Inactive)
REMARK    1  A    between atoms: C_1  and  C_2
REMARK    2  A    between atoms: C_4  and  O_22
REMARK    3  A    between atoms: C_10  and  O_12
REMARK    4  A    between atoms: O_12  and  C_13
REMARK    5  A    between atoms: C_17  and  S_19
REMARK    6  A    between atoms: S_19  and  C_20
REMARK                            x       y       z     vdW  Elec       q    Type
REMARK                         _______ _______ _______ _____ _____    ______ ____
ROOT
ATOM      1  C   UNL     1       0.249   1.474  -0.015  0.00  0.00    +0.044 C 
ATOM      2  C   UNL     1       0.006  -0.014  -0.004  0.00  0.00    -0.039 A 
ATOM      3  C   UNL     1      -0.230  -0.675  -1.169  0.00  0.00    +0.049 A 
ATOM      4  C   UNL     1      -0.456  -2.055  -1.178  0.00  0.00    +0.118 A 
ATOM      5  C   UNL     1      -0.447  -2.775  -0.018  0.00  0.00    +0.054 A 
ATOM      6  C   UNL     1      -0.206  -2.122   1.202  0.00  0.00    -0.011 A 
ATOM      7  C   UNL     1       0.029  -0.723   1.209  0.00  0.00    -0.015 A 
ATOM      8  C   UNL     1       0.275  -0.070   2.429  0.00  0.00    +0.012 A 
ATOM      9  C   UNL     1       0.290  -0.785   3.586  0.00  0.00    +0.047 A 
ATOM     10  C   UNL     1       0.063  -2.165   3.582  0.00  0.00    +0.131 A 
ATOM     11  C   UNL     1      -0.189  -2.830   2.416  0.00  0.00    +0.055 A 
ENDROOT
BRANCH   4  12
ATOM     12  O   UNL     1      -0.690  -2.688  -2.358  0.00  0.00    -0.507 OA
ATOM     13  H   UNL     1       0.109  -3.013  -2.795  0.00  0.00    +0.292 HD
ENDBRANCH   4  12
BRANCH  10  14
ATOM     14  O   UNL     1       0.085  -2.852   4.754  0.00  0.00    -0.438 OA
BRANCH  14  15
ATOM     15  C   UNL     1      -0.993  -2.754   5.569  0.00  0.00    +0.226 A 
ATOM     16  C   UNL     1      -0.983  -3.349   6.829  0.00  0.00    +0.107 A 
ATOM     17  C   UNL     1      -2.106  -3.223   7.628  0.00  0.00    +0.137 A 
ATOM     18  N   UNL     1      -3.151  -2.545   7.175  0.00  0.00    -0.210 NA
ATOM     19  C   UNL     1      -3.131  -1.990   5.971  0.00  0.00    +0.193 A 
ATOM     20  N   UNL     1      -2.072  -2.085   5.180  0.00  0.00    -0.187 NA
ATOM     21 CL   UNL     1      -2.146  -3.945   9.207  0.00  0.00    -0.062 Cl
BRANCH  19  22
ATOM     22  S   UNL     1      -4.545  -1.099   5.413  0.00  0.00    -0.089 S 
ATOM     23  C   UNL     1      -5.716  -1.224   6.793  0.00  0.00    +0.093 C 
ENDBRANCH  19  22
ENDBRANCH  14  15
ENDBRANCH  10  14
TORSDOF 4
