REMARK  Name = ZINC06667759
REMARK  4 active torsions:
REMARK  status: ('A' for Active; 'I' for Inactive)
REMARK    1  A    between atoms: C_1  and  C_2
REMARK    2  A    between atoms: C_5  and  N_8
REMARK    3  A    between atoms: C_17  and  C_18
REMARK    4  A    between atoms: C_17  and  O_24
REMARK                            x       y       z     vdW  Elec       q    Type
REMARK                         _______ _______ _______ _____ _____    ______ ____
ROOT
ATOM      1  N   UNL     1      -1.852   5.373   0.049  0.00  0.00    -0.259 N 
ATOM      2  C   UNL     1      -2.338   4.124  -0.048  0.00  0.00    +0.250 C 
ATOM      3  O   UNL     1      -3.517   3.842  -0.138  0.00  0.00    -0.270 OA
ATOM      4  C   UNL     1      -1.235   3.144  -0.031  0.00  0.00    +0.045 A 
ATOM      5  C   UNL     1      -1.215   1.750  -0.109  0.00  0.00    +0.013 A 
ATOM      6  C   UNL     1      -0.011   1.078  -0.062  0.00  0.00    +0.001 A 
ATOM      7  C   UNL     1       1.177   1.779   0.051  0.00  0.00    +0.000 A 
ATOM      8  C   UNL     1       1.165   3.162   0.124  0.00  0.00    +0.009 A 
ATOM      9  C   UNL     1      -0.031   3.841   0.084  0.00  0.00    +0.019 A 
ATOM     10  C   UNL     1      -0.389   5.305   0.139  0.00  0.00    +0.189 C 
ENDROOT
BRANCH   1  15
ATOM     11  C   UNL     1      -6.268   4.250  -0.292  0.00  0.00    +0.007 C 
ATOM     12  C   UNL     1      -5.341   5.461  -0.168  0.00  0.00    -0.014 C 
ATOM     13  C   UNL     1      -4.381   5.492  -1.359  0.00  0.00    +0.005 C 
ATOM     14  C   UNL     1      -3.454   6.703  -1.234  0.00  0.00    +0.023 C 
ATOM     15  C   UNL     1      -2.652   6.601   0.065  0.00  0.00    +0.080 C 
ATOM     16  C   UNL     1      -3.612   6.569   1.255  0.00  0.00    +0.023 C 
ATOM     17  C   UNL     1      -4.539   5.358   1.131  0.00  0.00    +0.005 C 
ENDBRANCH   1  15
BRANCH  10  18
ATOM     18  C   UNL     1       0.080   5.904   1.440  0.00  0.00    +0.007 A 
ATOM     19  C   UNL     1      -0.746   5.881   2.549  0.00  0.00    +0.008 A 
ATOM     20  C   UNL     1      -0.314   6.426   3.743  0.00  0.00    +0.000 A 
ATOM     21  C   UNL     1       0.940   7.004   3.826  0.00  0.00    +0.000 A 
ATOM     22  C   UNL     1       1.762   7.032   2.716  0.00  0.00    +0.000 A 
ATOM     23  C   UNL     1       1.333   6.482   1.523  0.00  0.00    +0.008 A 
ENDBRANCH  10  18
BRANCH  10  24
ATOM     24  O   UNL     1       0.203   5.998  -0.962  0.00  0.00    -0.364 OA
ATOM     25  H   UNL     1       1.298   6.049  -1.055  0.00  0.00    +0.213 HD
ENDBRANCH  10  24
TORSDOF 3
