REMARK  Name = ZINC02062681
REMARK  6 active torsions:
REMARK  status: ('A' for Active; 'I' for Inactive)
REMARK    1  A    between atoms: C_1  and  C_2
REMARK    2  A    between atoms: C_2  and  C_3
REMARK    3  A    between atoms: C_2  and  C_4
REMARK    4  A    between atoms: C_2  and  C_5
REMARK    5  A    between atoms: C_8  and  O_26
REMARK    6  A    between atoms: C_9  and  C_11
REMARK                            x       y       z     vdW  Elec       q    Type
REMARK                         _______ _______ _______ _____ _____    ______ ____
ROOT
ATOM      1  C   UNL     1       3.710  -0.717  -0.037  0.00  0.00    +0.194 C 
ATOM      2  N   UNL     1       4.709   0.059   0.721  0.00  0.00    -0.316 N 
ATOM      3  C   UNL     1       4.706  -0.098   2.083  0.00  0.00    +0.080 A 
ATOM      4  C   UNL     1       4.190  -1.237   2.720  0.00  0.00    +0.068 A 
ATOM      5  C   UNL     1       4.273  -1.244   4.172  0.00  0.00    -0.023 A 
ATOM      6  C   UNL     1       4.835  -0.149   4.730  0.00  0.00    -0.005 A 
ATOM      7  S   UNL     1       5.261   0.896   3.362  0.00  0.00    -0.078 S 
ATOM      8  C   UNL     1       5.048   0.115   6.189  0.00  0.00    +0.043 C 
ATOM      9  C   UNL     1       4.194  -0.878   6.990  0.00  0.00    +0.005 C 
ATOM     10  C   UNL     1       4.413  -2.284   6.423  0.00  0.00    +0.005 C 
ATOM     11  C   UNL     1       3.771  -2.392   5.039  0.00  0.00    +0.037 C 
ATOM     12  C   UNL     1       3.620  -2.301   1.862  0.00  0.00    +0.248 C 
ATOM     13  O   UNL     1       3.256  -3.365   2.330  0.00  0.00    -0.270 OA
ATOM     14  N   UNL     1       3.519  -2.043   0.542  0.00  0.00    -0.289 N 
ATOM     15  H   UNL     1       5.337   0.650   0.278  0.00  0.00    +0.149 HD
ATOM     16  H   UNL     1       3.309  -2.778  -0.055  0.00  0.00    +0.151 HD
ENDROOT
BRANCH   1  21
ATOM     17  C   UNL     1       0.002  -0.004   0.002  0.00  0.00    -0.041 A 
ATOM     18  C   UNL     1      -0.017   1.379   0.010  0.00  0.00    +0.008 A 
ATOM     19  C   UNL     1       1.169   2.087   0.002  0.00  0.00    +0.046 A 
ATOM     20  C   UNL     1       2.380   1.409  -0.013  0.00  0.00    +0.123 A 
ATOM     21  C   UNL     1       2.396   0.022  -0.021  0.00  0.00    +0.032 A 
ATOM     22  C   UNL     1       1.207  -0.681  -0.013  0.00  0.00    +0.014 A 
BRANCH  17  24
ATOM     23  C   UNL     1      -2.469   0.205   0.027  0.00  0.00    +0.015 C 
ATOM     24  C   UNL     1      -1.293  -0.774   0.010  0.00  0.00    -0.013 C 
ATOM     25  C   UNL     1      -1.375  -1.648  -1.243  0.00  0.00    +0.015 C 
ATOM     26  C   UNL     1      -1.351  -1.661   1.255  0.00  0.00    +0.015 C 
ENDBRANCH  17  24
BRANCH  20  27
ATOM     27  O   UNL     1       3.548   2.104  -0.021  0.00  0.00    -0.506 OA
ATOM     28  H   UNL     1       3.878   2.309  -0.906  0.00  0.00    +0.292 HD
ENDBRANCH  20  27
ENDBRANCH   1  21
TORSDOF 3
