REMARK  Name = ZINC64921877
REMARK  8 active torsions:
REMARK  status: ('A' for Active; 'I' for Inactive)
REMARK    1  A    between atoms: C_1  and  C_2
REMARK    2  A    between atoms: C_2  and  C_3
REMARK    3  A    between atoms: C_10  and  S_15
REMARK    4  A    between atoms: S_15  and  N_18
REMARK    5  A    between atoms: C_21  and  C_24
REMARK    6  A    between atoms: N_26  and  C_27
REMARK    7  A    between atoms: C_30  and  C_34
REMARK    8  A    between atoms: C_32  and  C_33
REMARK                            x       y       z     vdW  Elec       q    Type
REMARK                         _______ _______ _______ _____ _____    ______ ____
ROOT
ATOM      1  N   UNL     1       1.072  -3.071   6.293  0.00  0.00    -0.177 NA
ATOM      2  C   UNL     1       2.011  -4.014   5.669  0.00  0.00    +0.110 C 
ATOM      3  C   UNL     1       3.035  -3.221   4.852  0.00  0.00    +0.030 C 
ATOM      4  C   UNL     1       3.699  -2.175   5.750  0.00  0.00    +0.078 C 
ATOM      5  C   UNL     1       2.639  -1.201   6.271  0.00  0.00    +0.030 C 
ATOM      6  C   UNL     1       1.610  -1.968   7.100  0.00  0.00    +0.110 C 
ENDROOT
BRANCH   4   7
ATOM      7  C   UNL     1       4.732  -1.415   4.958  0.00  0.00    +0.220 C 
ATOM      8  O   UNL     1       4.919  -1.684   3.790  0.00  0.00    -0.275 OA
ATOM      9  N   UNL     1       5.448  -0.437   5.547  0.00  0.00    -0.285 N 
ATOM     10  H   UNL     1       5.244  -0.167   6.457  0.00  0.00    +0.155 HD
BRANCH   9  11
ATOM     11  C   UNL     1       6.485   0.189   4.848  0.00  0.00    +0.036 A 
ATOM     12  C   UNL     1       7.125  -0.476   3.809  0.00  0.00    +0.024 A 
ATOM     13  C   UNL     1       8.148   0.145   3.120  0.00  0.00    +0.005 A 
ATOM     14  C   UNL     1       8.537   1.427   3.464  0.00  0.00    -0.050 A 
ATOM     15  C   UNL     1       7.903   2.091   4.498  0.00  0.00    +0.008 A 
ATOM     16  C   UNL     1       6.874   1.478   5.186  0.00  0.00    -0.029 A 
ATOM     17  C   UNL     1       6.178   2.206   6.308  0.00  0.00    +0.045 C 
ATOM     18  C   UNL     1       9.654   2.101   2.711  0.00  0.00    +0.044 C 
ENDBRANCH   9  11
ENDBRANCH   4   7
BRANCH   1  19
ATOM     19  S   UNL     1      -0.562  -3.246   6.085  0.00  0.00    +0.061 S 
ATOM     20  O   UNL     1      -1.183  -2.596   7.186  0.00  0.00    -0.153 OA
ATOM     21  O   UNL     1      -0.789  -4.615   5.782  0.00  0.00    -0.153 OA
BRANCH  19  28
ATOM     22  C   UNL     1      -1.462  -0.556   0.049  0.00  0.00    +0.259 C 
ATOM     23  C   UNL     1      -1.436  -2.057  -0.089  0.00  0.00    +0.258 C 
ATOM     24  O   UNL     1      -1.526  -2.569  -1.185  0.00  0.00    -0.271 OA
ATOM     25  N   UNL     1      -1.312  -2.829   1.011  0.00  0.00    -0.279 N 
ATOM     26  C   UNL     1      -1.337  -2.225   2.276  0.00  0.00    +0.078 A 
ATOM     27  C   UNL     1      -0.988  -2.945   3.407  0.00  0.00    +0.055 A 
ATOM     28  C   UNL     1      -1.004  -2.331   4.646  0.00  0.00    +0.107 A 
ATOM     29  C   UNL     1      -1.368  -1.002   4.758  0.00  0.00    +0.032 A 
ATOM     30  C   UNL     1      -1.722  -0.279   3.634  0.00  0.00    +0.049 A 
ATOM     31  C   UNL     1      -1.713  -0.888   2.391  0.00  0.00    +0.143 A 
ATOM     32  O   UNL     1      -2.090  -0.198   1.282  0.00  0.00    -0.478 OA
ATOM     33  H   UNL     1      -1.208  -3.789   0.928  0.00  0.00    +0.155 HD
BRANCH  22  35
ATOM     34  C   UNL     1      -0.058   1.511   0.045  0.00  0.00    +0.008 C 
ATOM     35  C   UNL     1      -0.029  -0.018   0.032  0.00  0.00    +0.051 C 
ENDBRANCH  22  35
ENDBRANCH  19  28
ENDBRANCH   1  19
TORSDOF 5
