REMARK  Name = ZINC13033540
REMARK  11 active torsions:
REMARK  status: ('A' for Active; 'I' for Inactive)
REMARK    1  A    between atoms: C_1  and  O_2
REMARK    2  A    between atoms: O_2  and  C_3
REMARK    3  A    between atoms: C_7  and  C_17
REMARK    4  A    between atoms: C_14  and  O_15
REMARK    5  A    between atoms: O_15  and  C_16
REMARK    6  A    between atoms: C_17  and  N_69
REMARK    7  A    between atoms: C_18  and  C_19
REMARK    8  A    between atoms: C_18  and  N_69
REMARK    9  A    between atoms: N_23  and  C_24
REMARK   10  A    between atoms: C_24  and  C_25
REMARK   11  A    between atoms: C_31  and  N_69
REMARK                            x       y       z     vdW  Elec       q    Type
REMARK                         _______ _______ _______ _____ _____    ______ ____
ROOT
ATOM      1  N   UNL     1       0.071   4.322   0.870  0.00  0.00    +0.389 N 
ATOM      2  H   UNL     1      -0.760   4.908   1.011  0.00  0.00    -0.080 HD
ENDROOT
BRANCH   1   3
ATOM      3  C   UNL     1      -0.218   3.323  -0.180  0.00  0.00    -0.068 C 
ATOM      4  C   UNL     1      -1.555   2.650   0.136  0.00  0.00    -0.015 C 
ATOM      5  C   UNL     1      -1.880   1.626  -0.954  0.00  0.00    -0.002 C 
ATOM      6  C   UNL     1      -0.776   0.568  -1.005  0.00  0.00    -0.000 C 
ATOM      7  C   UNL     1       0.561   1.241  -1.321  0.00  0.00    -0.002 C 
ATOM      8  C   UNL     1       0.886   2.265  -0.231  0.00  0.00    -0.015 C 
ENDBRANCH   1   3
BRANCH   1   9
ATOM      9  C   UNL     1       1.198   5.183   0.452  0.00  0.00    -0.037 C 
BRANCH   9  14
ATOM     10  C   UNL     1      -1.113  10.349  -2.073  0.00  0.00    +0.162 A 
ATOM     11  C   UNL     1      -0.684   9.533  -1.050  0.00  0.00    +0.059 A 
ATOM     12  C   UNL     1      -0.203   8.251  -1.342  0.00  0.00    +0.002 A 
ATOM     13  C   UNL     1       0.254   7.356  -0.279  0.00  0.00    +0.017 A 
ATOM     14  C   UNL     1       0.716   6.126  -0.620  0.00  0.00    +0.001 A 
ATOM     15  C   UNL     1       0.741   5.725  -1.971  0.00  0.00    +0.251 A 
ATOM     16  O   UNL     1       1.155   4.614  -2.253  0.00  0.00    -0.268 OA
ATOM     17  N   UNL     1       0.319   6.537  -2.956  0.00  0.00    -0.322 N 
ATOM     18  H   UNL     1       0.349   6.230  -3.875  0.00  0.00    +0.169 HD
ATOM     19  C   UNL     1      -0.158   7.803  -2.677  0.00  0.00    +0.053 A 
ATOM     20  C   UNL     1      -0.594   8.639  -3.697  0.00  0.00    +0.075 A 
ATOM     21  C   UNL     1      -1.068   9.903  -3.398  0.00  0.00    +0.163 A 
BRANCH  10  23
ATOM     22  C   UNL     1      -1.601  11.989  -0.420  0.00  0.00    +0.277 C 
ATOM     23  O   UNL     1      -1.582  11.595  -1.794  0.00  0.00    -0.491 OA
ENDBRANCH  10  23
BRANCH  21  24
ATOM     24  O   UNL     1      -1.494  10.717  -4.398  0.00  0.00    -0.491 OA
ATOM     25  C   UNL     1      -1.422  10.202  -5.729  0.00  0.00    +0.277 C 
ENDBRANCH  21  24
ENDBRANCH   9  14
ENDBRANCH   1   9
BRANCH   1  26
ATOM     26  C   UNL     1       0.400   3.641   2.139  0.00  0.00    +0.001 C 
BRANCH  26  27
ATOM     27  C   UNL     1       0.222   4.618   3.272  0.00  0.00    +0.135 A 
ATOM     28  N   UNL     1      -0.899   4.907   3.888  0.00  0.00    -0.115 NA
ATOM     29  N   UNL     1      -0.641   5.789   4.791  0.00  0.00    -0.023 NA
ATOM     30  N   UNL     1       0.616   6.066   4.772  0.00  0.00    -0.044 NA
ATOM     31  N   UNL     1       1.183   5.362   3.851  0.00  0.00    -0.229 N 
BRANCH  31  32
ATOM     32  C   UNL     1       2.605   5.374   3.497  0.00  0.00    +0.178 C 
BRANCH  32  33
ATOM     33  C   UNL     1       3.359   4.380   4.381  0.00  0.00    +0.140 C 
ATOM     34  C   UNL     1       4.870   4.447   4.073  0.00  0.00    +0.035 C 
ATOM     35  C   UNL     1       5.288   2.953   4.146  0.00  0.00    +0.031 C 
ATOM     36  C   UNL     1       4.013   2.264   3.597  0.00  0.00    +0.160 C 
ATOM     37  O   UNL     1       2.918   3.047   4.099  0.00  0.00    -0.375 OA
ENDBRANCH  32  33
ENDBRANCH  31  32
ENDBRANCH  26  27
ENDBRANCH   1  26
TORSDOF 9
