REMARK  Name = ZINC02472384
REMARK  7 active torsions:
REMARK  status: ('A' for Active; 'I' for Inactive)
REMARK    1  A    between atoms: C_1  and  C_2
REMARK    2  A    between atoms: C_2  and  C_3
REMARK    3  A    between atoms: C_2  and  C_4
REMARK    4  A    between atoms: C_7  and  C_10
REMARK    5  A    between atoms: C_13  and  C_22
REMARK    6  A    between atoms: C_25  and  O_28
REMARK    7  A    between atoms: O_28  and  C_29
REMARK                            x       y       z     vdW  Elec       q    Type
REMARK                         _______ _______ _______ _____ _____    ______ ____
ROOT
ATOM      1  C   UNL     1       2.170   1.075  -1.228  0.00  0.00    +0.143 C 
ATOM      2  C   UNL     1       1.424   1.620  -0.003  0.00  0.00    +0.058 C 
ATOM      3  C   UNL     1      -0.013   1.086   0.008  0.00  0.00    +0.106 C 
ATOM      4  N   UNL     1      -0.707   1.578  -1.197  0.00  0.00    -0.307 N 
ATOM      5  C   UNL     1       0.009   1.522  -2.385  0.00  0.00    +0.216 A 
ATOM      6  N   UNL     1       1.343   1.287  -2.416  0.00  0.00    -0.224 N 
ATOM      7  N   UNL     1       1.718   1.295  -3.760  0.00  0.00    -0.132 NA
ATOM      8  C   UNL     1       0.628   1.529  -4.456  0.00  0.00    +0.233 A 
ATOM      9  N   UNL     1      -0.407   1.666  -3.615  0.00  0.00    -0.180 NA
ATOM     10  N   UNL     1       0.560   1.619  -5.847  0.00  0.00    -0.326 N 
ATOM     11  H   UNL     1      -1.614   1.922  -1.161  0.00  0.00    +0.149 HD
ATOM     12  H   UNL     1       1.362   1.506  -6.381  0.00  0.00    +0.145 HD
ATOM     13  H   UNL     1      -0.290   1.795  -6.281  0.00  0.00    +0.145 HD
ENDROOT
BRANCH   1  17
ATOM     14  C   UNL     1       5.885   3.135  -1.675  0.00  0.00    -0.045 A 
ATOM     15  C   UNL     1       5.872   1.766  -1.490  0.00  0.00    +0.004 A 
ATOM     16  C   UNL     1       4.670   1.099  -1.345  0.00  0.00    +0.006 A 
ATOM     17  C   UNL     1       3.480   1.802  -1.385  0.00  0.00    -0.023 A 
ATOM     18  C   UNL     1       3.493   3.171  -1.576  0.00  0.00    +0.006 A 
ATOM     19  C   UNL     1       4.695   3.839  -1.716  0.00  0.00    +0.004 A 
BRANCH  14  21
ATOM     20  C   UNL     1       7.229   4.566  -3.190  0.00  0.00    +0.012 C 
ATOM     21  C   UNL     1       7.196   3.862  -1.832  0.00  0.00    +0.013 C 
ATOM     22  C   UNL     1       7.340   4.900  -0.717  0.00  0.00    +0.012 C 
ENDBRANCH  14  21
ENDBRANCH   1  17
BRANCH   3  23
ATOM     23  C   UNL     1      -0.725   1.575   1.242  0.00  0.00    -0.027 A 
ATOM     24  C   UNL     1      -1.228   2.862   1.284  0.00  0.00    +0.009 A 
ATOM     25  C   UNL     1      -1.887   3.312   2.413  0.00  0.00    +0.046 A 
ATOM     26  C   UNL     1      -2.033   2.474   3.509  0.00  0.00    +0.120 A 
ATOM     27  C   UNL     1      -1.522   1.185   3.466  0.00  0.00    +0.046 A 
ATOM     28  C   UNL     1      -0.869   0.738   2.334  0.00  0.00    +0.009 A 
BRANCH  26  29
ATOM     29  O   UNL     1      -2.676   2.915   4.622  0.00  0.00    -0.495 OA
ATOM     30  C   UNL     1      -3.176   4.253   4.595  0.00  0.00    +0.277 C 
ENDBRANCH  26  29
ENDBRANCH   3  23
TORSDOF 4
