REMARK  Name = ZINC08835405
REMARK  7 active torsions:
REMARK  status: ('A' for Active; 'I' for Inactive)
REMARK    1  A    between atoms: C_1  and  C_2
REMARK    2  A    between atoms: C_6  and  N_8
REMARK    3  A    between atoms: N_8  and  C_9
REMARK    4  A    between atoms: C_9  and  N_11
REMARK    5  A    between atoms: C_12  and  C_14
REMARK    6  A    between atoms: C_17  and  O_22
REMARK    7  A    between atoms: O_22  and  C_23
REMARK                            x       y       z     vdW  Elec       q    Type
REMARK                         _______ _______ _______ _____ _____    ______ ____
ROOT
ATOM      1  N   UNL     1      -1.896   2.449  -1.143  0.00  0.00    -0.263 N 
ATOM      2  C   UNL     1      -1.305   2.110   0.019  0.00  0.00    +0.255 C 
ATOM      3  O   UNL     1      -1.829   2.403   1.076  0.00  0.00    -0.270 OA
ATOM      4  H   UNL     1      -1.478   2.215  -1.987  0.00  0.00    +0.157 HD
ENDROOT
BRANCH   2   5
ATOM      5  C   UNL     1      -0.024   1.384   0.009  0.00  0.00    +0.113 A 
ATOM      6  C   UNL     1       1.185   2.092   0.002  0.00  0.00    +0.177 A 
ATOM      7  C   UNL     1       2.384   1.406  -0.014  0.00  0.00    +0.204 A 
ATOM      8  C   UNL     1       2.392   0.015  -0.022  0.00  0.00    +0.196 A 
ATOM      9  C   UNL     1       1.196  -0.692  -0.015  0.00  0.00    +0.204 A 
ATOM     10  C   UNL     1      -0.009  -0.017   0.001  0.00  0.00    +0.177 A 
ATOM     11  F   UNL     1      -1.171  -0.706   0.007  0.00  0.00    -0.201 F 
ATOM     12  F   UNL     1       1.211  -2.043  -0.023  0.00  0.00    -0.198 F 
ATOM     13  F   UNL     1       3.550   2.087  -0.022  0.00  0.00    -0.198 F 
ATOM     14  F   UNL     1       1.179   3.443   0.009  0.00  0.00    -0.201 F 
BRANCH   8  15
ATOM     15  O   UNL     1       3.574  -0.654  -0.038  0.00  0.00    -0.489 OA
ATOM     16  C   UNL     1       4.126  -0.967  -1.318  0.00  0.00    +0.277 C 
ENDBRANCH   8  15
ENDBRANCH   2   5
BRANCH   1  17
ATOM     17  C   UNL     1      -3.069   3.113  -1.134  0.00  0.00    +0.142 C 
ATOM     18  S   UNL     1      -3.807   3.526   0.355  0.00  0.00    -0.018 S 
BRANCH  17  19
ATOM     19  N   UNL     1      -3.661   3.452  -2.296  0.00  0.00    -0.282 N 
ATOM     20  H   UNL     1      -3.208   3.286  -3.138  0.00  0.00    +0.155 HD
BRANCH  19  26
ATOM     21  C   UNL     1      -7.291   5.259   0.252  0.00  0.00    +0.067 C 
ATOM     22  C   UNL     1      -6.687   4.917  -1.086  0.00  0.00    +0.053 A 
ATOM     23  C   UNL     1      -7.390   5.193  -2.243  0.00  0.00    +0.034 A 
ATOM     24  C   UNL     1      -6.828   4.875  -3.472  0.00  0.00    +0.019 A 
ATOM     25  C   UNL     1      -5.574   4.290  -3.493  0.00  0.00    +0.045 A 
ATOM     26  C   UNL     1      -4.924   4.041  -2.289  0.00  0.00    +0.124 A 
ATOM     27  N   UNL     1      -5.495   4.353  -1.137  0.00  0.00    -0.236 NA
ATOM     28  I   UNL     1      -9.286   6.080  -2.143  0.00  0.00    -0.042 I 
ENDBRANCH  19  26
ENDBRANCH  17  19
ENDBRANCH   1  17
TORSDOF 5
