REMARK  Name = ZINC20550860
REMARK  5 active torsions:
REMARK  status: ('A' for Active; 'I' for Inactive)
REMARK    1  A    between atoms: C_1  and  C_2
REMARK    2  A    between atoms: C_7  and  N_12
REMARK    3  A    between atoms: C_9  and  C_11
REMARK    4  A    between atoms: C_13  and  C_15
REMARK    5  A    between atoms: C_17  and  N_22
REMARK                            x       y       z     vdW  Elec       q    Type
REMARK                         _______ _______ _______ _____ _____    ______ ____
ROOT
ATOM      1  N   UNL     1      -0.001   4.228   0.024  0.00  0.00    -0.308 N 
ATOM      2  C   UNL     1       1.172   3.564   0.009  0.00  0.00    +0.246 C 
ATOM      3  O   UNL     1       2.220   4.181   0.003  0.00  0.00    -0.270 OA
ATOM      4  H   UNL     1      -0.949   3.670   0.030  0.00  0.00    +0.149 HD
ENDROOT
BRANCH   1  10
ATOM      5  C   UNL     1      -3.810   6.168   0.461  0.00  0.00    +0.008 C 
ATOM      6  C   UNL     1      -2.504   5.673  -0.163  0.00  0.00    -0.009 C 
ATOM      7  C   UNL     1      -2.396   6.191  -1.599  0.00  0.00    +0.003 C 
ATOM      8  C   UNL     1      -1.090   5.695  -2.223  0.00  0.00    +0.002 C 
ATOM      9  C   UNL     1       0.095   6.211  -1.404  0.00  0.00    +0.022 C 
ATOM     10  C   UNL     1      -0.013   5.693   0.031  0.00  0.00    +0.076 C 
ATOM     11  C   UNL     1      -1.319   6.189   0.656  0.00  0.00    +0.009 C 
ATOM     12  C   UNL     1      -1.427   5.670   2.091  0.00  0.00    +0.009 C 
ENDBRANCH   1  10
BRANCH   2  13
ATOM     13  C   UNL     1       1.185   2.087   0.002  0.00  0.00    +0.057 A 
ATOM     14  C   UNL     1      -0.017   1.375   0.010  0.00  0.00    +0.047 A 
ATOM     15  C   UNL     1       0.002  -0.004   0.002  0.00  0.00    +0.127 A 
ATOM     16  C   UNL     1       1.208  -0.684  -0.013  0.00  0.00    +0.034 A 
ATOM     17  C   UNL     1       2.402   0.013  -0.020  0.00  0.00    +0.023 A 
ATOM     18  C   UNL     1       2.398   1.395  -0.013  0.00  0.00    +0.053 A 
ATOM     19 CL   UNL     1       3.898   2.269  -0.022  0.00  0.00    -0.083 Cl
BRANCH  15  20
ATOM     20  N   UNL     1      -1.271  -0.759   0.010  0.00  0.00    +0.056 N 
ATOM     21  O   UNL     1      -2.333  -0.163   0.024  0.00  0.00    -0.126 OA
ATOM     22  O   UNL     1      -1.256  -1.977   0.003  0.00  0.00    -0.126 OA
ENDBRANCH  15  20
ENDBRANCH   2  13
TORSDOF 3
