REMARK  Name = ZINC35890788
REMARK  14 active torsions:
REMARK  status: ('A' for Active; 'I' for Inactive)
REMARK    1  A    between atoms: C_1  and  C_2
REMARK    2  A    between atoms: C_6  and  O_8
REMARK    3  A    between atoms: O_8  and  C_9
REMARK    4  A    between atoms: C_9  and  C_11
REMARK    5  A    between atoms: C_9  and  C_30
REMARK    6  A    between atoms: C_11  and  N_12
REMARK    7  A    between atoms: N_12  and  C_13
REMARK    8  A    between atoms: N_12  and  C_23
REMARK    9  A    between atoms: C_13  and  C_14
REMARK   10  A    between atoms: C_23  and  C_24
REMARK   11  A    between atoms: N_32  and  C_33
REMARK   12  A    between atoms: C_33  and  C_34
REMARK   13  A    between atoms: C_33  and  C_35
REMARK   14  A    between atoms: C_33  and  C_36
REMARK                            x       y       z     vdW  Elec       q    Type
REMARK                         _______ _______ _______ _____ _____    ______ ____
ROOT
ATOM      1  C   UNL     1      -0.952  -4.345   3.366  0.00  0.00    -0.023 C 
ENDROOT
BRANCH   1   2
ATOM      2  N   UNL     1      -2.413  -4.215   3.282  0.00  0.00    +0.387 N 
ATOM      3  H   UNL     1      -2.663  -3.238   3.258  0.00  0.00    -0.081 HD
BRANCH   2   4
ATOM      4  C   UNL     1      -2.894  -4.873   2.060  0.00  0.00    -0.043 C 
BRANCH   4   5
ATOM      5  C   UNL     1      -4.375  -4.635   1.911  0.00  0.00    -0.060 A 
ATOM      6  C   UNL     1      -5.276  -5.519   2.473  0.00  0.00    +0.005 A 
ATOM      7  C   UNL     1      -6.635  -5.305   2.339  0.00  0.00    +0.050 A 
ATOM      8  C   UNL     1      -7.097  -4.201   1.640  0.00  0.00    +0.166 A 
ATOM      9  C   UNL     1      -6.189  -3.310   1.074  0.00  0.00    +0.166 A 
ATOM     10  C   UNL     1      -4.829  -3.528   1.217  0.00  0.00    +0.051 A 
ATOM     11  O   UNL     1      -6.885  -2.317   0.446  0.00  0.00    -0.453 OA
ATOM     12  C   UNL     1      -8.222  -2.829   0.284  0.00  0.00    +0.466 C 
ATOM     13  O   UNL     1      -8.362  -3.767   1.367  0.00  0.00    -0.453 OA
ENDBRANCH   4   5
ENDBRANCH   2   4
BRANCH   2  14
ATOM     14  C   UNL     1      -3.029  -4.849   4.455  0.00  0.00    -0.046 C 
BRANCH  14  15
ATOM     15  C   UNL     1      -2.646  -4.072   5.716  0.00  0.00    +0.102 C 
ATOM     16  C   UNL     1      -3.262  -4.751   6.958  0.00  0.00    +0.032 C 
ATOM     17  C   UNL     1      -3.696  -3.534   7.818  0.00  0.00    +0.030 C 
ATOM     18  C   UNL     1      -4.105  -2.525   6.716  0.00  0.00    +0.160 C 
ATOM     19  O   UNL     1      -3.171  -2.741   5.644  0.00  0.00    -0.378 OA
ENDBRANCH  14  15
ENDBRANCH   2  14
ENDBRANCH   1   2
BRANCH   1  20
ATOM     20  C   UNL     1      -0.304  -3.566   2.220  0.00  0.00    +0.242 C 
BRANCH  20  21
ATOM     21  C   UNL     1       1.192  -3.740   2.276  0.00  0.00    +0.252 C 
ATOM     22  O   UNL     1       1.905  -2.786   2.501  0.00  0.00    -0.272 OA
ATOM     23  N   UNL     1       1.736  -4.957   2.078  0.00  0.00    -0.308 N 
ATOM     24  H   UNL     1       1.165  -5.720   1.898  0.00  0.00    +0.149 HD
BRANCH  23  25
ATOM     25  C   UNL     1       3.190  -5.126   2.133  0.00  0.00    +0.026 C 
ATOM     26  C   UNL     1       3.700  -4.715   3.515  0.00  0.00    +0.031 C 
ATOM     27  C   UNL     1       3.543  -6.593   1.875  0.00  0.00    +0.031 C 
ATOM     28  C   UNL     1       3.847  -4.248   1.065  0.00  0.00    +0.031 C 
ENDBRANCH  23  25
ENDBRANCH  20  21
BRANCH  20  29
ATOM     29  O   UNL     1      -0.627  -2.179   2.345  0.00  0.00    -0.482 OA
BRANCH  29  35
ATOM     30  C   UNL     1      -1.326   2.112   0.127  0.00  0.00    +0.044 C 
ATOM     31  C   UNL     1      -0.918   0.662   0.090  0.00  0.00    -0.047 A 
ATOM     32  C   UNL     1      -0.501   0.090  -1.098  0.00  0.00    +0.003 A 
ATOM     33  C   UNL     1      -0.127  -1.240  -1.134  0.00  0.00    +0.004 A 
ATOM     34  C   UNL     1      -0.168  -2.002   0.017  0.00  0.00    +0.046 A 
ATOM     35  C   UNL     1      -0.586  -1.431   1.211  0.00  0.00    +0.122 A 
ATOM     36  C   UNL     1      -0.955  -0.095   1.246  0.00  0.00    +0.049 A 
ENDBRANCH  29  35
ENDBRANCH  20  29
ENDBRANCH   1  20
TORSDOF 10
