REMARK  Name = ZINC19313476
REMARK  12 active torsions:
REMARK  status: ('A' for Active; 'I' for Inactive)
REMARK    1  A    between atoms: C_1  and  C_2
REMARK    2  A    between atoms: C_2  and  C_3
REMARK    3  A    between atoms: C_3  and  C_4
REMARK    4  A    between atoms: C_4  and  C_5
REMARK    5  A    between atoms: C_8  and  N_11
REMARK    6  A    between atoms: C_12  and  S_16
REMARK    7  A    between atoms: S_16  and  C_17
REMARK    8  A    between atoms: C_17  and  C_18
REMARK    9  A    between atoms: N_20  and  N_21
REMARK   10  A    between atoms: C_24  and  C_28
REMARK   11  A    between atoms: C_24  and  C_30
REMARK   12  A    between atoms: C_28  and  C_29
REMARK                            x       y       z     vdW  Elec       q    Type
REMARK                         _______ _______ _______ _____ _____    ______ ____
ROOT
ATOM      1  C   UNL     1      -1.535  -1.434  -1.119  0.00  0.00    +0.240 C 
ATOM      2  O   UNL     1      -0.892  -1.304  -2.139  0.00  0.00    -0.273 OA
ATOM      3  N   UNL     1      -1.146  -0.807   0.008  0.00  0.00    -0.223 N 
ATOM      4  H   UNL     1      -1.730  -0.925   0.933  0.00  0.00    +0.174 HD
ENDROOT
BRANCH   3   5
ATOM      5  N   UNL     1       0.002  -0.004   0.002  0.00  0.00    -0.137 N 
ATOM      6  C   UNL     1      -0.016   1.343   0.009  0.00  0.00    +0.268 C 
ATOM      7  O   UNL     1      -0.992   2.062   0.018  0.00  0.00    -0.271 OA
ATOM      8  C   UNL     1       1.437   1.773  -0.002  0.00  0.00    +0.139 C 
ATOM      9  N   UNL     1       2.175   0.498  -0.016  0.00  0.00    -0.280 N 
ATOM     10  C   UNL     1       1.252  -0.481  -0.013  0.00  0.00    +0.327 C 
ATOM     11  O   UNL     1       1.524  -1.665  -0.021  0.00  0.00    -0.251 OA
ATOM     12  H   UNL     1       3.275   0.499  -0.026  0.00  0.00    +0.152 HD
BRANCH   8  13
ATOM     13  C   UNL     1       1.767   2.563   1.238  0.00  0.00    -0.015 A 
ATOM     14  C   UNL     1       1.634   3.939   1.238  0.00  0.00    +0.006 A 
ATOM     15  C   UNL     1       1.931   4.663   2.377  0.00  0.00    +0.000 A 
ATOM     16  C   UNL     1       2.371   4.011   3.514  0.00  0.00    +0.000 A 
ATOM     17  C   UNL     1       2.510   2.636   3.513  0.00  0.00    +0.000 A 
ATOM     18  C   UNL     1       2.208   1.912   2.375  0.00  0.00    +0.006 A 
ENDBRANCH   8  13
BRANCH   8  19
ATOM     19  C   UNL     1       1.748   2.588  -1.259  0.00  0.00    +0.037 C 
ATOM     20  C   UNL     1       1.456   1.743  -2.500  0.00  0.00    +0.007 C 
ENDBRANCH   8  19
ENDBRANCH   3   5
BRANCH   1  21
ATOM     21  C   UNL     1      -2.771  -2.298  -1.113  0.00  0.00    +0.174 C 
BRANCH  21  22
ATOM     22  S   UNL     1      -3.027  -2.997  -2.763  0.00  0.00    -0.075 S 
BRANCH  22  24
ATOM     23  N   UNL     1      -5.159  -4.686  -3.384  0.00  0.00    -0.187 N 
ATOM     24  C   UNL     1      -4.492  -3.933  -2.475  0.00  0.00    +0.214 A 
ATOM     25  N   UNL     1      -5.142  -4.037  -1.336  0.00  0.00    -0.101 NA
ATOM     26  N   UNL     1      -6.170  -4.793  -1.473  0.00  0.00    -0.022 NA
ATOM     27  N   UNL     1      -6.250  -5.230  -2.683  0.00  0.00    -0.038 NA
BRANCH  23  31
ATOM     28  C   UNL     1      -4.186  -5.266  -7.396  0.00  0.00    -0.047 A 
ATOM     29  C   UNL     1      -4.748  -6.298  -6.667  0.00  0.00    +0.006 A 
ATOM     30  C   UNL     1      -5.072  -6.109  -5.337  0.00  0.00    +0.028 A 
ATOM     31  C   UNL     1      -4.832  -4.881  -4.734  0.00  0.00    +0.070 A 
ATOM     32  C   UNL     1      -4.273  -3.846  -5.471  0.00  0.00    +0.028 A 
ATOM     33  C   UNL     1      -3.946  -4.043  -6.798  0.00  0.00    +0.006 A 
BRANCH  28  34
ATOM     34  C   UNL     1      -3.835  -5.476  -8.847  0.00  0.00    +0.035 C 
BRANCH  34  35
ATOM     35  C   UNL     1      -5.033  -5.100  -9.721  0.00  0.00    +0.004 C 
BRANCH  35  37
ATOM     36  C   UNL     1      -5.875  -4.937 -12.068  0.00  0.00    +0.004 C 
ATOM     37  C   UNL     1      -4.676  -5.313 -11.194  0.00  0.00    -0.003 C 
ENDBRANCH  35  37
ENDBRANCH  34  35
ENDBRANCH  28  34
ENDBRANCH  23  31
ENDBRANCH  22  24
ENDBRANCH  21  22
ENDBRANCH   1  21
TORSDOF 10
