REMARK  Name = ZINC04149389
REMARK  5 active torsions:
REMARK  status: ('A' for Active; 'I' for Inactive)
REMARK    1  A    between atoms: C_1  and  C_2
REMARK    2  A    between atoms: C_7  and  C_8
REMARK    3  A    between atoms: C_11  and  C_22
REMARK    4  A    between atoms: C_17  and  N_21
REMARK    5  A    between atoms: C_18  and  C_19
REMARK                            x       y       z     vdW  Elec       q    Type
REMARK                         _______ _______ _______ _____ _____    ______ ____
ROOT
ATOM      1  C   UNL     1       0.243   0.046   2.494  0.00  0.00    +0.102 C 
ATOM      2  C   UNL     1      -0.816  -0.435   3.452  0.00  0.00    +0.049 A 
ATOM      3  C   UNL     1      -2.141  -0.225   3.440  0.00  0.00    +0.041 A 
ATOM      4  N   UNL     1      -2.667  -0.865   4.510  0.00  0.00    -0.278 N 
ATOM      5  H   UNL     1      -3.605  -0.887   4.755  0.00  0.00    +0.189 HD
ATOM      6  N   UNL     1      -1.619  -1.491   5.203  0.00  0.00    -0.135 NA
ATOM      7  C   UNL     1      -0.508  -1.236   4.574  0.00  0.00    +0.245 A 
ATOM      8  O   UNL     1       0.765  -1.619   4.860  0.00  0.00    -0.421 OA
ATOM      9  C   UNL     1       1.763  -0.996   4.202  0.00  0.00    +0.201 C 
ATOM     10  C   UNL     1       1.593  -0.216   3.112  0.00  0.00    +0.098 C 
ATOM     11  C   UNL     1      -2.905   0.579   2.420  0.00  0.00    +0.065 C 
ENDROOT
BRANCH   1  18
ATOM     12  C   UNL     1      -0.004   1.503   0.011  0.00  0.00    +0.044 C 
ATOM     13  C   UNL     1       0.009  -0.004   0.002  0.00  0.00    -0.046 A 
ATOM     14  C   UNL     1      -0.092  -0.690  -1.194  0.00  0.00    +0.003 A 
ATOM     15  C   UNL     1      -0.080  -2.071  -1.202  0.00  0.00    +0.000 A 
ATOM     16  C   UNL     1       0.033  -2.768  -0.013  0.00  0.00    +0.000 A 
ATOM     17  C   UNL     1       0.135  -2.083   1.183  0.00  0.00    +0.005 A 
ATOM     18  C   UNL     1       0.127  -0.701   1.190  0.00  0.00    -0.032 A 
ENDBRANCH   1  18
BRANCH   9  19
ATOM     19  N   UNL     1       3.041  -1.165   4.672  0.00  0.00    -0.328 N 
ATOM     20  H   UNL     1       3.201  -1.718   5.453  0.00  0.00    +0.145 HD
ATOM     21  H   UNL     1       3.784  -0.732   4.224  0.00  0.00    +0.145 HD
ENDBRANCH   9  19
BRANCH  10  22
ATOM     22  C   UNL     1       2.746   0.388   2.517  0.00  0.00    +0.101 C 
ATOM     23  N   UNL     1       3.662   0.868   2.045  0.00  0.00    -0.191 NA
ENDBRANCH  10  22
TORSDOF 3
