REMARK  Name = ZINC40348308
REMARK  7 active torsions:
REMARK  status: ('A' for Active; 'I' for Inactive)
REMARK    1  A    between atoms: C_1  and  C_2
REMARK    2  A    between atoms: C_5  and  C_7
REMARK    3  A    between atoms: C_7  and  C_9
REMARK    4  A    between atoms: C_7  and  N_10
REMARK    5  A    between atoms: N_10  and  S_11
REMARK    6  A    between atoms: S_11  and  C_14
REMARK    7  A    between atoms: C_15  and  N_22
REMARK                            x       y       z     vdW  Elec       q    Type
REMARK                         _______ _______ _______ _____ _____    ______ ____
ROOT
ATOM      1  S   UNL     1       3.935  -4.743  -2.162  0.00  0.00    +0.062 S 
ATOM      2  O   UNL     1       4.944  -4.348  -3.082  0.00  0.00    -0.153 OA
ATOM      3  O   UNL     1       4.074  -5.881  -1.322  0.00  0.00    -0.153 OA
ENDROOT
BRANCH   1   4
ATOM      4  C   UNL     1       2.464  -4.987  -3.101  0.00  0.00    +0.144 A 
ATOM      5  C   UNL     1       1.466  -5.827  -2.623  0.00  0.00    +0.054 A 
ATOM      6  C   UNL     1       0.308  -6.017  -3.366  0.00  0.00    +0.044 A 
ATOM      7  C   UNL     1       0.151  -5.370  -4.577  0.00  0.00    +0.044 A 
ATOM      8  C   UNL     1       1.147  -4.533  -5.050  0.00  0.00    +0.042 A 
ATOM      9  C   UNL     1       2.300  -4.338  -4.310  0.00  0.00    +0.070 A 
ATOM     10 CL   UNL     1       3.543  -3.283  -4.904  0.00  0.00    -0.081 Cl
ATOM     11 CL   UNL     1      -1.296  -5.607  -5.506  0.00  0.00    -0.083 Cl
BRANCH   5  12
ATOM     12  N   UNL     1       1.628  -6.480  -1.399  0.00  0.00    -0.356 N 
ATOM     13  H   UNL     1       2.250  -6.131  -0.742  0.00  0.00    +0.142 HD
ATOM     14  H   UNL     1       1.118  -7.283  -1.207  0.00  0.00    +0.142 HD
ENDBRANCH   5  12
ENDBRANCH   1   4
BRANCH   1  15
ATOM     15  N   UNL     1       3.671  -3.448  -1.165  0.00  0.00    -0.180 NA
ATOM     16  H   UNL     1       4.186  -2.634  -1.279  0.00  0.00    +0.149 HD
BRANCH  15  17
ATOM     17  C   UNL     1       2.657  -3.531  -0.110  0.00  0.00    +0.139 C 
ATOM     18  C   UNL     1       3.322  -3.942   1.205  0.00  0.00    +0.034 C 
BRANCH  17  23
ATOM     19  C   UNL     1       2.021   1.461   0.237  0.00  0.00    +0.086 C 
ATOM     20  C   UNL     1       1.721  -0.016   0.211  0.00  0.00    +0.102 A 
ATOM     21  C   UNL     1       0.509  -0.575   0.373  0.00  0.00    +0.045 A 
ATOM     22  C   UNL     1       0.687  -1.974   0.276  0.00  0.00    +0.046 A 
ATOM     23  C   UNL     1       1.998  -2.186   0.059  0.00  0.00    +0.123 A 
ATOM     24  O   UNL     1       2.618  -0.996   0.015  0.00  0.00    -0.463 OA
ENDBRANCH  17  23
ENDBRANCH  15  17
ENDBRANCH   1  15
TORSDOF 5
