REMARK  Name = ZINC39226359
REMARK  10 active torsions:
REMARK  status: ('A' for Active; 'I' for Inactive)
REMARK    1  A    between atoms: C_1  and  C_2
REMARK    2  A    between atoms: C_2  and  O_3
REMARK    3  A    between atoms: O_3  and  C_4
REMARK    4  A    between atoms: C_4  and  C_6
REMARK    5  A    between atoms: C_6  and  C_7
REMARK    6  A    between atoms: C_7  and  N_8
REMARK    7  A    between atoms: C_9  and  C_11
REMARK    8  A    between atoms: C_15  and  C_17
REMARK    9  A    between atoms: C_23  and  O_34
REMARK   10  A    between atoms: N_30  and  C_33
REMARK                            x       y       z     vdW  Elec       q    Type
REMARK                         _______ _______ _______ _____ _____    ______ ____
ROOT
ATOM      1  C   UNL     1       3.912  -9.734   6.324  0.00  0.00    -0.017 A 
ATOM      2  C   UNL     1       3.376 -10.595   5.369  0.00  0.00    +0.012 A 
ATOM      3  C   UNL     1       3.498 -11.957   5.529  0.00  0.00    +0.046 A 
ATOM      4  C   UNL     1       4.156 -12.479   6.640  0.00  0.00    +0.127 A 
ATOM      5  C   UNL     1       4.694 -11.625   7.588  0.00  0.00    +0.023 A 
ATOM      6  C   UNL     1       4.574 -10.257   7.431  0.00  0.00    +0.018 A 
ATOM      7  C   UNL     1       5.425 -12.153   8.797  0.00  0.00    +0.152 C 
ATOM      8  C   UNL     1       5.073 -13.627   9.011  0.00  0.00    +0.084 C 
ATOM      9  C   UNL     1       5.211 -14.357   7.671  0.00  0.00    +0.110 C 
ATOM     10  O   UNL     1       4.247 -13.830   6.761  0.00  0.00    -0.485 OA
ATOM     11  C   UNL     1       6.620 -14.145   7.114  0.00  0.00    +0.029 C 
ATOM     12  C   UNL     1       6.777 -14.944   5.818  0.00  0.00    -0.075 C 
ATOM     13  N   UNL     1       6.561 -16.370   6.089  0.00  0.00    +0.378 N 
ATOM     14  C   UNL     1       5.185 -16.587   6.551  0.00  0.00    -0.075 C 
ATOM     15  C   UNL     1       4.966 -15.853   7.876  0.00  0.00    +0.029 C 
ATOM     16  C   UNL     1       6.790 -17.140   4.860  0.00  0.00    -0.096 C 
ATOM     17  H   UNL     1       7.207 -16.677   6.801  0.00  0.00    -0.082 HD
ENDROOT
BRANCH   1  22
ATOM     18  C   UNL     1       3.002  -6.363   4.904  0.00  0.00    +0.037 A 
ATOM     19  C   UNL     1       3.549  -5.512   5.867  0.00  0.00    +0.013 A 
ATOM     20  C   UNL     1       4.204  -6.036   6.962  0.00  0.00    +0.001 A 
ATOM     21  C   UNL     1       4.323  -7.404   7.114  0.00  0.00    +0.008 A 
ATOM     22  C   UNL     1       3.781  -8.265   6.160  0.00  0.00    -0.017 A 
ATOM     23  C   UNL     1       3.114  -7.744   5.055  0.00  0.00    +0.021 A 
BRANCH  18  25
ATOM     24  N   UNL     1       2.192  -4.465   3.586  0.00  0.00    -0.311 N 
ATOM     25  C   UNL     1       2.300  -5.801   3.730  0.00  0.00    +0.244 C 
ATOM     26  O   UNL     1       1.820  -6.543   2.896  0.00  0.00    -0.270 OA
ATOM     27  H   UNL     1       2.575  -3.873   4.251  0.00  0.00    +0.149 HD
BRANCH  24  28
ATOM     28  C   UNL     1       1.496  -3.909   2.423  0.00  0.00    +0.115 C 
BRANCH  28  29
ATOM     29  C   UNL     1       1.516  -2.381   2.500  0.00  0.00    +0.139 C 
BRANCH  29  30
ATOM     30  C   UNL     1       0.801  -1.808   1.304  0.00  0.00    +0.309 C 
ATOM     31  O   UNL     1       0.324  -2.546   0.475  0.00  0.00    -0.251 OA
BRANCH  30  32
ATOM     32  O   UNL     1       0.693  -0.477   1.160  0.00  0.00    -0.465 OA
BRANCH  32  34
ATOM     33  C   UNL     1      -0.019   1.526   0.010  0.00  0.00    +0.048 C 
ATOM     34  C   UNL     1       0.002  -0.004   0.002  0.00  0.00    +0.229 C 
ENDBRANCH  32  34
ENDBRANCH  30  32
ENDBRANCH  29  30
ENDBRANCH  28  29
ENDBRANCH  24  28
ENDBRANCH  18  25
ENDBRANCH   1  22
BRANCH   7  35
ATOM     35  O   UNL     1       5.042 -11.401   9.950  0.00  0.00    -0.387 OA
ATOM     36  H   UNL     1       5.239 -10.456   9.887  0.00  0.00    +0.210 HD
ENDBRANCH   7  35
TORSDOF 8
