REMARK  Name = ZINC06077514
REMARK  13 active torsions:
REMARK  status: ('A' for Active; 'I' for Inactive)
REMARK    1  A    between atoms: C_1  and  C_2
REMARK    2  A    between atoms: C_2  and  C_3
REMARK    3  A    between atoms: C_3  and  C_4
REMARK    4  A    between atoms: C_3  and  C_5
REMARK    5  A    between atoms: C_3  and  N_6
REMARK    6  A    between atoms: C_7  and  C_11
REMARK    7  A    between atoms: C_11  and  C_13
REMARK    8  A    between atoms: C_11  and  N_75
REMARK    9  A    between atoms: C_17  and  C_26
REMARK   10  A    between atoms: C_18  and  C_25
REMARK   11  A    between atoms: N_29  and  C_32
REMARK   12  A    between atoms: C_37  and  O_38
REMARK   13  A    between atoms: O_38  and  C_39
REMARK                            x       y       z     vdW  Elec       q    Type
REMARK                         _______ _______ _______ _____ _____    ______ ____
ROOT
ATOM      1  C   UNL     1      -4.621   3.719   0.232  0.00  0.00    +0.039 C 
ENDROOT
BRANCH   1   2
ATOM      2  C   UNL     1      -3.309   3.007   0.439  0.00  0.00    +0.011 A 
ATOM      3  C   UNL     1      -2.184   3.723   0.682  0.00  0.00    +0.017 A 
ATOM      4  C   UNL     1      -0.924   3.001   0.875  0.00  0.00    -0.001 A 
ATOM      5  C   UNL     1       0.272   3.685   1.115  0.00  0.00    +0.013 A 
ATOM      6  C   UNL     1       1.430   2.982   1.290  0.00  0.00    -0.047 A 
ATOM      7  C   UNL     1       1.431   1.595   1.233  0.00  0.00    -0.046 A 
ATOM      8  C   UNL     1       0.264   0.900   0.998  0.00  0.00    +0.030 A 
ATOM      9  C   UNL     1      -0.927   1.595   0.811  0.00  0.00    +0.049 A 
ATOM     10  N   UNL     1      -2.108   0.926   0.570  0.00  0.00    -0.322 N 
ATOM     11  H   UNL     1      -2.109  -0.073   0.527  0.00  0.00    +0.169 HD
ATOM     12  C   UNL     1      -3.259   1.598   0.389  0.00  0.00    +0.251 A 
ATOM     13  O   UNL     1      -4.284   0.974   0.177  0.00  0.00    -0.268 OA
ATOM     14  C   UNL     1       2.721   0.841   1.428  0.00  0.00    +0.044 C 
ATOM     15  C   UNL     1       2.719   3.719   1.548  0.00  0.00    +0.044 C 
ENDBRANCH   1   2
BRANCH   1  21
ATOM     16  C   UNL     1      -4.238   3.479  -2.147  0.00  0.00    -0.058 C 
ATOM     17  C   UNL     1      -4.854   2.968  -3.452  0.00  0.00    +0.086 C 
ATOM     18  N   UNL     1      -6.094   3.706  -3.728  0.00  0.00    -0.331 N 
ATOM     19  C   UNL     1      -7.060   3.536  -2.633  0.00  0.00    +0.086 C 
ATOM     20  C   UNL     1      -6.444   4.047  -1.329  0.00  0.00    -0.058 C 
ATOM     21  N   UNL     1      -5.210   3.282  -1.052  0.00  0.00    +0.391 N 
ATOM     22  H   UNL     1      -5.444   2.284  -0.989  0.00  0.00    -0.080 HD
BRANCH  18  23
ATOM     23  C   UNL     1      -6.649   3.315  -4.952  0.00  0.00    +0.072 A 
ATOM     24  C   UNL     1      -6.151   2.204  -5.618  0.00  0.00    +0.027 A 
ATOM     25  C   UNL     1      -6.704   1.818  -6.824  0.00  0.00    +0.002 A 
ATOM     26  C   UNL     1      -7.746   2.541  -7.375  0.00  0.00    +0.004 A 
ATOM     27  C   UNL     1      -8.243   3.652  -6.719  0.00  0.00    +0.047 A 
ATOM     28  C   UNL     1      -7.698   4.044  -5.508  0.00  0.00    +0.141 A 
BRANCH  28  29
ATOM     29  O   UNL     1      -8.186   5.137  -4.862  0.00  0.00    -0.493 OA
ATOM     30  C   UNL     1      -9.262   5.835  -5.491  0.00  0.00    +0.277 C 
ENDBRANCH  28  29
ENDBRANCH  18  23
ENDBRANCH   1  21
BRANCH   1  32
ATOM     31  N   UNL     1      -5.996   4.179   2.330  0.00  0.00    -0.225 N 
ATOM     32  C   UNL     1      -5.568   3.363   1.349  0.00  0.00    +0.143 A 
ATOM     33  N   UNL     1      -6.130   2.198   1.557  0.00  0.00    -0.115 NA
ATOM     34  N   UNL     1      -6.869   2.294   2.608  0.00  0.00    -0.023 NA
ATOM     35  N   UNL     1      -6.793   3.491   3.076  0.00  0.00    -0.043 NA
BRANCH  31  36
ATOM     36  C   UNL     1      -5.630   5.586   2.514  0.00  0.00    +0.061 C 
ATOM     37  C   UNL     1      -4.109   5.705   2.631  0.00  0.00    +0.036 C 
ATOM     38  C   UNL     1      -6.114   6.401   1.313  0.00  0.00    +0.036 C 
BRANCH  36  40
ATOM     39  C   UNL     1      -5.900   7.589   3.983  0.00  0.00    +0.006 C 
ATOM     40  C   UNL     1      -6.283   6.120   3.790  0.00  0.00    +0.026 C 
ENDBRANCH  36  40
ENDBRANCH  31  36
ENDBRANCH   1  32
TORSDOF 7
