REMARK  Name = ZINC28287047
REMARK  8 active torsions:
REMARK  status: ('A' for Active; 'I' for Inactive)
REMARK    1  A    between atoms: C_1  and  C_2
REMARK    2  A    between atoms: C_5  and  C_30
REMARK    3  A    between atoms: C_6  and  C_12
REMARK    4  A    between atoms: C_10  and  C_11
REMARK    5  A    between atoms: N_14  and  C_15
REMARK    6  A    between atoms: C_15  and  C_16
REMARK    7  A    between atoms: C_16  and  C_18
REMARK    8  A    between atoms: C_16  and  N_23
REMARK                            x       y       z     vdW  Elec       q    Type
REMARK                         _______ _______ _______ _____ _____    ______ ____
ROOT
ATOM      1  C   UNL     1       3.438  -4.102   2.439  0.00  0.00    +0.280 C 
ATOM      2  O   UNL     1       3.100  -3.619   3.503  0.00  0.00    -0.267 OA
ATOM      3  N   UNL     1       3.298  -3.393   1.301  0.00  0.00    -0.310 N 
ATOM      4  H   UNL     1       3.603  -3.830   0.339  0.00  0.00    +0.149 HD
ENDROOT
BRANCH   1  10
ATOM      5  C   UNL     1       6.129 -10.996   3.387  0.00  0.00    +0.044 C 
ATOM      6  C   UNL     1       5.683  -9.702   2.757  0.00  0.00    -0.047 A 
ATOM      7  C   UNL     1       5.173  -8.705   3.541  0.00  0.00    +0.015 A 
ATOM      8  C   UNL     1       4.761  -7.506   2.955  0.00  0.00    +0.024 A 
ATOM      9  C   UNL     1       4.186  -6.264   3.471  0.00  0.00    +0.008 A 
ATOM     10  C   UNL     1       3.999  -5.460   2.393  0.00  0.00    +0.193 A 
ATOM     11  O   UNL     1       4.400  -6.097   1.274  0.00  0.00    -0.450 OA
ATOM     12  C   UNL     1       4.870  -7.326   1.564  0.00  0.00    +0.136 A 
ATOM     13  C   UNL     1       5.392  -8.354   0.787  0.00  0.00    +0.050 A 
ATOM     14  C   UNL     1       5.794  -9.529   1.384  0.00  0.00    -0.044 A 
ATOM     15  C   UNL     1       6.359 -10.640   0.537  0.00  0.00    +0.044 C 
ATOM     16  C   UNL     1       3.865  -5.943   4.908  0.00  0.00    +0.048 C 
ENDBRANCH   1  10
BRANCH   3  17
ATOM     17  C   UNL     1       2.739  -2.039   1.347  0.00  0.00    +0.094 C 
BRANCH  17  18
ATOM     18  C   UNL     1       2.590  -1.501  -0.078  0.00  0.00    -0.013 C 
BRANCH  18  19
ATOM     19  N   UNL     1       1.945  -0.182  -0.038  0.00  0.00    +0.386 N 
ATOM     20  C   UNL     1       0.708  -0.221   0.774  0.00  0.00    -0.078 C 
ATOM     21  C   UNL     1      -0.128   1.021   0.625  0.00  0.00    -0.019 C 
ATOM     22  C   UNL     1      -1.177   0.775  -0.479  0.00  0.00    -0.002 C 
ATOM     23  C   UNL     1      -0.609   0.899  -1.817  0.00  0.00    -0.002 C 
ATOM     24  C   UNL     1       0.514  -0.127  -2.071  0.00  0.00    -0.019 C 
ATOM     25  C   UNL     1       1.769   0.364  -1.403  0.00  0.00    -0.078 C 
ATOM     26  H   UNL     1       2.612   0.525   0.477  0.00  0.00    -0.081 HD
ENDBRANCH  18  19
BRANCH  18  27
ATOM     27  C   UNL     1       3.952  -1.375  -0.712  0.00  0.00    -0.022 A 
ATOM     28  C   UNL     1       4.569  -2.211  -1.582  0.00  0.00    +0.009 A 
ATOM     29  C   UNL     1       5.834  -1.890  -2.037  0.00  0.00    +0.008 A 
ATOM     30  C   UNL     1       6.420  -0.749  -1.599  0.00  0.00    +0.045 A 
ATOM     31  S   UNL     1       5.171  -0.087  -0.509  0.00  0.00    -0.103 S 
ENDBRANCH  18  27
ENDBRANCH  17  18
ENDBRANCH   3  17
TORSDOF 5
