REMARK  Name = ZINC14940651
REMARK  5 active torsions:
REMARK  status: ('A' for Active; 'I' for Inactive)
REMARK    1  A    between atoms: C_1  and  C_2
REMARK    2  A    between atoms: C_3  and  C_14
REMARK    3  A    between atoms: N_5  and  C_7
REMARK    4  A    between atoms: N_16  and  N_17
REMARK    5  A    between atoms: C_18  and  C_20
REMARK                            x       y       z     vdW  Elec       q    Type
REMARK                         _______ _______ _______ _____ _____    ______ ____
ROOT
ATOM      1  C   UNL     1      -0.005  -0.374  -2.548  0.00  0.00    +0.265 C 
ATOM      2  O   UNL     1       1.042  -0.172  -3.132  0.00  0.00    -0.268 OA
ATOM      3  N   UNL     1      -1.178  -0.183  -3.184  0.00  0.00    -0.230 N 
ATOM      4  H   UNL     1      -2.014  -0.345  -2.718  0.00  0.00    +0.173 HD
ENDROOT
BRANCH   1   7
ATOM      5  C   UNL     1      -0.018   1.503   0.010  0.00  0.00    +0.068 C 
ATOM      6  C   UNL     1       0.002  -0.004   0.002  0.00  0.00    +0.074 A 
ATOM      7  C   UNL     1       0.008  -0.828  -1.147  0.00  0.00    +0.098 A 
ATOM      8  C   UNL     1       0.028  -2.139  -0.708  0.00  0.00    +0.145 A 
ATOM      9  N   UNL     1       0.034  -2.111   0.638  0.00  0.00    -0.220 N 
ATOM     10  N   UNL     1       0.023  -0.775   1.054  0.00  0.00    -0.170 NA
ATOM     11 CL   UNL     1       0.042  -3.558  -1.708  0.00  0.00    -0.061 Cl
BRANCH   9  12
ATOM     12  C   UNL     1       0.053  -3.232   1.480  0.00  0.00    +0.067 A 
ATOM     13  C   UNL     1      -0.618  -4.390   1.112  0.00  0.00    +0.028 A 
ATOM     14  C   UNL     1      -0.597  -5.493   1.944  0.00  0.00    +0.002 A 
ATOM     15  C   UNL     1       0.091  -5.443   3.143  0.00  0.00    +0.000 A 
ATOM     16  C   UNL     1       0.759  -4.290   3.512  0.00  0.00    +0.002 A 
ATOM     17  C   UNL     1       0.747  -3.187   2.682  0.00  0.00    +0.028 A 
ENDBRANCH   9  12
ENDBRANCH   1   7
BRANCH   3  18
ATOM     18  N   UNL     1      -1.191   0.248  -4.517  0.00  0.00    -0.230 N 
ATOM     19  C   UNL     1      -2.364   0.439  -5.152  0.00  0.00    +0.267 C 
ATOM     20  O   UNL     1      -3.412   0.237  -4.568  0.00  0.00    -0.268 OA
ATOM     21  H   UNL     1      -0.355   0.409  -4.982  0.00  0.00    +0.173 HD
BRANCH  19  22
ATOM     22  C   UNL     1      -2.377   0.890  -6.547  0.00  0.00    +0.076 A 
ATOM     23  C   UNL     1      -3.456   1.149  -7.369  0.00  0.00    +0.024 A 
ATOM     24  C   UNL     1      -3.176   1.569  -8.666  0.00  0.00    -0.036 A 
ATOM     25  C   UNL     1      -1.862   1.682  -8.996  0.00  0.00    -0.006 A 
ATOM     26  S   UNL     1      -1.005   1.256  -7.623  0.00  0.00    -0.088 S 
ATOM     27  C   UNL     1      -1.278   2.102 -10.312  0.00  0.00    +0.043 C 
ATOM     28  C   UNL     1      -2.252   3.046 -11.025  0.00  0.00    +0.005 C 
ATOM     29  C   UNL     1      -3.203   2.212 -11.878  0.00  0.00    +0.001 C 
ATOM     30  C   UNL     1      -4.005   1.251 -11.004  0.00  0.00    +0.005 C 
ATOM     31  C   UNL     1      -4.299   1.883  -9.648  0.00  0.00    +0.036 C 
ENDBRANCH  19  22
ENDBRANCH   3  18
TORSDOF 4
