REMARK  Name = ZINC56709336
REMARK  11 active torsions:
REMARK  status: ('A' for Active; 'I' for Inactive)
REMARK    1  A    between atoms: C_1  and  C_2
REMARK    2  A    between atoms: C_4  and  C_27
REMARK    3  A    between atoms: C_5  and  C_9
REMARK    4  A    between atoms: C_6  and  C_8
REMARK    5  A    between atoms: C_9  and  C_10
REMARK    6  A    between atoms: C_10  and  N_11
REMARK    7  A    between atoms: N_14  and  C_15
REMARK    8  A    between atoms: C_18  and  O_22
REMARK    9  A    between atoms: C_20  and  C_21
REMARK   10  A    between atoms: O_22  and  C_23
REMARK   11  A    between atoms: C_23  and  C_24
REMARK                            x       y       z     vdW  Elec       q    Type
REMARK                         _______ _______ _______ _____ _____    ______ ____
ROOT
ATOM      1  N   UNL     1       1.527  -6.232  -0.057  0.00  0.00    -0.299 N 
ATOM      2  C   UNL     1       2.703  -6.890  -0.054  0.00  0.00    +0.304 C 
ATOM      3  O   UNL     1       3.748  -6.268  -0.048  0.00  0.00    -0.253 OA
ATOM      4  N   UNL     1       2.720  -8.238  -0.058  0.00  0.00    -0.269 N 
ATOM      5  H   UNL     1       0.693  -6.728  -0.061  0.00  0.00    +0.150 HD
ATOM      6  H   UNL     1       1.891  -8.734   0.020  0.00  0.00    +0.156 HD
ENDROOT
BRANCH   4   7
ATOM      7  C   UNL     1       3.938  -8.922  -0.174  0.00  0.00    +0.038 A 
ATOM      8  C   UNL     1       5.024  -8.309  -0.783  0.00  0.00    +0.027 A 
ATOM      9  C   UNL     1       6.224  -8.983  -0.897  0.00  0.00    +0.047 A 
ATOM     10  C   UNL     1       6.343 -10.274  -0.403  0.00  0.00    +0.122 A 
ATOM     11  C   UNL     1       5.258 -10.888   0.205  0.00  0.00    +0.050 A 
ATOM     12  C   UNL     1       4.060 -10.212   0.325  0.00  0.00    -0.026 A 
ATOM     13  C   UNL     1       2.883 -10.877   0.991  0.00  0.00    +0.046 C 
BRANCH  10  14
ATOM     14  O   UNL     1       7.524 -10.939  -0.516  0.00  0.00    -0.483 OA
BRANCH  14  15
ATOM     15  C   UNL     1       8.599 -10.246  -1.154  0.00  0.00    +0.324 C 
BRANCH  15  16
ATOM     16  C   UNL     1       9.818 -11.133  -1.188  0.00  0.00    +0.248 C 
ATOM     17  O   UNL     1       9.770 -12.247  -0.713  0.00  0.00    -0.272 OA
ATOM     18  N   UNL     1      10.960 -10.687  -1.747  0.00  0.00    -0.327 N 
ATOM     19  H   UNL     1      10.998  -9.795  -2.127  0.00  0.00    +0.145 HD
ATOM     20  H   UNL     1      11.745 -11.257  -1.768  0.00  0.00    +0.145 HD
ENDBRANCH  15  16
ENDBRANCH  14  15
ENDBRANCH  10  14
ENDBRANCH   4   7
BRANCH   1  21
ATOM     21  C   UNL     1       1.508  -4.767  -0.053  0.00  0.00    +0.110 C 
BRANCH  21  22
ATOM     22  C   UNL     1       0.058  -4.276  -0.057  0.00  0.00    +0.054 C 
BRANCH  22  27
ATOM     23  C   UNL     1      -0.021   1.502  -0.041  0.00  0.00    +0.044 C 
ATOM     24  C   UNL     1      -0.000  -0.005  -0.045  0.00  0.00    -0.050 A 
ATOM     25  C   UNL     1       0.015  -0.692  -1.244  0.00  0.00    +0.007 A 
ATOM     26  C   UNL     1       0.034  -2.075  -1.248  0.00  0.00    -0.047 A 
ATOM     27  C   UNL     1       0.039  -2.769  -0.053  0.00  0.00    -0.040 A 
ATOM     28  C   UNL     1       0.025  -2.081   1.147  0.00  0.00    -0.047 A 
ATOM     29  C   UNL     1       0.010  -0.699   1.150  0.00  0.00    +0.007 A 
ATOM     30  C   UNL     1       0.029  -2.838   2.450  0.00  0.00    +0.044 C 
ATOM     31  C   UNL     1       0.049  -2.824  -2.555  0.00  0.00    +0.044 C 
ENDBRANCH  22  27
ENDBRANCH  21  22
ENDBRANCH   1  21
TORSDOF 7
