REMARK  Name = ZINC11329496
REMARK  10 active torsions:
REMARK  status: ('A' for Active; 'I' for Inactive)
REMARK    1  A    between atoms: C_1  and  C_2
REMARK    2  A    between atoms: C_7  and  N_8
REMARK    3  A    between atoms: C_9  and  S_13
REMARK    4  A    between atoms: S_13  and  C_14
REMARK    5  A    between atoms: C_14  and  C_15
REMARK    6  A    between atoms: N_17  and  C_18
REMARK    7  A    between atoms: C_19  and  C_31
REMARK    8  A    between atoms: C_20  and  C_30
REMARK    9  A    between atoms: C_21  and  C_29
REMARK   10  A    between atoms: N_22  and  C_23
REMARK                            x       y       z     vdW  Elec       q    Type
REMARK                         _______ _______ _______ _____ _____    ______ ____
ROOT
ATOM      1  C   UNL     1       0.929  -3.244   6.553  0.00  0.00    +0.229 C 
ATOM      2  O   UNL     1       0.686  -4.193   5.838  0.00  0.00    -0.275 OA
ATOM      3  N   UNL     1       1.396  -3.443   7.801  0.00  0.00    -0.270 N 
ATOM      4  H   UNL     1       1.585  -2.684   8.375  0.00  0.00    +0.156 HD
ENDROOT
BRANCH   3   5
ATOM      5  C   UNL     1       1.606  -4.733   8.265  0.00  0.00    +0.128 A 
ATOM      6  C   UNL     1       1.324  -5.198   9.542  0.00  0.00    +0.095 A 
ATOM      7  C   UNL     1       1.715  -6.614   9.554  0.00  0.00    -0.010 A 
ATOM      8  C   UNL     1       2.188  -6.894   8.329  0.00  0.00    +0.027 A 
ATOM      9  N   UNL     1       2.120  -5.769   7.548  0.00  0.00    -0.300 N 
ATOM     10  C   UNL     1       2.708  -8.236   7.881  0.00  0.00    +0.064 C 
ATOM     11  C   UNL     1       1.607  -7.567  10.716  0.00  0.00    +0.047 C 
BRANCH   9  12
ATOM     12  C   UNL     1       2.523  -5.695   6.208  0.00  0.00    +0.048 A 
ATOM     13  C   UNL     1       1.838  -6.410   5.235  0.00  0.00    +0.026 A 
ATOM     14  C   UNL     1       2.237  -6.335   3.915  0.00  0.00    +0.002 A 
ATOM     15  C   UNL     1       3.319  -5.550   3.562  0.00  0.00    +0.000 A 
ATOM     16  C   UNL     1       4.005  -4.837   4.529  0.00  0.00    +0.002 A 
ATOM     17  C   UNL     1       3.606  -4.903   5.850  0.00  0.00    +0.026 A 
ENDBRANCH   9  12
BRANCH   6  18
ATOM     18  C   UNL     1       0.765  -4.450  10.628  0.00  0.00    +0.103 C 
ATOM     19  N   UNL     1       0.322  -3.857  11.489  0.00  0.00    -0.191 NA
ENDBRANCH   6  18
ENDBRANCH   3   5
BRANCH   1  20
ATOM     20  C   UNL     1       0.709  -1.842   6.046  0.00  0.00    +0.173 C 
BRANCH  20  21
ATOM     21  S   UNL     1       0.080  -1.906   4.345  0.00  0.00    -0.075 S 
BRANCH  21  23
ATOM     22  N   UNL     1      -0.574   0.262   2.714  0.00  0.00    -0.187 N 
ATOM     23  C   UNL     1      -0.123  -0.213   3.902  0.00  0.00    +0.214 A 
ATOM     24  N   UNL     1       0.134   0.831   4.661  0.00  0.00    -0.101 NA
ATOM     25  N   UNL     1      -0.125   1.920   4.032  0.00  0.00    -0.022 NA
ATOM     26  N   UNL     1      -0.552   1.661   2.843  0.00  0.00    -0.038 NA
BRANCH  22  33
ATOM     27  C   UNL     1      -3.014   0.962   1.426  0.00  0.00    +0.046 C 
ATOM     28  C   UNL     1      -2.155  -0.175   0.938  0.00  0.00    -0.025 A 
ATOM     29  C   UNL     1      -2.541  -0.908  -0.168  0.00  0.00    +0.005 A 
ATOM     30  C   UNL     1      -1.753  -1.952  -0.617  0.00  0.00    +0.000 A 
ATOM     31  C   UNL     1      -0.576  -2.265   0.039  0.00  0.00    +0.002 A 
ATOM     32  C   UNL     1      -0.185  -1.536   1.145  0.00  0.00    +0.028 A 
ATOM     33  C   UNL     1      -0.972  -0.484   1.595  0.00  0.00    +0.073 A 
ENDBRANCH  22  33
ENDBRANCH  21  23
ENDBRANCH  20  21
ENDBRANCH   1  20
TORSDOF 7
