REMARK  Name = ZINC63908405
REMARK  5 active torsions:
REMARK  status: ('A' for Active; 'I' for Inactive)
REMARK    1  A    between atoms: C_4  and  C_7
REMARK    2  A    between atoms: C_7  and  C_9
REMARK    3  A    between atoms: C_7  and  C_25
REMARK    4  A    between atoms: C_9  and  N_10
REMARK    5  A    between atoms: C_11  and  C_13
REMARK                            x       y       z     vdW  Elec       q    Type
REMARK                         _______ _______ _______ _____ _____    ______ ____
ROOT
ATOM      1  C   UNL     1       3.791  -1.579  -1.292  0.00  0.00    +0.117 C 
ENDROOT
BRANCH   1   2
ATOM      2  N   UNL     1       3.810  -0.724  -2.481  0.00  0.00    -0.310 N 
ATOM      3  C   UNL     1       3.878  -1.277  -3.708  0.00  0.00    +0.244 C 
ATOM      4  O   UNL     1       3.924  -2.486  -3.829  0.00  0.00    -0.270 OA
ATOM      5  H   UNL     1       3.773   0.241  -2.385  0.00  0.00    +0.149 HD
BRANCH   3   6
ATOM      6  C   UNL     1       3.896  -0.416  -4.905  0.00  0.00    +0.039 A 
ATOM      7  C   UNL     1       3.849   0.975  -4.767  0.00  0.00    +0.014 A 
ATOM      8  C   UNL     1       3.866   1.782  -5.883  0.00  0.00    +0.017 A 
ATOM      9  C   UNL     1       3.930   1.211  -7.149  0.00  0.00    +0.029 A 
ATOM     10  C   UNL     1       3.979  -0.177  -7.295  0.00  0.00    +0.048 A 
ATOM     11  C   UNL     1       3.967  -0.990  -6.179  0.00  0.00    +0.037 A 
ATOM     12  N   UNL     1       4.048  -0.733  -8.582  0.00  0.00    -0.285 N 
ATOM     13  C   UNL     1       4.964  -0.300  -9.457  0.00  0.00    +0.218 C 
ATOM     14  O   UNL     1       4.888  -0.646 -10.617  0.00  0.00    -0.275 OA
ATOM     15  C   UNL     1       6.081   0.605  -9.031  0.00  0.00    +0.107 C 
ATOM     16  C   UNL     1       5.668   2.079  -9.183  0.00  0.00    +0.083 C 
ATOM     17  S   UNL     1       3.948   2.228  -8.590  0.00  0.00    -0.123 S 
ATOM     18  H   UNL     1       3.429  -1.434  -8.839  0.00  0.00    +0.155 HD
ENDBRANCH   3   6
ENDBRANCH   1   2
BRANCH   1  19
ATOM     19  C   UNL     1       3.711  -0.707  -0.038  0.00  0.00    +0.064 C 
BRANCH  19  20
ATOM     20  C   UNL     1       3.816  -1.579   1.188  0.00  0.00    -0.033 C 
ATOM     21  C   UNL     1       4.756  -1.509   2.157  0.00  0.00    -0.000 A 
ATOM     22  C   UNL     1       5.920  -0.636   2.352  0.00  0.00    +0.010 A 
ATOM     23  C   UNL     1       6.696  -0.812   3.446  0.00  0.00    +0.001 A 
ATOM     24  C   UNL     1       6.417  -1.805   4.396  0.00  0.00    +0.002 A 
ATOM     25  C   UNL     1       5.366  -2.646   4.285  0.00  0.00    +0.026 A 
ATOM     26  C   UNL     1       4.483  -2.550   3.174  0.00  0.00    +0.043 A 
ATOM     27  N   UNL     1       3.415  -3.236   2.846  0.00  0.00    -0.380 N 
ATOM     28  C   UNL     1       2.886  -2.703   1.585  0.00  0.00    +0.145 C 
ATOM     29  H   UNL     1       3.036  -3.970   3.354  0.00  0.00    +0.160 HD
ENDBRANCH  19  20
BRANCH  19  33
ATOM     30  C   UNL     1      -0.017   1.378   0.010  0.00  0.00    +0.000 A 
ATOM     31  C   UNL     1       1.171   2.086   0.002  0.00  0.00    +0.000 A 
ATOM     32  C   UNL     1       2.377   1.411  -0.013  0.00  0.00    +0.004 A 
ATOM     33  C   UNL     1       2.396   0.029  -0.020  0.00  0.00    -0.039 A 
ATOM     34  C   UNL     1       1.208  -0.679  -0.012  0.00  0.00    +0.004 A 
ATOM     35  C   UNL     1       0.002  -0.004   0.002  0.00  0.00    +0.000 A 
ENDBRANCH  19  33
ENDBRANCH   1  19
TORSDOF 5
