REMARK  Name = ZINC02413470
REMARK  7 active torsions:
REMARK  status: ('A' for Active; 'I' for Inactive)
REMARK    1  A    between atoms: C_1  and  C_2
REMARK    2  A    between atoms: C_5  and  N_8
REMARK    3  A    between atoms: C_16  and  C_20
REMARK    4  A    between atoms: C_16  and  N_24
REMARK    5  A    between atoms: C_25  and  C_27
REMARK    6  A    between atoms: C_31  and  O_33
REMARK    7  A    between atoms: O_33  and  C_34
REMARK                            x       y       z     vdW  Elec       q    Type
REMARK                         _______ _______ _______ _____ _____    ______ ____
ROOT
ATOM      1  N   UNL     1       0.204  -4.147   0.033  0.00  0.00    -0.249 N 
ATOM      2  C   UNL     1       0.281  -4.859   1.214  0.00  0.00    +0.125 A 
ATOM      3  C   UNL     1       0.252  -6.221   1.151  0.00  0.00    +0.097 A 
ATOM      4  C   UNL     1       0.146  -6.868  -0.086  0.00  0.00    +0.262 A 
ATOM      5  N   UNL     1       0.073  -6.130  -1.214  0.00  0.00    -0.274 N 
ATOM      6  C   UNL     1       0.098  -4.786  -1.145  0.00  0.00    +0.335 A 
ATOM      7  O   UNL     1       0.026  -4.136  -2.170  0.00  0.00    -0.246 OA
ATOM      8  O   UNL     1       0.121  -8.085  -0.145  0.00  0.00    -0.267 OA
ATOM      9  C   UNL     1       0.352  -6.721   2.573  0.00  0.00    +0.240 C 
ATOM     10  C   UNL     1       0.437  -5.447   3.391  0.00  0.00    +0.256 C 
ATOM     11  O   UNL     1       0.531  -5.363   4.597  0.00  0.00    -0.272 OA
ATOM     12  N   UNL     1       0.388  -4.429   2.514  0.00  0.00    -0.269 N 
ATOM     13  H   UNL     1      -0.001  -6.569  -2.076  0.00  0.00    +0.173 HD
ATOM     14  H   UNL     1       0.424  -3.494   2.771  0.00  0.00    +0.156 HD
ENDROOT
BRANCH   1  19
ATOM     15  C   UNL     1       0.311   1.525   0.155  0.00  0.00    +0.044 C 
ATOM     16  C   UNL     1       0.282   0.019   0.122  0.00  0.00    -0.050 A 
ATOM     17  C   UNL     1       1.322  -0.678  -0.466  0.00  0.00    +0.005 A 
ATOM     18  C   UNL     1       1.298  -2.059  -0.497  0.00  0.00    +0.026 A 
ATOM     19  C   UNL     1       0.230  -2.747   0.064  0.00  0.00    +0.053 A 
ATOM     20  C   UNL     1      -0.811  -2.044   0.654  0.00  0.00    +0.026 A 
ATOM     21  C   UNL     1      -0.780  -0.663   0.686  0.00  0.00    +0.005 A 
ENDBRANCH   1  19
BRANCH   9  22
ATOM     22  C   UNL     1      -0.895  -7.522   2.952  0.00  0.00    +0.424 C 
ATOM     23  F   UNL     1      -0.958  -8.682   2.173  0.00  0.00    -0.167 F 
ATOM     24  F   UNL     1      -0.832  -7.872   4.305  0.00  0.00    -0.167 F 
ATOM     25  F   UNL     1      -2.036  -6.744   2.724  0.00  0.00    -0.167 F 
ENDBRANCH   9  22
BRANCH   9  26
ATOM     26  N   UNL     1       1.560  -7.529   2.752  0.00  0.00    -0.287 N 
ATOM     27  C   UNL     1       2.776  -6.964   2.617  0.00  0.00    +0.245 C 
ATOM     28  O   UNL     1       2.872  -5.809   2.252  0.00  0.00    -0.270 OA
ATOM     29  H   UNL     1       1.486  -8.472   2.967  0.00  0.00    +0.151 HD
BRANCH  27  30
ATOM     30  C   UNL     1       3.994  -7.748   2.914  0.00  0.00    +0.040 A 
ATOM     31  C   UNL     1       3.887  -9.077   3.329  0.00  0.00    +0.013 A 
ATOM     32  C   UNL     1       5.025  -9.806   3.605  0.00  0.00    +0.004 A 
ATOM     33  C   UNL     1       6.273  -9.225   3.473  0.00  0.00    +0.045 A 
ATOM     34  C   UNL     1       6.389  -7.904   3.062  0.00  0.00    +0.121 A 
ATOM     35  C   UNL     1       5.253  -7.165   2.776  0.00  0.00    +0.058 A 
BRANCH  34  36
ATOM     36  O   UNL     1       7.618  -7.338   2.934  0.00  0.00    -0.495 OA
ATOM     37  C   UNL     1       8.746  -8.160   3.240  0.00  0.00    +0.277 C 
ENDBRANCH  34  36
ENDBRANCH  27  30
ENDBRANCH   9  26
TORSDOF 5
