REMARK  Name = ZINC25382045
REMARK  9 active torsions:
REMARK  status: ('A' for Active; 'I' for Inactive)
REMARK    1  A    between atoms: C_1  and  C_2
REMARK    2  A    between atoms: C_10  and  C_31
REMARK    3  A    between atoms: C_11  and  C_12
REMARK    4  A    between atoms: C_12  and  C_13
REMARK    5  A    between atoms: N_15  and  C_16
REMARK    6  A    between atoms: C_16  and  C_17
REMARK    7  A    between atoms: C_17  and  C_19
REMARK    8  A    between atoms: C_17  and  N_24
REMARK    9  A    between atoms: C_27  and  C_30
REMARK                            x       y       z     vdW  Elec       q    Type
REMARK                         _______ _______ _______ _____ _____    ______ ____
ROOT
ATOM      1  C   UNL     1       4.499   5.444  -2.010  0.00  0.00    +0.217 C 
ATOM      2  O   UNL     1       4.143   4.927  -3.047  0.00  0.00    -0.275 OA
ATOM      3  N   UNL     1       5.305   6.524  -2.037  0.00  0.00    -0.316 N 
ATOM      4  H   UNL     1       5.628   6.993  -1.095  0.00  0.00    +0.149 HD
ENDROOT
BRANCH   1   5
ATOM      5  C   UNL     1       4.040   4.880  -0.690  0.00  0.00    +0.133 C 
BRANCH   5  16
ATOM      6  C   UNL     1       5.186   2.228  -0.871  0.00  0.00    +0.045 C 
ATOM      7  C   UNL     1       3.701   2.436  -1.020  0.00  0.00    -0.036 A 
ATOM      8  C   UNL     1       2.838   1.348  -1.251  0.00  0.00    +0.004 A 
ATOM      9  C   UNL     1       3.326   0.035  -1.350  0.00  0.00    +0.010 A 
ATOM     10  C   UNL     1       2.459  -0.990  -1.574  0.00  0.00    +0.001 A 
ATOM     11  C   UNL     1       1.093  -0.754  -1.713  0.00  0.00    +0.002 A 
ATOM     12  C   UNL     1       0.585   0.504  -1.616  0.00  0.00    +0.028 A 
ATOM     13  C   UNL     1       1.448   1.590  -1.385  0.00  0.00    +0.072 A 
ATOM     14  N   UNL     1       0.978   2.838  -1.292  0.00  0.00    -0.252 NA
ATOM     15  C   UNL     1       1.779   3.853  -1.077  0.00  0.00    +0.043 A 
ATOM     16  C   UNL     1       3.155   3.685  -0.936  0.00  0.00    -0.014 A 
ATOM     17  C   UNL     1       1.196   5.239  -0.982  0.00  0.00    +0.066 C 
ENDBRANCH   5  16
ENDBRANCH   1   5
BRANCH   3  18
ATOM     18  C   UNL     1       5.752   7.073  -3.319  0.00  0.00    +0.094 C 
BRANCH  18  19
ATOM     19  C   UNL     1       6.650   8.286  -3.070  0.00  0.00    -0.013 C 
BRANCH  19  20
ATOM     20  N   UNL     1       7.755   7.903  -2.181  0.00  0.00    +0.386 N 
ATOM     21  C   UNL     1       8.381   6.653  -2.629  0.00  0.00    -0.078 C 
ATOM     22  C   UNL     1       9.427   6.209  -1.603  0.00  0.00    -0.015 C 
ATOM     23  C   UNL     1      10.484   7.306  -1.451  0.00  0.00    -0.018 C 
ATOM     24  C   UNL     1       9.799   8.609  -1.031  0.00  0.00    -0.015 C 
ATOM     25  C   UNL     1       8.743   8.984  -2.073  0.00  0.00    -0.078 C 
ATOM     26  C   UNL     1      11.499   6.894  -0.383  0.00  0.00    +0.007 C 
ATOM     27  H   UNL     1       7.338   7.728  -1.177  0.00  0.00    -0.081 HD
ENDBRANCH  19  20
BRANCH  19  28
ATOM     28  C   UNL     1       7.208   8.776  -4.381  0.00  0.00    -0.022 A 
ATOM     29  C   UNL     1       6.894   9.896  -5.077  0.00  0.00    +0.009 A 
ATOM     30  C   UNL     1       7.543  10.147  -6.272  0.00  0.00    +0.008 A 
ATOM     31  C   UNL     1       8.472   9.265  -6.713  0.00  0.00    +0.045 A 
ATOM     32  S   UNL     1       8.458   8.035  -5.418  0.00  0.00    -0.103 S 
ENDBRANCH  19  28
ENDBRANCH  18  19
ENDBRANCH   3  18
TORSDOF 6
