REMARK  Name = ZINC16846865
REMARK  7 active torsions:
REMARK  status: ('A' for Active; 'I' for Inactive)
REMARK    1  A    between atoms: C_1  and  C_2
REMARK    2  A    between atoms: C_2  and  C_3
REMARK    3  A    between atoms: C_3  and  C_31
REMARK    4  A    between atoms: C_13  and  S_18
REMARK    5  A    between atoms: S_18  and  C_19
REMARK    6  A    between atoms: C_19  and  C_20
REMARK    7  A    between atoms: N_22  and  C_23
REMARK                            x       y       z     vdW  Elec       q    Type
REMARK                         _______ _______ _______ _____ _____    ______ ____
ROOT
ATOM      1  C   UNL     1      -1.868 -11.259   0.447  0.00  0.00    +0.071 C 
ATOM      2  C   UNL     1      -1.909  -9.766   0.788  0.00  0.00    +0.071 C 
ATOM      3  C   UNL     1      -3.372  -9.334   0.843  0.00  0.00    -0.019 A 
ATOM      4  C   UNL     1      -4.340 -10.272   0.965  0.00  0.00    +0.021 A 
ATOM      5  S   UNL     1      -5.857  -9.361   0.988  0.00  0.00    -0.071 S 
ATOM      6  C   UNL     1      -5.186  -7.724   0.834  0.00  0.00    +0.116 A 
ATOM      7  C   UNL     1      -3.802  -7.944   0.761  0.00  0.00    +0.056 A 
ATOM      8  C   UNL     1      -2.979  -6.721   0.633  0.00  0.00    +0.174 A 
ATOM      9  N   UNL     1      -1.691  -6.495   0.551  0.00  0.00    -0.128 NA
ATOM     10  N   UNL     1      -1.479  -5.229   0.451  0.00  0.00    -0.122 NA
ATOM     11  C   UNL     1      -2.616  -4.574   0.463  0.00  0.00    +0.199 A 
ATOM     12  N   UNL     1      -3.616  -5.500   0.586  0.00  0.00    -0.241 N 
ATOM     13  C   UNL     1      -4.981  -5.425   0.659  0.00  0.00    +0.202 A 
ATOM     14  N   UNL     1      -5.716  -6.504   0.779  0.00  0.00    -0.208 NA
ATOM     15  N   UNL     1      -5.592  -4.194   0.608  0.00  0.00    -0.328 N 
ATOM     16  C   UNL     1      -4.133 -11.752   1.058  0.00  0.00    +0.203 C 
ATOM     17  O   UNL     1      -2.740 -11.987   1.315  0.00  0.00    -0.368 OA
ATOM     18  C   UNL     1      -2.317 -11.460  -1.002  0.00  0.00    +0.042 C 
ATOM     19  H   UNL     1      -5.056  -3.390   0.520  0.00  0.00    +0.145 HD
ATOM     20  H   UNL     1      -6.559  -4.130   0.659  0.00  0.00    +0.145 HD
ENDROOT
BRANCH   1  22
ATOM     21  C   UNL     1      -0.369 -13.236   0.152  0.00  0.00    +0.007 C 
ATOM     22  C   UNL     1      -0.438 -11.778   0.612  0.00  0.00    +0.032 C 
ENDBRANCH   1  22
BRANCH  11  23
ATOM     23  S   UNL     1      -2.818  -2.827   0.349  0.00  0.00    -0.076 S 
BRANCH  23  24
ATOM     24  C   UNL     1      -1.121  -2.197   0.216  0.00  0.00    +0.173 C 
BRANCH  24  25
ATOM     25  C   UNL     1      -1.150  -0.694   0.111  0.00  0.00    +0.227 C 
ATOM     26  O   UNL     1      -2.211  -0.106   0.124  0.00  0.00    -0.275 OA
ATOM     27  N   UNL     1       0.002  -0.004   0.002  0.00  0.00    -0.285 N 
ATOM     28  H   UNL     1       0.844  -0.477  -0.086  0.00  0.00    +0.155 HD
BRANCH  27  29
ATOM     29  C   UNL     1      -0.016   1.395   0.015  0.00  0.00    +0.033 A 
ATOM     30  C   UNL     1       0.912   2.110  -0.729  0.00  0.00    +0.023 A 
ATOM     31  C   UNL     1       0.888   3.491  -0.718  0.00  0.00    +0.002 A 
ATOM     32  C   UNL     1      -0.052   4.162   0.043  0.00  0.00    +0.000 A 
ATOM     33  C   UNL     1      -0.975   3.452   0.789  0.00  0.00    +0.002 A 
ATOM     34  C   UNL     1      -0.960   2.071   0.778  0.00  0.00    +0.023 A 
ENDBRANCH  27  29
ENDBRANCH  24  25
ENDBRANCH  23  24
ENDBRANCH  11  23
TORSDOF 5
