REMARK  Name = ZINC15680225
REMARK  10 active torsions:
REMARK  status: ('A' for Active; 'I' for Inactive)
REMARK    1  A    between atoms: C_1  and  C_2
REMARK    2  A    between atoms: C_2  and  C_3
REMARK    3  A    between atoms: C_3  and  S_4
REMARK    4  A    between atoms: S_4  and  N_7
REMARK    5  A    between atoms: N_11  and  C_26
REMARK    6  A    between atoms: C_12  and  C_14
REMARK    7  A    between atoms: C_12  and  C_15
REMARK    8  A    between atoms: N_17  and  C_18
REMARK    9  A    between atoms: C_30  and  S_32
REMARK   10  A    between atoms: S_32  and  C_33
REMARK                            x       y       z     vdW  Elec       q    Type
REMARK                         _______ _______ _______ _____ _____    ______ ____
ROOT
ATOM      1  N   UNL     1      -4.603  -0.385   0.071  0.00  0.00    -0.170 NA
ATOM      2  C   UNL     1      -4.877   1.014   0.432  0.00  0.00    +0.205 C 
ATOM      3  C   UNL     1      -3.596   1.798   0.347  0.00  0.00    +0.236 C 
ATOM      4  O   UNL     1      -3.656   3.010   0.380  0.00  0.00    -0.274 OA
ATOM      5  N   UNL     1      -2.398   1.224   0.238  0.00  0.00    -0.255 N 
ATOM      6  C   UNL     1      -2.178  -0.209   0.091  0.00  0.00    +0.129 C 
ATOM      7  C   UNL     1      -3.381  -0.997   0.619  0.00  0.00    +0.145 C 
ATOM      8  C   UNL     1      -0.930  -0.610   0.881  0.00  0.00    +0.043 C 
ENDROOT
BRANCH   5   9
ATOM      9  C   UNL     1      -1.273   2.056   0.259  0.00  0.00    +0.038 A 
ATOM     10  C   UNL     1      -0.406   2.025   1.345  0.00  0.00    +0.023 A 
ATOM     11  C   UNL     1       0.708   2.842   1.365  0.00  0.00    +0.003 A 
ATOM     12  C   UNL     1       0.962   3.696   0.309  0.00  0.00    +0.015 A 
ATOM     13  C   UNL     1       0.096   3.736  -0.777  0.00  0.00    +0.009 A 
ATOM     14  C   UNL     1      -1.025   2.916  -0.800  0.00  0.00    +0.038 A 
BRANCH  13  15
ATOM     15  S   UNL     1       0.419   4.826  -2.123  0.00  0.00    -0.129 S 
ATOM     16  C   UNL     1       1.953   5.668  -1.647  0.00  0.00    +0.090 C 
ENDBRANCH  13  15
ENDBRANCH   5   9
BRANCH   6  17
ATOM     17  C   UNL     1      -1.967  -0.532  -1.365  0.00  0.00    +0.238 C 
ATOM     18  O   UNL     1      -2.453  -1.536  -1.840  0.00  0.00    -0.273 OA
ATOM     19  N   UNL     1      -1.238   0.295  -2.141  0.00  0.00    -0.311 N 
ATOM     20  H   UNL     1      -0.849   1.099  -1.761  0.00  0.00    +0.149 HD
BRANCH  19  21
ATOM     21  C   UNL     1      -1.033  -0.019  -3.557  0.00  0.00    +0.073 C 
ATOM     22  C   UNL     1       0.159  -0.967  -3.701  0.00  0.00    +0.022 C 
ATOM     23  C   UNL     1       0.137  -1.606  -5.091  0.00  0.00    +0.002 C 
ATOM     24  C   UNL     1      -1.289  -2.044  -5.429  0.00  0.00    +0.000 C 
ATOM     25  C   UNL     1      -1.825  -1.193  -6.582  0.00  0.00    +0.000 C 
ATOM     26  C   UNL     1      -2.203   0.194  -6.058  0.00  0.00    +0.000 C 
ATOM     27  C   UNL     1      -0.934   1.016  -5.828  0.00  0.00    +0.002 C 
ATOM     28  C   UNL     1      -0.755   1.272  -4.330  0.00  0.00    +0.022 C 
ENDBRANCH  19  21
ENDBRANCH   6  17
BRANCH   1  29
ATOM     29  S   UNL     1      -5.628  -1.238  -0.911  0.00  0.00    +0.032 S 
ATOM     30  O   UNL     1      -6.164  -0.271  -1.804  0.00  0.00    -0.158 OA
ATOM     31  O   UNL     1      -4.846  -2.320  -1.399  0.00  0.00    -0.158 OA
BRANCH  29  32
ATOM     32  C   UNL     1      -6.927  -1.855   0.195  0.00  0.00    +0.185 C 
BRANCH  32  34
ATOM     33  C   UNL     1      -8.969  -3.288   0.344  0.00  0.00    +0.005 C 
ATOM     34  C   UNL     1      -7.873  -2.767  -0.589  0.00  0.00    +0.021 C 
ENDBRANCH  32  34
ENDBRANCH  29  32
ENDBRANCH   1  29
TORSDOF 7
