REMARK  Name = ZINC36684455
REMARK  13 active torsions:
REMARK  status: ('A' for Active; 'I' for Inactive)
REMARK    1  A    between atoms: C_1  and  O_2
REMARK    2  A    between atoms: O_2  and  C_3
REMARK    3  A    between atoms: C_8  and  C_9
REMARK    4  A    between atoms: N_11  and  C_12
REMARK    5  A    between atoms: C_12  and  C_14
REMARK    6  A    between atoms: C_12  and  C_18
REMARK    7  A    between atoms: C_14  and  C_15
REMARK    8  A    between atoms: C_15  and  S_16
REMARK    9  A    between atoms: S_16  and  C_17
REMARK   10  A    between atoms: N_20  and  C_21
REMARK   11  A    between atoms: C_21  and  C_22
REMARK   12  A    between atoms: C_22  and  C_24
REMARK   13  A    between atoms: C_22  and  N_29
REMARK                            x       y       z     vdW  Elec       q    Type
REMARK                         _______ _______ _______ _____ _____    ______ ____
ROOT
ATOM      1  C   UNL     1       0.207  -6.102  -1.436  0.00  0.00    +0.233 C 
ATOM      2  O   UNL     1       1.067  -6.280  -0.600  0.00  0.00    -0.274 OA
ATOM      3  N   UNL     1      -0.178  -7.118  -2.234  0.00  0.00    -0.315 N 
ATOM      4  H   UNL     1      -0.866  -6.976  -2.902  0.00  0.00    +0.149 HD
ENDROOT
BRANCH   1   5
ATOM      5  C   UNL     1      -0.433  -4.745  -1.581  0.00  0.00    +0.160 C 
BRANCH   5   8
ATOM      6  C   UNL     1       0.142  -2.495  -0.845  0.00  0.00    +0.248 C 
ATOM      7  O   UNL     1      -0.355  -2.065  -1.868  0.00  0.00    -0.270 OA
ATOM      8  N   UNL     1       0.153  -3.822  -0.607  0.00  0.00    -0.300 N 
ATOM      9  H   UNL     1       0.549  -4.165   0.209  0.00  0.00    +0.150 HD
BRANCH   6  15
ATOM     10  C   UNL     1       0.723  -0.185  -0.106  0.00  0.00    +0.132 A 
ATOM     11  C   UNL     1       1.275   0.681   0.826  0.00  0.00    +0.046 A 
ATOM     12  C   UNL     1       1.837   0.183   1.985  0.00  0.00    +0.004 A 
ATOM     13  C   UNL     1       1.854  -1.181   2.226  0.00  0.00    +0.001 A 
ATOM     14  C   UNL     1       1.309  -2.055   1.311  0.00  0.00    +0.017 A 
ATOM     15  C   UNL     1       0.732  -1.565   0.137  0.00  0.00    +0.078 A 
BRANCH  10  17
ATOM     16  C   UNL     1       0.198   1.720  -1.425  0.00  0.00    +0.277 C 
ATOM     17  O   UNL     1       0.171   0.302  -1.246  0.00  0.00    -0.494 OA
ENDBRANCH  10  17
ENDBRANCH   6  15
ENDBRANCH   5   8
BRANCH   5  18
ATOM     18  C   UNL     1      -1.938  -4.862  -1.333  0.00  0.00    +0.042 C 
BRANCH  18  19
ATOM     19  C   UNL     1      -2.606  -3.512  -1.602  0.00  0.00    +0.071 C 
BRANCH  19  20
ATOM     20  S   UNL     1      -4.390  -3.650  -1.307  0.00  0.00    -0.164 S 
ATOM     21  C   UNL     1      -5.024  -1.989  -1.666  0.00  0.00    +0.084 C 
ENDBRANCH  19  20
ENDBRANCH  18  19
ENDBRANCH   5  18
ENDBRANCH   1   5
BRANCH   3  22
ATOM     22  C   UNL     1       0.444  -8.437  -2.092  0.00  0.00    +0.096 C 
BRANCH  22  23
ATOM     23  C   UNL     1      -0.257  -9.433  -3.017  0.00  0.00    +0.016 C 
BRANCH  23  24
ATOM     24  N   UNL     1      -1.700  -9.421  -2.747  0.00  0.00    +0.387 N 
ATOM     25  C   UNL     1      -1.939  -9.807  -1.351  0.00  0.00    -0.078 C 
ATOM     26  C   UNL     1      -3.434  -9.717  -1.041  0.00  0.00    -0.019 C 
ATOM     27  C   UNL     1      -4.201 -10.662  -1.972  0.00  0.00    -0.004 C 
ATOM     28  C   UNL     1      -3.886 -10.296  -3.425  0.00  0.00    -0.019 C 
ATOM     29  C   UNL     1      -2.374 -10.364  -3.647  0.00  0.00    -0.078 C 
ATOM     30  H   UNL     1      -2.063  -8.492  -2.903  0.00  0.00    -0.081 HD
ENDBRANCH  23  24
BRANCH  23  31
ATOM     31  C   UNL     1      -0.011  -9.045  -4.452  0.00  0.00    +0.093 A 
ATOM     32  C   UNL     1       0.895  -9.604  -5.274  0.00  0.00    +0.043 A 
ATOM     33  C   UNL     1       0.786  -8.938  -6.517  0.00  0.00    +0.041 A 
ATOM     34  C   UNL     1      -0.181  -8.013  -6.380  0.00  0.00    +0.195 A 
ATOM     35  O   UNL     1      -0.664  -8.086  -5.129  0.00  0.00    -0.469 OA
ENDBRANCH  23  31
ENDBRANCH  22  23
ENDBRANCH   3  22
TORSDOF 11
