REMARK  Name = ZINC12558111
REMARK  10 active torsions:
REMARK  status: ('A' for Active; 'I' for Inactive)
REMARK    1  A    between atoms: C_1  and  C_2
REMARK    2  A    between atoms: C_2  and  C_3
REMARK    3  A    between atoms: C_2  and  C_4
REMARK    4  A    between atoms: C_4  and  C_6
REMARK    5  A    between atoms: C_4  and  N_27
REMARK    6  A    between atoms: C_6  and  N_7
REMARK    7  A    between atoms: N_7  and  C_8
REMARK    8  A    between atoms: C_11  and  S_17
REMARK    9  A    between atoms: C_13  and  N_14
REMARK   10  A    between atoms: S_17  and  N_20
REMARK                            x       y       z     vdW  Elec       q    Type
REMARK                         _______ _______ _______ _____ _____    ______ ____
ROOT
ATOM      1  C   UNL     1      -2.217   4.903  -2.455  0.00  0.00    +0.058 A 
ATOM      2  C   UNL     1      -1.457   5.925  -1.900  0.00  0.00    +0.027 A 
ATOM      3  C   UNL     1      -1.698   7.236  -2.261  0.00  0.00    +0.030 A 
ATOM      4  C   UNL     1      -2.693   7.531  -3.175  0.00  0.00    +0.108 A 
ATOM      5  C   UNL     1      -3.451   6.516  -3.729  0.00  0.00    +0.063 A 
ATOM      6  C   UNL     1      -3.212   5.202  -3.376  0.00  0.00    +0.149 A 
ENDROOT
BRANCH   6   7
ATOM      7  N   UNL     1      -4.019   4.115  -3.975  0.00  0.00    +0.058 N 
ATOM      8  O   UNL     1      -4.816   4.366  -4.860  0.00  0.00    -0.126 OA
ATOM      9  O   UNL     1      -3.885   2.970  -3.581  0.00  0.00    -0.126 OA
ENDBRANCH   6   7
BRANCH   4  10
ATOM     10  S   UNL     1      -2.997   9.205  -3.634  0.00  0.00    +0.061 S 
ATOM     11  O   UNL     1      -4.341   9.264  -4.091  0.00  0.00    -0.153 OA
ATOM     12  O   UNL     1      -2.519  10.012  -2.566  0.00  0.00    -0.153 OA
BRANCH  10  13
ATOM     13  N   UNL     1      -2.037   9.535  -4.943  0.00  0.00    -0.177 NA
ATOM     14  C   UNL     1      -0.709  10.060  -4.714  0.00  0.00    +0.109 C 
ATOM     15  C   UNL     1      -0.757  11.602  -4.654  0.00  0.00    +0.017 C 
ATOM     16  C   UNL     1      -1.010  12.156  -5.993  0.00  0.00    +0.001 C 
ATOM     17  C   UNL     1      -2.355  11.758  -6.594  0.00  0.00    +0.001 C 
ATOM     18  C   UNL     1      -2.221  10.419  -7.276  0.00  0.00    +0.017 C 
ATOM     19  C   UNL     1      -2.574   9.287  -6.295  0.00  0.00    +0.109 C 
ENDBRANCH  10  13
ENDBRANCH   4  10
BRANCH   1  20
ATOM     20  N   UNL     1      -1.976   3.576  -2.091  0.00  0.00    -0.341 N 
ATOM     21  H   UNL     1      -2.500   2.760  -2.609  0.00  0.00    +0.146 HD
BRANCH  20  22
ATOM     22  C   UNL     1      -1.025   3.271  -1.019  0.00  0.00    +0.120 C 
BRANCH  22  23
ATOM     23  C   UNL     1      -0.820   1.757  -0.934  0.00  0.00    +0.076 C 
BRANCH  23  24
ATOM     24  N   UNL     1      -0.176   1.281  -2.166  0.00  0.00    -0.293 NA
ATOM     25  C   UNL     1       0.738   2.296  -2.710  0.00  0.00    +0.113 C 
ATOM     26  C   UNL     1       1.430   1.737  -3.956  0.00  0.00    +0.175 C 
ATOM     27  O   UNL     1       0.439   1.336  -4.906  0.00  0.00    -0.377 OA
ATOM     28  C   UNL     1      -0.468   0.348  -4.410  0.00  0.00    +0.175 C 
ATOM     29  C   UNL     1      -1.179   0.893  -3.168  0.00  0.00    +0.113 C 
ENDBRANCH  23  24
BRANCH  23  31
ATOM     30  C   UNL     1       0.220  -0.088   0.391  0.00  0.00    +0.009 C 
ATOM     31  C   UNL     1       0.071   1.429   0.266  0.00  0.00    +0.001 C 
ATOM     32  C   UNL     1       1.450   2.062   0.066  0.00  0.00    +0.009 C 
ENDBRANCH  23  31
ENDBRANCH  22  23
ENDBRANCH  20  22
ENDBRANCH   1  20
TORSDOF 8
