REMARK  Name = ZINC12760287
REMARK  6 active torsions:
REMARK  status: ('A' for Active; 'I' for Inactive)
REMARK    1  A    between atoms: C_1  and  C_2
REMARK    2  A    between atoms: C_4  and  N_11
REMARK    3  A    between atoms: N_14  and  S_17
REMARK    4  A    between atoms: S_17  and  C_20
REMARK    5  A    between atoms: C_23  and  S_26
REMARK    6  A    between atoms: S_26  and  N_29
REMARK                            x       y       z     vdW  Elec       q    Type
REMARK                         _______ _______ _______ _____ _____    ______ ____
ROOT
ATOM      1  N   UNL     1      -4.121   2.442   2.328  0.00  0.00    -0.327 N 
ATOM      2  C   UNL     1      -4.851   1.186   2.108  0.00  0.00    +0.122 C 
ATOM      3  C   UNL     1      -6.353   1.435   2.283  0.00  0.00    +0.128 C 
ATOM      4  N   UNL     1      -6.748   2.546   1.405  0.00  0.00    -0.174 NA
ATOM      5  C   UNL     1      -5.974   3.795   1.471  0.00  0.00    +0.128 C 
ATOM      6  C   UNL     1      -4.487   3.454   1.328  0.00  0.00    +0.122 C 
ENDROOT
BRANCH   1  10
ATOM      7  C   UNL     1      -0.013   1.086   0.008  0.00  0.00    +0.063 C 
ATOM      8  C   UNL     1      -0.718   1.572   1.248  0.00  0.00    +0.015 A 
ATOM      9  C   UNL     1      -2.089   1.784   1.204  0.00  0.00    +0.044 A 
ATOM     10  C   UNL     1      -2.752   2.225   2.339  0.00  0.00    +0.041 A 
ATOM     11  C   UNL     1      -1.985   2.455   3.506  0.00  0.00    +0.019 A 
ATOM     12  C   UNL     1      -2.579   2.908   4.692  0.00  0.00    +0.012 A 
ATOM     13  C   UNL     1      -1.808   3.118   5.795  0.00  0.00    +0.001 A 
ATOM     14  C   UNL     1      -0.435   2.887   5.760  0.00  0.00    +0.002 A 
ATOM     15  C   UNL     1       0.174   2.447   4.624  0.00  0.00    +0.026 A 
ATOM     16  C   UNL     1      -0.590   2.220   3.466  0.00  0.00    +0.048 A 
ATOM     17  N   UNL     1       0.061   1.775   2.335  0.00  0.00    -0.358 N 
ATOM     18  H   UNL     1       1.074   1.608   2.319  0.00  0.00    +0.166 HD
ENDBRANCH   1  10
BRANCH   4  19
ATOM     19  S   UNL     1      -8.032   2.396   0.369  0.00  0.00    +0.061 S 
ATOM     20  O   UNL     1      -8.872   1.384   0.907  0.00  0.00    -0.153 OA
ATOM     21  O   UNL     1      -8.498   3.713   0.106  0.00  0.00    -0.153 OA
BRANCH  19  22
ATOM     22  C   UNL     1      -7.402   1.772  -1.153  0.00  0.00    +0.106 A 
ATOM     23  C   UNL     1      -6.981   2.646  -2.138  0.00  0.00    +0.030 A 
ATOM     24  C   UNL     1      -6.483   2.156  -3.331  0.00  0.00    +0.030 A 
ATOM     25  C   UNL     1      -6.415   0.792  -3.543  0.00  0.00    +0.105 A 
ATOM     26  C   UNL     1      -6.841  -0.082  -2.561  0.00  0.00    +0.030 A 
ATOM     27  C   UNL     1      -7.335   0.408  -1.366  0.00  0.00    +0.030 A 
BRANCH  25  28
ATOM     28  S   UNL     1      -5.784   0.168  -5.065  0.00  0.00    +0.056 S 
ATOM     29  O   UNL     1      -4.945   1.181  -5.603  0.00  0.00    -0.153 OA
ATOM     30  O   UNL     1      -5.317  -1.148  -4.802  0.00  0.00    -0.153 OA
BRANCH  28  31
ATOM     31  N   UNL     1      -7.067   0.016  -6.101  0.00  0.00    -0.204 NA
ATOM     32  H   UNL     1      -7.959   0.260  -5.808  0.00  0.00    +0.144 HD
ATOM     33  H   UNL     1      -6.926  -0.316  -7.002  0.00  0.00    +0.144 HD
ENDBRANCH  28  31
ENDBRANCH  25  28
ENDBRANCH  19  22
ENDBRANCH   4  19
TORSDOF 5
