REMARK  Name = ZINC13659365
REMARK  7 active torsions:
REMARK  status: ('A' for Active; 'I' for Inactive)
REMARK    1  A    between atoms: C_1  and  C_2
REMARK    2  A    between atoms: C_6  and  C_8
REMARK    3  A    between atoms: C_23  and  C_25
REMARK    4  A    between atoms: C_27  and  C_32
REMARK    5  A    between atoms: C_32  and  C_33
REMARK    6  A    between atoms: C_33  and  C_34
REMARK    7  A    between atoms: C_33  and  C_35
REMARK                            x       y       z     vdW  Elec       q    Type
REMARK                         _______ _______ _______ _____ _____    ______ ____
ROOT
ATOM      1  C   UNL     1       0.225  -2.919   2.980  0.00  0.00    +0.172 C 
ATOM      2  C   UNL     1       1.231  -2.514   4.034  0.00  0.00    +0.047 A 
ATOM      3  C   UNL     1       0.939  -1.694   5.067  0.00  0.00    -0.015 A 
ATOM      4  C   UNL     1       2.152  -1.544   5.845  0.00  0.00    +0.003 A 
ATOM      5  C   UNL     1       2.451  -0.825   7.006  0.00  0.00    +0.010 A 
ATOM      6  C   UNL     1       3.737  -0.915   7.478  0.00  0.00    +0.001 A 
ATOM      7  C   UNL     1       4.703  -1.679   6.843  0.00  0.00    +0.002 A 
ATOM      8  C   UNL     1       4.434  -2.401   5.692  0.00  0.00    +0.026 A 
ATOM      9  C   UNL     1       3.137  -2.328   5.190  0.00  0.00    +0.047 A 
ATOM     10  N   UNL     1       2.544  -2.899   4.101  0.00  0.00    -0.356 N 
ATOM     11  H   UNL     1       2.985  -3.488   3.470  0.00  0.00    +0.166 HD
ATOM     12  C   UNL     1      -0.415  -1.082   5.322  0.00  0.00    +0.056 C 
ATOM     13  C   UNL     1      -1.247  -1.157   4.036  0.00  0.00    +0.114 C 
ATOM     14  N   UNL     1      -1.106  -2.501   3.452  0.00  0.00    -0.282 N 
ATOM     15  C   UNL     1      -2.166  -3.328   3.353  0.00  0.00    +0.266 C 
ATOM     16  O   UNL     1      -3.228  -3.016   3.852  0.00  0.00    -0.268 OA
ENDROOT
BRANCH  15  17
ATOM     17  C   UNL     1      -2.034  -4.623   2.631  0.00  0.00    +0.133 A 
ATOM     18  C   UNL     1      -3.087  -5.553   2.650  0.00  0.00    +0.054 A 
ATOM     19  C   UNL     1      -2.939  -6.730   1.980  0.00  0.00    +0.023 A 
ATOM     20  N   UNL     1      -1.788  -6.975   1.317  0.00  0.00    -0.310 N 
ATOM     21  C   UNL     1      -0.796  -6.065   1.317  0.00  0.00    +0.347 A 
ATOM     22  N   UNL     1      -0.926  -4.904   1.963  0.00  0.00    -0.188 NA
ATOM     23  O   UNL     1       0.236  -6.303   0.713  0.00  0.00    -0.245 OA
ATOM     24  H   UNL     1      -1.675  -7.811   0.838  0.00  0.00    +0.170 HD
BRANCH  19  25
ATOM     25  C   UNL     1      -4.049  -7.750   1.980  0.00  0.00    +0.056 C 
BRANCH  25  26
ATOM     26  C   UNL     1      -4.908  -7.569   0.727  0.00  0.00    -0.011 C 
ATOM     27  C   UNL     1      -5.958  -8.680   0.663  0.00  0.00    +0.007 C 
ATOM     28  C   UNL     1      -5.608  -6.209   0.780  0.00  0.00    +0.007 C 
ENDBRANCH  25  26
ENDBRANCH  19  25
ENDBRANCH  15  17
BRANCH   1  34
ATOM     29  C   UNL     1       1.078   1.223   0.544  0.00  0.00    +0.065 C 
ATOM     30  C   UNL     1       0.947  -0.278   0.527  0.00  0.00    +0.039 A 
ATOM     31  C   UNL     1       1.121  -0.966  -0.659  0.00  0.00    +0.023 A 
ATOM     32  C   UNL     1       0.999  -2.346  -0.664  0.00  0.00    +0.004 A 
ATOM     33  C   UNL     1       0.705  -2.987   0.530  0.00  0.00    +0.025 A 
ATOM     34  C   UNL     1       0.545  -2.234   1.677  0.00  0.00    +0.068 A 
ATOM     35  N   UNL     1       0.674  -0.921   1.645  0.00  0.00    -0.255 NA
ENDBRANCH   1  34
TORSDOF 4
