REMARK  Name = ZINC14744032
REMARK  7 active torsions:
REMARK  status: ('A' for Active; 'I' for Inactive)
REMARK    1  A    between atoms: C_1  and  N_2
REMARK    2  A    between atoms: C_5  and  C_7
REMARK    3  A    between atoms: C_16  and  N_66
REMARK    4  A    between atoms: C_20  and  C_21
REMARK    5  A    between atoms: C_20  and  N_66
REMARK    6  A    between atoms: C_21  and  C_22
REMARK    7  A    between atoms: C_21  and  C_28
REMARK                            x       y       z     vdW  Elec       q    Type
REMARK                         _______ _______ _______ _____ _____    ______ ____
ROOT
ATOM      1  C   UNL     1       0.828   3.473   1.025  0.00  0.00    +0.172 C 
ATOM      2  N   UNL     1       0.816   2.008   1.049  0.00  0.00    -0.270 N 
ATOM      3  C   UNL     1       1.905   1.228   0.957  0.00  0.00    +0.043 A 
ATOM      4  C   UNL     1       1.482  -0.059   1.014  0.00  0.00    +0.004 A 
ATOM      5  C   UNL     1       0.085  -0.001   1.148  0.00  0.00    +0.151 A 
ATOM      6  N   UNL     1      -0.242   1.280   1.155  0.00  0.00    -0.166 NA
ATOM      7  C   UNL     1       2.386  -1.259   0.942  0.00  0.00    +0.023 C 
ATOM      8  C   UNL     1       3.746  -0.805   0.394  0.00  0.00    -0.067 C 
ATOM      9  C   UNL     1       4.226   0.424   1.171  0.00  0.00    -0.009 C 
ATOM     10  C   UNL     1       3.350   1.632   0.817  0.00  0.00    +0.054 C 
ENDROOT
BRANCH   5  11
ATOM     11  C   UNL     1      -0.840  -1.148   1.253  0.00  0.00    +0.267 C 
ATOM     12  O   UNL     1      -0.420  -2.281   1.121  0.00  0.00    -0.268 OA
ATOM     13  N   UNL     1      -2.150  -0.938   1.490  0.00  0.00    -0.296 N 
ATOM     14  C   UNL     1      -3.065  -2.070   1.694  0.00  0.00    +0.108 C 
ATOM     15  C   UNL     1      -3.812  -1.861   3.019  0.00  0.00    +0.019 C 
ATOM     16  C   UNL     1      -4.499  -0.493   3.001  0.00  0.00    +0.003 C 
ATOM     17  C   UNL     1      -3.445   0.608   2.864  0.00  0.00    +0.019 C 
ATOM     18  C   UNL     1      -2.692   0.427   1.542  0.00  0.00    +0.108 C 
ENDBRANCH   5  11
BRANCH   8  19
ATOM     19  N   UNL     1       4.721  -1.900   0.553  0.00  0.00    +0.382 N 
ATOM     20  H   UNL     1       4.245  -2.800   0.418  0.00  0.00    -0.085 HD
ATOM     21  H   UNL     1       5.122  -1.863   1.498  0.00  0.00    -0.085 HD
BRANCH  19  22
ATOM     22  C   UNL     1       5.804  -1.769  -0.440  0.00  0.00    -0.069 C 
BRANCH  22  23
ATOM     23  C   UNL     1       6.799  -2.916  -0.251  0.00  0.00    +0.032 C 
BRANCH  23  24
ATOM     24  C   UNL     1       6.122  -4.225  -0.565  0.00  0.00    -0.042 A 
ATOM     25  C   UNL     1       6.174  -5.266   0.344  0.00  0.00    +0.004 A 
ATOM     26  C   UNL     1       5.549  -6.465   0.058  0.00  0.00    +0.000 A 
ATOM     27  C   UNL     1       4.879  -6.627  -1.140  0.00  0.00    +0.000 A 
ATOM     28  C   UNL     1       4.831  -5.588  -2.051  0.00  0.00    +0.000 A 
ATOM     29  C   UNL     1       5.452  -4.388  -1.763  0.00  0.00    +0.004 A 
ENDBRANCH  23  24
BRANCH  23  30
ATOM     30  C   UNL     1       7.971  -2.723  -1.178  0.00  0.00    -0.042 A 
ATOM     31  C   UNL     1       7.757  -2.507  -2.527  0.00  0.00    +0.004 A 
ATOM     32  C   UNL     1       8.832  -2.325  -3.377  0.00  0.00    +0.000 A 
ATOM     33  C   UNL     1      10.121  -2.368  -2.880  0.00  0.00    +0.000 A 
ATOM     34  C   UNL     1      10.335  -2.588  -1.532  0.00  0.00    +0.000 A 
ATOM     35  C   UNL     1       9.260  -2.766  -0.681  0.00  0.00    +0.004 A 
ENDBRANCH  23  30
ENDBRANCH  22  23
ENDBRANCH  19  22
ENDBRANCH   8  19
TORSDOF 6
