REMARK  Name = ZINC33018778
REMARK  13 active torsions:
REMARK  status: ('A' for Active; 'I' for Inactive)
REMARK    1  A    between atoms: C_1  and  C_2
REMARK    2  A    between atoms: C_4  and  C_29
REMARK    3  A    between atoms: C_8  and  C_13
REMARK    4  A    between atoms: C_13  and  N_14
REMARK    5  A    between atoms: N_14  and  C_15
REMARK    6  A    between atoms: N_14  and  C_19
REMARK    7  A    between atoms: C_15  and  C_16
REMARK    8  A    between atoms: C_16  and  O_17
REMARK    9  A    between atoms: O_17  and  C_18
REMARK   10  A    between atoms: C_19  and  C_20
REMARK   11  A    between atoms: C_23  and  C_26
REMARK   12  A    between atoms: C_26  and  C_27
REMARK   13  A    between atoms: C_26  and  C_28
REMARK                            x       y       z     vdW  Elec       q    Type
REMARK                         _______ _______ _______ _____ _____    ______ ____
ROOT
ATOM      1  N   UNL     1      -2.281   5.957  -1.309  0.00  0.00    +0.387 N 
ATOM      2  H   UNL     1      -1.333   5.619  -1.752  0.00  0.00    -0.081 HD
ENDROOT
BRANCH   1   3
ATOM      3  C   UNL     1      -2.493   5.204  -0.066  0.00  0.00    -0.042 C 
BRANCH   3  11
ATOM      4  C   UNL     1       2.608   4.032  -0.230  0.00  0.00    +0.044 C 
ATOM      5  C   UNL     1       1.345   3.228  -0.397  0.00  0.00    -0.049 A 
ATOM      6  C   UNL     1       1.424   1.866  -0.654  0.00  0.00    +0.010 A 
ATOM      7  C   UNL     1       0.280   1.112  -0.809  0.00  0.00    -0.007 A 
ATOM      8  C   UNL     1      -0.966   1.719  -0.714  0.00  0.00    +0.142 A 
ATOM      9  C   UNL     1      -1.042   3.097  -0.448  0.00  0.00    +0.019 A 
ATOM     10  C   UNL     1       0.129   3.844  -0.293  0.00  0.00    +0.015 A 
ATOM     11  C   UNL     1      -2.361   3.729  -0.343  0.00  0.00    -0.047 A 
ATOM     12  C   UNL     1      -3.460   2.949  -0.503  0.00  0.00    +0.094 A 
ATOM     13  C   UNL     1      -3.309   1.569  -0.763  0.00  0.00    +0.337 A 
ATOM     14  O   UNL     1      -4.303   0.880  -0.904  0.00  0.00    -0.245 OA
ATOM     15  O   UNL     1      -2.099   0.998  -0.857  0.00  0.00    -0.422 OA
ATOM     16  C   UNL     1       0.381  -0.366  -1.088  0.00  0.00    +0.047 C 
ENDBRANCH   3  11
ENDBRANCH   1   3
BRANCH   1  17
ATOM     17  C   UNL     1      -3.353   5.687  -2.277  0.00  0.00    -0.049 C 
BRANCH  17  18
ATOM     18  C   UNL     1      -2.909   6.142  -3.669  0.00  0.00    +0.141 C 
BRANCH  18  19
ATOM     19  O   UNL     1      -1.785   5.366  -4.088  0.00  0.00    -0.385 OA
ATOM     20  C   UNL     1      -1.289   5.713  -5.383  0.00  0.00    +0.193 C 
ENDBRANCH  18  19
ENDBRANCH  17  18
ENDBRANCH   1  17
BRANCH   1  21
ATOM     21  C   UNL     1      -2.166   7.397  -1.040  0.00  0.00    -0.042 C 
BRANCH  21  22
ATOM     22  C   UNL     1      -0.806   7.693  -0.462  0.00  0.00    -0.064 A 
ATOM     23  C   UNL     1      -0.642   7.782   0.908  0.00  0.00    +0.002 A 
ATOM     24  C   UNL     1       0.606   8.049   1.439  0.00  0.00    +0.004 A 
ATOM     25  C   UNL     1       1.688   8.236   0.599  0.00  0.00    -0.045 A 
ATOM     26  C   UNL     1       1.523   8.151  -0.770  0.00  0.00    +0.004 A 
ATOM     27  C   UNL     1       0.276   7.880  -1.301  0.00  0.00    +0.002 A 
BRANCH  25  28
ATOM     28  C   UNL     1       3.048   8.530   1.178  0.00  0.00    +0.013 C 
ATOM     29  C   UNL     1       2.986   9.824   1.993  0.00  0.00    +0.012 C 
ATOM     30  C   UNL     1       3.478   7.376   2.085  0.00  0.00    +0.012 C 
ENDBRANCH  25  28
ENDBRANCH  21  22
ENDBRANCH   1  21
TORSDOF 8
