REMARK  Name = ZINC35098016
REMARK  12 active torsions:
REMARK  status: ('A' for Active; 'I' for Inactive)
REMARK    1  A    between atoms: C_1  and  C_2
REMARK    2  A    between atoms: C_2  and  C_3
REMARK    3  A    between atoms: C_3  and  C_5
REMARK    4  A    between atoms: C_3  and  C_6
REMARK    5  A    between atoms: C_6  and  C_8
REMARK    6  A    between atoms: C_6  and  N_24
REMARK    7  A    between atoms: C_14  and  C_17
REMARK    8  A    between atoms: N_20  and  C_21
REMARK    9  A    between atoms: C_21  and  C_22
REMARK   10  A    between atoms: C_21  and  C_23
REMARK   11  A    between atoms: N_24  and  S_25
REMARK   12  A    between atoms: S_25  and  C_28
REMARK                            x       y       z     vdW  Elec       q    Type
REMARK                         _______ _______ _______ _____ _____    ______ ____
ROOT
ATOM      1  C   UNL     1      -1.591  -2.243  -0.304  0.00  0.00    +0.165 C 
ENDROOT
BRANCH   1   2
ATOM      2  C   UNL     1      -1.230  -3.077  -1.506  0.00  0.00    +0.235 C 
ATOM      3  O   UNL     1      -0.598  -4.103  -1.364  0.00  0.00    -0.274 OA
ATOM      4  N   UNL     1      -1.609  -2.684  -2.738  0.00  0.00    -0.297 N 
ATOM      5  C   UNL     1      -2.256  -1.380  -2.940  0.00  0.00    +0.127 C 
ATOM      6  C   UNL     1      -3.596  -1.603  -3.653  0.00  0.00    +0.128 C 
ATOM      7  N   UNL     1      -3.369  -2.469  -4.818  0.00  0.00    -0.280 N 
ATOM      8  C   UNL     1      -2.722  -3.773  -4.616  0.00  0.00    +0.092 C 
ATOM      9  C   UNL     1      -1.377  -3.548  -3.903  0.00  0.00    +0.130 C 
ATOM     10  C   UNL     1      -3.622  -4.665  -3.758  0.00  0.00    +0.030 C 
ATOM     11  C   UNL     1      -3.748  -2.076  -6.050  0.00  0.00    +0.303 C 
ATOM     12  O   UNL     1      -3.643  -2.838  -6.991  0.00  0.00    -0.253 OA
ATOM     13  N   UNL     1      -4.243  -0.836  -6.239  0.00  0.00    -0.297 N 
ATOM     14  H   UNL     1      -4.257  -0.203  -5.505  0.00  0.00    +0.150 HD
BRANCH  13  15
ATOM     15  C   UNL     1      -4.760  -0.447  -7.553  0.00  0.00    +0.068 C 
ATOM     16  C   UNL     1      -6.219  -0.890  -7.679  0.00  0.00    +0.027 C 
ATOM     17  C   UNL     1      -4.674   1.074  -7.705  0.00  0.00    +0.027 C 
ENDBRANCH  13  15
ENDBRANCH   1   2
BRANCH   1  18
ATOM     18  C   UNL     1      -0.808  -0.929  -0.341  0.00  0.00    +0.013 C 
ATOM     19  C   UNL     1      -1.270  -0.028   0.807  0.00  0.00    +0.009 C 
BRANCH  18  21
ATOM     20  C   UNL     1       1.478   0.077  -0.352  0.00  0.00    +0.004 C 
ATOM     21  C   UNL     1       0.686  -1.222  -0.190  0.00  0.00    +0.002 C 
ENDBRANCH  18  21
ENDBRANCH   1  18
BRANCH   1  22
ATOM     22  N   UNL     1      -1.256  -2.978   0.919  0.00  0.00    -0.178 NA
ATOM     23  H   UNL     1      -0.346  -3.279   1.069  0.00  0.00    +0.149 HD
BRANCH  22  24
ATOM     24  S   UNL     1      -2.429  -3.293   2.044  0.00  0.00    +0.059 S 
ATOM     25  O   UNL     1      -1.820  -4.081   3.057  0.00  0.00    -0.153 OA
ATOM     26  O   UNL     1      -3.068  -2.054   2.323  0.00  0.00    -0.153 OA
BRANCH  24  27
ATOM     27  C   UNL     1      -3.634  -4.317   1.267  0.00  0.00    +0.105 A 
ATOM     28  C   UNL     1      -4.704  -3.744   0.604  0.00  0.00    +0.031 A 
ATOM     29  C   UNL     1      -5.649  -4.547  -0.006  0.00  0.00    +0.040 A 
ATOM     30  C   UNL     1      -5.525  -5.925   0.046  0.00  0.00    +0.124 A 
ATOM     31  C   UNL     1      -4.453  -6.497   0.710  0.00  0.00    +0.040 A 
ATOM     32  C   UNL     1      -3.506  -5.693   1.315  0.00  0.00    +0.031 A 
ATOM     33  F   UNL     1      -6.449  -6.710  -0.550  0.00  0.00    -0.205 F 
ENDBRANCH  24  27
ENDBRANCH  22  24
ENDBRANCH   1  22
TORSDOF 7
