REMARK  Name = ZINC59105144
REMARK  4 active torsions:
REMARK  status: ('A' for Active; 'I' for Inactive)
REMARK    1  A    between atoms: C_3  and  C_10
REMARK    2  A    between atoms: C_5  and  N_7
REMARK    3  A    between atoms: N_12  and  N_13
REMARK    4  A    between atoms: C_14  and  C_15
REMARK                            x       y       z     vdW  Elec       q    Type
REMARK                         _______ _______ _______ _____ _____    ______ ____
ROOT
ATOM      1  C   UNL     1       3.656   2.159  -0.022  0.00  0.00    +0.263 C 
ATOM      2  O   UNL     1       4.714   1.563  -0.035  0.00  0.00    -0.268 OA
ATOM      3  N   UNL     1       3.641   3.506  -0.015  0.00  0.00    -0.203 N 
ATOM      4  H   UNL     1       2.796   3.982  -0.004  0.00  0.00    +0.178 HD
ENDROOT
BRANCH   1   7
ATOM      5  C   UNL     1      -0.017   1.380   0.010  0.00  0.00    +0.003 A 
ATOM      6  C   UNL     1       1.166   2.089   0.002  0.00  0.00    +0.013 A 
ATOM      7  C   UNL     1       2.385   1.407  -0.013  0.00  0.00    +0.041 A 
ATOM      8  C   UNL     1       2.397   0.009  -0.021  0.00  0.00    +0.045 A 
ATOM      9  C   UNL     1       1.206  -0.686  -0.013  0.00  0.00    +0.127 A 
ATOM     10  C   UNL     1       0.002  -0.004   0.002  0.00  0.00    +0.033 A 
BRANCH   9  11
ATOM     11  N   UNL     1       1.216  -2.167  -0.021  0.00  0.00    +0.056 N 
ATOM     12  O   UNL     1       2.361  -2.817  -0.035  0.00  0.00    -0.126 OA
ATOM     13  O   UNL     1       0.080  -2.833  -0.014  0.00  0.00    -0.126 OA
ENDBRANCH   9  11
ENDBRANCH   1   7
BRANCH   3  14
ATOM     14  N   UNL     1       4.752   4.163  -0.022  0.00  0.00    -0.184 NA
ATOM     15  C   UNL     1       4.737   5.499  -0.015  0.00  0.00    +0.176 C 
BRANCH  15  16
ATOM     16  C   UNL     1       5.926   6.203  -0.024  0.00  0.00    +0.150 A 
ATOM     17  C   UNL     1       6.078   7.670  -0.012  0.00  0.00    +0.067 A 
ATOM     18  C   UNL     1       7.420   7.908  -0.026  0.00  0.00    +0.070 A 
ATOM     19  C   UNL     1       8.073   6.667  -0.046  0.00  0.00    +0.179 A 
ATOM     20  O   UNL     1       7.173   5.678  -0.038  0.00  0.00    -0.447 OA
ATOM     21  I   UNL     1      10.151   6.402  -0.074  0.00  0.00    +0.000 I 
ATOM     22 BR   UNL     1       8.251   9.607  -0.021  0.00  0.00    -0.046 Br
ENDBRANCH  15  16
ENDBRANCH   3  14
TORSDOF 4
