REMARK  Name = ZINC20424788
REMARK  13 active torsions:
REMARK  status: ('A' for Active; 'I' for Inactive)
REMARK    1  A    between atoms: C_1  and  C_2
REMARK    2  A    between atoms: C_5  and  N_8
REMARK    3  A    between atoms: C_9  and  C_11
REMARK    4  A    between atoms: C_11  and  C_12
REMARK    5  A    between atoms: C_12  and  S_13
REMARK    6  A    between atoms: S_13  and  C_14
REMARK    7  A    between atoms: N_19  and  N_20
REMARK    8  A    between atoms: C_21  and  C_22
REMARK    9  A    between atoms: C_25  and  O_27
REMARK   10  A    between atoms: O_27  and  C_28
REMARK   11  A    between atoms: C_28  and  C_29
REMARK   12  A    between atoms: C_32  and  O_35
REMARK   13  A    between atoms: O_35  and  C_36
REMARK                            x       y       z     vdW  Elec       q    Type
REMARK                         _______ _______ _______ _____ _____    ______ ____
ROOT
ATOM      1  C   UNL     1      -5.261   8.547   0.110  0.00  0.00    +0.210 A 
ATOM      2  N   UNL     1      -3.970   8.993   0.104  0.00  0.00    -0.186 NA
ATOM      3  C   UNL     1      -3.146   7.902   0.083  0.00  0.00    +0.232 A 
ATOM      4  N   UNL     1      -3.898   6.827   0.070  0.00  0.00    -0.245 N 
ATOM      5  N   UNL     1      -5.238   7.236   0.093  0.00  0.00    -0.144 NA
ATOM      6  N   UNL     1      -1.760   7.927   0.071  0.00  0.00    -0.205 N 
ATOM      7  H   UNL     1      -1.227   8.889   0.079  0.00  0.00    +0.177 HD
ATOM      8  H   UNL     1      -3.433   5.831   0.045  0.00  0.00    +0.192 HD
ENDROOT
BRANCH   6   9
ATOM      9  N   UNL     1      -1.038   6.726   0.049  0.00  0.00    -0.184 NA
ATOM     10  C   UNL     1       0.264   6.750   0.038  0.00  0.00    +0.176 C 
BRANCH  10  11
ATOM     11  C   UNL     1       1.019   5.495   0.015  0.00  0.00    +0.151 A 
ATOM     12  C   UNL     1       2.379   5.378   0.002  0.00  0.00    +0.055 A 
ATOM     13  C   UNL     1       2.668   4.002  -0.013  0.00  0.00    +0.091 A 
ATOM     14  C   UNL     1       1.482   3.346  -0.017  0.00  0.00    +0.287 A 
ATOM     15  O   UNL     1       0.490   4.252   0.003  0.00  0.00    -0.424 OA
BRANCH  14  16
ATOM     16  O   UNL     1       1.323   1.999  -0.033  0.00  0.00    -0.459 OA
BRANCH  16  17
ATOM     17  C   UNL     1      -0.018   1.504  -0.028  0.00  0.00    +0.267 C 
BRANCH  17  18
ATOM     18  C   UNL     1       0.003  -0.002  -0.047  0.00  0.00    -0.010 A 
ATOM     19  C   UNL     1      -0.004  -0.677  -1.254  0.00  0.00    +0.010 A 
ATOM     20  C   UNL     1       0.021  -2.058  -1.275  0.00  0.00    +0.046 A 
ATOM     21  C   UNL     1       0.040  -2.768  -0.083  0.00  0.00    +0.120 A 
ATOM     22  C   UNL     1       0.041  -2.089   1.127  0.00  0.00    +0.046 A 
ATOM     23  C   UNL     1       0.022  -0.708   1.142  0.00  0.00    +0.010 A 
BRANCH  21  24
ATOM     24  O   UNL     1       0.059  -4.127  -0.100  0.00  0.00    -0.495 OA
ATOM     25  C   UNL     1       0.057  -4.759  -1.382  0.00  0.00    +0.277 C 
ENDBRANCH  21  24
ENDBRANCH  17  18
ENDBRANCH  16  17
ENDBRANCH  14  16
ENDBRANCH  10  11
ENDBRANCH   6   9
BRANCH   1  26
ATOM     26  S   UNL     1      -6.705   9.557   0.135  0.00  0.00    -0.084 S 
BRANCH  26  27
ATOM     27  C   UNL     1      -8.073   8.366   0.132  0.00  0.00    +0.086 C 
BRANCH  27  28
ATOM     28  C   UNL     1      -9.405   9.119   0.153  0.00  0.00    +0.107 C 
BRANCH  28  30
ATOM     29  N   UNL     1     -11.816   8.568   0.167  0.00  0.00    -0.285 N 
ATOM     30  C   UNL     1     -10.542   8.130   0.150  0.00  0.00    +0.218 C 
ATOM     31  O   UNL     1     -10.310   6.940   0.133  0.00  0.00    -0.275 OA
ATOM     32  H   UNL     1     -12.027   9.644   0.259  0.00  0.00    +0.155 HD
BRANCH  29  37
ATOM     33  C   UNL     1     -16.094   4.864  -0.239  0.00  0.00    +0.044 C 
ATOM     34  C   UNL     1     -14.957   5.848  -0.131  0.00  0.00    -0.050 A 
ATOM     35  C   UNL     1     -13.806   5.500   0.550  0.00  0.00    +0.005 A 
ATOM     36  C   UNL     1     -12.762   6.399   0.650  0.00  0.00    +0.023 A 
ATOM     37  C   UNL     1     -12.871   7.654   0.067  0.00  0.00    +0.033 A 
ATOM     38  C   UNL     1     -14.032   8.003  -0.612  0.00  0.00    +0.023 A 
ATOM     39  C   UNL     1     -15.069   7.097  -0.714  0.00  0.00    +0.005 A 
ENDBRANCH  29  37
ENDBRANCH  28  30
ENDBRANCH  27  28
ENDBRANCH  26  27
ENDBRANCH   1  26
TORSDOF 11
