REMARK  Name = ZINC20531515
REMARK  12 active torsions:
REMARK  status: ('A' for Active; 'I' for Inactive)
REMARK    1  A    between atoms: C_1  and  C_2
REMARK    2  A    between atoms: C_5  and  C_37
REMARK    3  A    between atoms: C_6  and  C_8
REMARK    4  A    between atoms: C_8  and  N_9
REMARK    5  A    between atoms: C_12  and  C_15
REMARK    6  A    between atoms: C_15  and  N_16
REMARK    7  A    between atoms: C_17  and  C_19
REMARK    8  A    between atoms: C_19  and  C_21
REMARK    9  A    between atoms: C_19  and  N_27
REMARK   10  A    between atoms: C_21  and  C_22
REMARK   11  A    between atoms: C_22  and  S_23
REMARK   12  A    between atoms: S_23  and  C_26
REMARK                            x       y       z     vdW  Elec       q    Type
REMARK                         _______ _______ _______ _____ _____    ______ ____
ROOT
ATOM      1  N   UNL     1       6.356   3.118  -4.653  0.00  0.00    -0.314 N 
ATOM      2  C   UNL     1       6.907   3.109  -5.883  0.00  0.00    +0.234 C 
ATOM      3  O   UNL     1       6.957   4.131  -6.533  0.00  0.00    -0.274 OA
ATOM      4  H   UNL     1       6.311   2.191  -4.064  0.00  0.00    +0.149 HD
ENDROOT
BRANCH   1   5
ATOM      5  C   UNL     1       5.817   4.364  -4.101  0.00  0.00    +0.107 C 
BRANCH   5   9
ATOM      6  N   UNL     1       3.042   4.241  -0.852  0.00  0.00    +0.382 N 
ATOM      7  C   UNL     1       3.458   2.947  -1.409  0.00  0.00    -0.078 C 
ATOM      8  C   UNL     1       4.053   3.158  -2.804  0.00  0.00    -0.014 C 
ATOM      9  C   UNL     1       5.255   4.101  -2.703  0.00  0.00    +0.003 C 
ATOM     10  C   UNL     1       4.806   5.423  -2.075  0.00  0.00    -0.014 C 
ATOM     11  C   UNL     1       4.189   5.147  -0.702  0.00  0.00    -0.078 C 
ATOM     12  H   UNL     1       2.341   4.703  -1.563  0.00  0.00    -0.081 HD
BRANCH   6  13
ATOM     13  C   UNL     1       2.341   4.063   0.426  0.00  0.00    -0.043 C 
BRANCH  13  19
ATOM     14  C   UNL     1      -0.724   0.107   0.466  0.00  0.00    +0.044 C 
ATOM     15  C   UNL     1      -0.484   1.570   0.193  0.00  0.00    -0.050 A 
ATOM     16  C   UNL     1      -1.513   2.362  -0.284  0.00  0.00    +0.003 A 
ATOM     17  C   UNL     1      -1.291   3.702  -0.539  0.00  0.00    +0.004 A 
ATOM     18  C   UNL     1      -0.044   4.253  -0.308  0.00  0.00    -0.049 A 
ATOM     19  C   UNL     1       0.982   3.463   0.174  0.00  0.00    -0.061 A 
ATOM     20  C   UNL     1       0.762   2.121   0.423  0.00  0.00    +0.005 A 
ATOM     21  C   UNL     1       0.195   5.716  -0.580  0.00  0.00    +0.044 C 
ENDBRANCH  13  19
ENDBRANCH   6  13
ENDBRANCH   5   9
ENDBRANCH   1   5
BRANCH   2  22
ATOM     22  C   UNL     1       7.461   1.827  -6.451  0.00  0.00    +0.164 C 
BRANCH  22  23
ATOM     23  N   UNL     1       7.999   2.079  -7.790  0.00  0.00    -0.282 N 
ATOM     24  C   UNL     1       7.550   1.431  -9.027  0.00  0.00    +0.144 C 
ATOM     25  C   UNL     1       8.390   2.012 -10.137  0.00  0.00    -0.018 A 
ATOM     26  C   UNL     1       8.432   1.802 -11.496  0.00  0.00    +0.006 A 
ATOM     27  C   UNL     1       9.343   2.496 -12.275  0.00  0.00    +0.000 A 
ATOM     28  C   UNL     1      10.210   3.402 -11.691  0.00  0.00    +0.001 A 
ATOM     29  C   UNL     1      10.176   3.620 -10.329  0.00  0.00    +0.013 A 
ATOM     30  C   UNL     1       9.262   2.923  -9.537  0.00  0.00    +0.042 A 
ATOM     31  C   UNL     1       8.990   2.937  -8.087  0.00  0.00    +0.248 C 
ATOM     32  O   UNL     1       9.579   3.626  -7.276  0.00  0.00    -0.270 OA
ENDBRANCH  22  23
BRANCH  22  33
ATOM     33  C   UNL     1       8.576   1.307  -5.542  0.00  0.00    +0.054 C 
BRANCH  33  34
ATOM     34  C   UNL     1       9.053  -0.055  -6.049  0.00  0.00    +0.168 C 
BRANCH  34  35
ATOM     35  S   UNL     1      10.376  -0.672  -4.972  0.00  0.00    -0.034 S 
ATOM     36  O   UNL     1      11.496   0.194  -5.095  0.00  0.00    -0.175 OA
ATOM     37  O   UNL     1       9.829  -0.916  -3.683  0.00  0.00    -0.175 OA
ATOM     38  C   UNL     1      10.798  -2.267  -5.727  0.00  0.00    +0.194 C 
ENDBRANCH  34  35
ENDBRANCH  33  34
ENDBRANCH  22  33
ENDBRANCH   2  22
TORSDOF 9
