REMARK  Name = ZINC21604756
REMARK  12 active torsions:
REMARK  status: ('A' for Active; 'I' for Inactive)
REMARK    1  A    between atoms: C_1  and  C_2
REMARK    2  A    between atoms: C_2  and  C_4
REMARK    3  A    between atoms: C_2  and  S_16
REMARK    4  A    between atoms: N_6  and  C_7
REMARK    5  A    between atoms: C_12  and  C_13
REMARK    6  A    between atoms: C_13  and  C_14
REMARK    7  A    between atoms: C_13  and  C_15
REMARK    8  A    between atoms: S_16  and  C_17
REMARK    9  A    between atoms: C_20  and  C_29
REMARK   10  A    between atoms: N_21  and  C_22
REMARK   11  A    between atoms: C_22  and  C_23
REMARK   12  A    between atoms: C_29  and  N_30
REMARK                            x       y       z     vdW  Elec       q    Type
REMARK                         _______ _______ _______ _____ _____    ______ ____
ROOT
ATOM      1  C   UNL     1       2.503   0.007  -1.286  0.00  0.00    +0.193 A 
ATOM      2  N   UNL     1       2.972   0.691  -0.268  0.00  0.00    -0.123 NA
ATOM      3  N   UNL     1       4.219   0.943  -0.449  0.00  0.00    -0.135 NA
ATOM      4  C   UNL     1       4.618   0.439  -1.582  0.00  0.00    +0.118 A 
ATOM      5  N   UNL     1       3.541  -0.180  -2.154  0.00  0.00    -0.303 N 
ENDROOT
BRANCH   1   6
ATOM      6  S   UNL     1       0.851  -0.568  -1.490  0.00  0.00    -0.074 S 
BRANCH   6   8
ATOM      7  C   UNL     1      -0.037   1.543   0.006  0.00  0.00    +0.029 C 
ATOM      8  C   UNL     1      -0.003   0.013   0.001  0.00  0.00    +0.137 C 
BRANCH   8   9
ATOM      9  C   UNL     1      -1.413  -0.520   0.013  0.00  0.00    +0.230 C 
ATOM     10  O   UNL     1      -1.925  -0.902  -1.017  0.00  0.00    -0.274 OA
ATOM     11  N   UNL     1      -2.104  -0.573   1.169  0.00  0.00    -0.284 N 
ATOM     12  H   UNL     1      -1.669  -0.343   2.005  0.00  0.00    +0.155 HD
BRANCH  11  13
ATOM     13  C   UNL     1      -3.449  -0.959   1.164  0.00  0.00    +0.037 A 
ATOM     14  C   UNL     1      -4.216  -0.792   0.018  0.00  0.00    +0.023 A 
ATOM     15  C   UNL     1      -5.543  -1.174   0.015  0.00  0.00    +0.002 A 
ATOM     16  C   UNL     1      -6.108  -1.722   1.153  0.00  0.00    +0.000 A 
ATOM     17  C   UNL     1      -5.348  -1.888   2.295  0.00  0.00    +0.006 A 
ATOM     18  C   UNL     1      -4.018  -1.514   2.302  0.00  0.00    -0.024 A 
BRANCH  18  19
ATOM     19  C   UNL     1      -3.188  -1.703   3.545  0.00  0.00    +0.015 C 
ATOM     20  C   UNL     1      -3.872  -1.010   4.725  0.00  0.00    +0.012 C 
ATOM     21  C   UNL     1      -3.047  -3.197   3.843  0.00  0.00    +0.012 C 
ENDBRANCH  18  19
ENDBRANCH  11  13
ENDBRANCH   8   9
ENDBRANCH   6   8
ENDBRANCH   1   6
BRANCH   5  22
ATOM     22  C   UNL     1       3.507  -0.893  -3.433  0.00  0.00    +0.160 C 
BRANCH  22  23
ATOM     23  C   UNL     1       3.157   0.071  -4.537  0.00  0.00    -0.028 A 
ATOM     24  C   UNL     1       1.834   0.282  -4.877  0.00  0.00    +0.005 A 
ATOM     25  C   UNL     1       1.513   1.167  -5.889  0.00  0.00    +0.000 A 
ATOM     26  C   UNL     1       2.516   1.841  -6.561  0.00  0.00    +0.000 A 
ATOM     27  C   UNL     1       3.839   1.631  -6.221  0.00  0.00    +0.000 A 
ATOM     28  C   UNL     1       4.159   0.749  -5.205  0.00  0.00    +0.005 A 
ENDBRANCH  22  23
ENDBRANCH   5  22
BRANCH   4  29
ATOM     29  C   UNL     1       6.010   0.519  -2.155  0.00  0.00    -0.001 C 
BRANCH  29  30
ATOM     30  N   UNL     1       6.793  -0.637  -1.700  0.00  0.00    +0.384 N 
ATOM     31  C   UNL     1       6.960  -0.570  -0.243  0.00  0.00    -0.078 C 
ATOM     32  C   UNL     1       7.705  -1.814   0.247  0.00  0.00    -0.019 C 
ATOM     33  C   UNL     1       9.081  -1.873  -0.423  0.00  0.00    -0.004 C 
ATOM     34  C   UNL     1       8.899  -1.867  -1.944  0.00  0.00    -0.019 C 
ATOM     35  C   UNL     1       8.108  -0.622  -2.352  0.00  0.00    -0.078 C 
ATOM     36  H   UNL     1       6.308  -1.487  -1.942  0.00  0.00    -0.081 HD
ENDBRANCH  29  30
ENDBRANCH   4  29
TORSDOF 9
