REMARK  Name = ZINC44021230
REMARK  3 active torsions:
REMARK  status: ('A' for Active; 'I' for Inactive)
REMARK    1  A    between atoms: C_2  and  N_20
REMARK    2  A    between atoms: N_7  and  C_10
REMARK    3  A    between atoms: N_20  and  C_21
REMARK                            x       y       z     vdW  Elec       q    Type
REMARK                         _______ _______ _______ _____ _____    ______ ____
ROOT
ATOM      1  C   UNL     1      -0.011   1.399   0.112  0.00  0.00    +0.112 A 
ATOM      2  C   UNL     1       1.169   2.080  -0.001  0.00  0.00    +0.105 A 
ATOM      3  N   UNL     1       2.344   1.378  -0.118  0.00  0.00    -0.296 N 
ATOM      4  H   UNL     1       3.185   1.855  -0.198  0.00  0.00    +0.172 HD
ATOM      5  C   UNL     1       2.335   0.032  -0.122  0.00  0.00    +0.331 A 
ATOM      6  O   UNL     1       3.384  -0.573  -0.227  0.00  0.00    -0.246 OA
ATOM      7  N   UNL     1       1.183  -0.654  -0.012  0.00  0.00    -0.255 N 
ATOM      8  C   UNL     1       0.007  -0.004   0.104  0.00  0.00    +0.259 A 
ATOM      9  O   UNL     1      -1.033  -0.633   0.203  0.00  0.00    -0.267 OA
ENDROOT
BRANCH   7  10
ATOM     10  C   UNL     1       1.206  -2.118  -0.020  0.00  0.00    +0.054 C 
ATOM     11  C   UNL     1      -0.222  -2.652   0.117  0.00  0.00    +0.032 C 
ATOM     12  C   UNL     1      -0.198  -4.181   0.108  0.00  0.00    -0.008 C 
ATOM     13  C   UNL     1       0.649  -4.685   1.279  0.00  0.00    +0.007 C 
ATOM     14  C   UNL     1       2.076  -4.152   1.142  0.00  0.00    -0.008 C 
ATOM     15  C   UNL     1       2.053  -2.622   1.150  0.00  0.00    +0.032 C 
ATOM     16  C   UNL     1       2.681  -4.645  -0.174  0.00  0.00    +0.007 C 
ATOM     17  C   UNL     1       1.834  -4.141  -1.345  0.00  0.00    -0.008 C 
ATOM     18  C   UNL     1       0.406  -4.675  -1.208  0.00  0.00    +0.007 C 
ATOM     19  C   UNL     1       1.810  -2.612  -1.337  0.00  0.00    +0.032 C 
ENDBRANCH   7  10
BRANCH   2  20
ATOM     20  N   UNL     1       1.180   3.451   0.004  0.00  0.00    -0.327 N 
ATOM     21  H   UNL     1       0.347   3.942   0.086  0.00  0.00    +0.148 HD
BRANCH  20  22
ATOM     22  C   UNL     1       2.448   4.174  -0.117  0.00  0.00    +0.072 C 
ATOM     23  C   UNL     1       3.119   4.241   1.270  0.00  0.00    +0.022 C 
ATOM     24  C   UNL     1       4.588   4.502   1.078  0.00  0.00    +0.002 C 
ATOM     25  C   UNL     1       4.936   6.001   1.155  0.00  0.00    +0.000 C 
ATOM     26  C   UNL     1       3.913   6.889   0.421  0.00  0.00    +0.000 C 
ATOM     27  C   UNL     1       3.481   6.303  -0.896  0.00  0.00    +0.002 C 
ATOM     28  C   UNL     1       2.187   5.494  -0.672  0.00  0.00    +0.022 C 
ENDBRANCH  20  22
ENDBRANCH   2  20
TORSDOF 3
