REMARK  Name = ZINC66868543
REMARK  11 active torsions:
REMARK  status: ('A' for Active; 'I' for Inactive)
REMARK    1  A    between atoms: C_1  and  C_2
REMARK    2  A    between atoms: C_2  and  C_3
REMARK    3  A    between atoms: C_3  and  C_4
REMARK    4  A    between atoms: C_4  and  C_5
REMARK    5  A    between atoms: C_7  and  C_10
REMARK    6  A    between atoms: C_13  and  O_16
REMARK    7  A    between atoms: O_16  and  C_17
REMARK    8  A    between atoms: C_17  and  C_19
REMARK    9  A    between atoms: C_19  and  C_21
REMARK   10  A    between atoms: C_19  and  S_22
REMARK   11  A    between atoms: S_22  and  C_23
REMARK                            x       y       z     vdW  Elec       q    Type
REMARK                         _______ _______ _______ _____ _____    ______ ____
ROOT
ATOM      1  C   UNL     1       4.377  -3.514  -4.320  0.00  0.00    +0.023 A 
ATOM      2  C   UNL     1       5.501  -3.364  -3.509  0.00  0.00    +0.015 A 
ATOM      3  C   UNL     1       6.745  -3.718  -3.986  0.00  0.00    +0.047 A 
ATOM      4  C   UNL     1       6.880  -4.223  -5.272  0.00  0.00    +0.132 A 
ATOM      5  C   UNL     1       5.762  -4.374  -6.082  0.00  0.00    +0.047 A 
ATOM      6  C   UNL     1       4.514  -4.027  -5.609  0.00  0.00    +0.015 A 
ENDROOT
BRANCH   1   9
ATOM      7  C   UNL     1       1.498  -2.408  -2.465  0.00  0.00    +0.228 A 
ATOM      8  N   UNL     1       2.774  -2.632  -2.590  0.00  0.00    -0.191 NA
ATOM      9  C   UNL     1       3.036  -3.135  -3.810  0.00  0.00    +0.202 A 
ATOM     10  N   UNL     1       1.910  -3.234  -4.473  0.00  0.00    -0.056 NA
ATOM     11  O   UNL     1       0.890  -2.767  -3.603  0.00  0.00    -0.338 OA
BRANCH   7  12
ATOM     12  C   UNL     1       0.818  -1.846  -1.243  0.00  0.00    +0.099 C 
BRANCH  12  13
ATOM     13  C   UNL     1       0.765  -0.320  -1.345  0.00  0.00    +0.009 C 
BRANCH  13  15
ATOM     14  C   UNL     1       0.023   1.776  -0.206  0.00  0.00    +0.004 C 
ATOM     15  C   UNL     1       0.075   0.250  -0.104  0.00  0.00    -0.003 C 
ENDBRANCH  13  15
ENDBRANCH  12  13
ENDBRANCH   7  12
ENDBRANCH   1   9
BRANCH   4  16
ATOM     16  O   UNL     1       8.107  -4.571  -5.739  0.00  0.00    -0.425 OA
BRANCH  16  17
ATOM     17  C   UNL     1       8.706  -5.646  -5.200  0.00  0.00    +0.326 C 
ATOM     18  O   UNL     1       8.111  -6.332  -4.403  0.00  0.00    -0.249 OA
BRANCH  17  19
ATOM     19  C   UNL     1      10.118  -5.996  -5.590  0.00  0.00    +0.160 C 
ATOM     20  C   UNL     1      11.098  -5.200  -4.726  0.00  0.00    +0.031 C 
BRANCH  19  21
ATOM     21  S   UNL     1      10.393  -7.771  -5.336  0.00  0.00    -0.072 S 
BRANCH  21  22
ATOM     22  C   UNL     1      12.015  -8.046  -5.968  0.00  0.00    +0.189 A 
ATOM     23  N   UNL     1      12.698  -7.024  -6.465  0.00  0.00    -0.230 NA
ATOM     24  C   UNL     1      13.918  -7.197  -6.946  0.00  0.00    +0.115 A 
ATOM     25  C   UNL     1      14.480  -8.464  -6.926  0.00  0.00    +0.039 A 
ATOM     26  C   UNL     1      13.738  -9.510  -6.400  0.00  0.00    +0.115 A 
ATOM     27  N   UNL     1      12.526  -9.269  -5.930  0.00  0.00    -0.230 NA
ENDBRANCH  21  22
ENDBRANCH  19  21
ENDBRANCH  17  19
ENDBRANCH  16  17
ENDBRANCH   4  16
TORSDOF 9
