REMARK  Name = ZINC12850974
REMARK  4 active torsions:
REMARK  status: ('A' for Active; 'I' for Inactive)
REMARK    1  A    between atoms: C_3  and  C_6
REMARK    2  A    between atoms: C_9  and  C_32
REMARK    3  A    between atoms: C_14  and  C_16
REMARK    4  A    between atoms: N_21  and  C_24
REMARK                            x       y       z     vdW  Elec       q    Type
REMARK                         _______ _______ _______ _____ _____    ______ ____
ROOT
ATOM      1  C   UNL     1       3.486   0.631  -0.006  0.00  0.00    +0.140 C 
ATOM      2  C   UNL     1       3.990   0.384  -1.432  0.00  0.00    +0.066 C 
ATOM      3  C   UNL     1       3.410  -0.929  -1.971  0.00  0.00    +0.215 C 
ATOM      4  N   UNL     1       3.631  -1.987  -0.981  0.00  0.00    -0.238 N 
ATOM      5  C   UNL     1       3.900  -1.747   0.337  0.00  0.00    +0.119 A 
ATOM      6  C   UNL     1       4.050  -2.934   0.957  0.00  0.00    +0.078 A 
ATOM      7  C   UNL     1       3.866  -3.948  -0.011  0.00  0.00    +0.149 A 
ATOM      8  N   UNL     1       3.614  -3.368  -1.171  0.00  0.00    -0.164 NA
ATOM      9  N   UNL     1       3.982  -0.452   0.866  0.00  0.00    -0.319 N 
ATOM     10  H   UNL     1       4.345  -0.275   1.748  0.00  0.00    +0.148 HD
ENDROOT
BRANCH   7  11
ATOM     11  C   UNL     1       3.941  -5.403   0.233  0.00  0.00    +0.267 C 
ATOM     12  O   UNL     1       4.287  -5.820   1.321  0.00  0.00    -0.268 OA
ATOM     13  N   UNL     1       3.626  -6.268  -0.752  0.00  0.00    -0.293 N 
ATOM     14  C   UNL     1       3.574  -7.713  -0.489  0.00  0.00    +0.127 C 
ATOM     15  C   UNL     1       2.194  -8.237  -0.905  0.00  0.00    +0.124 C 
ATOM     16  N   UNL     1       1.896  -7.753  -2.260  0.00  0.00    -0.327 N 
ATOM     17  C   UNL     1       1.948  -6.307  -2.522  0.00  0.00    +0.124 C 
ATOM     18  C   UNL     1       3.322  -5.783  -2.105  0.00  0.00    +0.127 C 
BRANCH  16  19
ATOM     19  C   UNL     1       1.569  -8.650  -3.281  0.00  0.00    +0.030 A 
ATOM     20  C   UNL     1       1.413  -8.194  -4.583  0.00  0.00    +0.026 A 
ATOM     21  C   UNL     1       1.091  -9.083  -5.591  0.00  0.00    +0.040 A 
ATOM     22  C   UNL     1       0.924 -10.427  -5.303  0.00  0.00    +0.124 A 
ATOM     23  C   UNL     1       1.079 -10.883  -4.005  0.00  0.00    +0.040 A 
ATOM     24  C   UNL     1       1.407  -9.999  -2.995  0.00  0.00    +0.026 A 
ATOM     25  F   UNL     1       0.608 -11.294  -6.289  0.00  0.00    -0.205 F 
ENDBRANCH  16  19
ENDBRANCH   7  11
BRANCH   1  28
ATOM     26  C   UNL     1      -0.142   1.279   0.025  0.00  0.00    +0.041 A 
ATOM     27  C   UNL     1       1.197   1.732   0.021  0.00  0.00    +0.046 A 
ATOM     28  C   UNL     1       1.979   0.638   0.004  0.00  0.00    +0.125 A 
ATOM     29  O   UNL     1       1.188  -0.448  -0.003  0.00  0.00    -0.466 OA
ATOM     30  C   UNL     1      -0.099  -0.065   0.009  0.00  0.00    +0.195 A 
ENDBRANCH   1  28
BRANCH   3  31
ATOM     31  C   UNL     1       4.106  -1.297  -3.283  0.00  0.00    +0.412 C 
ATOM     32  F   UNL     1       5.478  -1.453  -3.054  0.00  0.00    -0.168 F 
ATOM     33  F   UNL     1       3.575  -2.495  -3.772  0.00  0.00    -0.168 F 
ATOM     34  F   UNL     1       3.903  -0.279  -4.220  0.00  0.00    -0.168 F 
ENDBRANCH   3  31
TORSDOF 4
