REMARK  Name = ZINC39635140
REMARK  12 active torsions:
REMARK  status: ('A' for Active; 'I' for Inactive)
REMARK    1  A    between atoms: C_1  and  C_2
REMARK    2  A    between atoms: C_2  and  C_3
REMARK    3  A    between atoms: C_2  and  C_4
REMARK    4  A    between atoms: C_4  and  C_6
REMARK    5  A    between atoms: C_4  and  O_32
REMARK    6  A    between atoms: C_10  and  C_19
REMARK    7  A    between atoms: N_21  and  C_22
REMARK    8  A    between atoms: C_22  and  C_23
REMARK    9  A    between atoms: C_23  and  C_24
REMARK   10  A    between atoms: C_27  and  O_30
REMARK   11  A    between atoms: O_30  and  C_31
REMARK   12  A    between atoms: O_32  and  C_33
REMARK                            x       y       z     vdW  Elec       q    Type
REMARK                         _______ _______ _______ _____ _____    ______ ____
ROOT
ATOM      1  C   UNL     1      -2.012  -0.054  -1.132  0.00  0.00    +0.257 C 
ATOM      2  O   UNL     1      -2.987   0.655  -1.003  0.00  0.00    -0.272 OA
ATOM      3  N   UNL     1      -1.669  -0.512  -2.352  0.00  0.00    -0.297 N 
ATOM      4  C   UNL     1      -0.527  -1.387  -2.706  0.00  0.00    +0.121 C 
ATOM      5  C   UNL     1      -1.088  -2.348  -3.778  0.00  0.00    +0.100 C 
ATOM      6  C   UNL     1      -2.282  -1.597  -4.391  0.00  0.00    -0.004 C 
ATOM      7  C   UNL     1      -2.352  -0.258  -3.643  0.00  0.00    +0.115 C 
ATOM      8  C   UNL     1      -3.571  -2.385  -4.172  0.00  0.00    -0.010 C 
ATOM      9  C   UNL     1      -4.734  -1.646  -4.840  0.00  0.00    -0.082 C 
ATOM     10  N   UNL     1      -4.464  -1.501  -6.275  0.00  0.00    +0.379 N 
ATOM     11  C   UNL     1      -3.275  -0.664  -6.479  0.00  0.00    -0.082 C 
ATOM     12  C   UNL     1      -2.050  -1.361  -5.880  0.00  0.00    -0.010 C 
ATOM     13  H   UNL     1      -4.307  -2.411  -6.680  0.00  0.00    -0.086 HD
ATOM     14  H   UNL     1      -5.258  -1.069  -6.723  0.00  0.00    -0.086 HD
ENDROOT
BRANCH   5  15
ATOM     15  C   UNL     1      -0.046  -2.629  -4.829  0.00  0.00    +0.218 C 
ATOM     16  O   UNL     1       0.833  -1.821  -5.043  0.00  0.00    -0.275 OA
ATOM     17  N   UNL     1      -0.090  -3.777  -5.533  0.00  0.00    -0.315 N 
ATOM     18  H   UNL     1      -0.793  -4.424  -5.362  0.00  0.00    +0.149 HD
BRANCH  17  19
ATOM     19  C   UNL     1       0.923  -4.050  -6.555  0.00  0.00    +0.109 C 
BRANCH  19  20
ATOM     20  C   UNL     1       0.645  -5.410  -7.199  0.00  0.00    +0.054 C 
BRANCH  20  21
ATOM     21  C   UNL     1       1.687  -5.690  -8.250  0.00  0.00    -0.046 A 
ATOM     22  C   UNL     1       1.479  -5.283  -9.555  0.00  0.00    +0.007 A 
ATOM     23  C   UNL     1       2.433  -5.539 -10.521  0.00  0.00    +0.046 A 
ATOM     24  C   UNL     1       3.601  -6.206 -10.181  0.00  0.00    +0.120 A 
ATOM     25  C   UNL     1       3.808  -6.613  -8.871  0.00  0.00    +0.046 A 
ATOM     26  C   UNL     1       2.853  -6.350  -7.908  0.00  0.00    +0.007 A 
BRANCH  24  27
ATOM     27  O   UNL     1       4.540  -6.460 -11.129  0.00  0.00    -0.495 OA
ATOM     28  C   UNL     1       5.718  -7.150 -10.707  0.00  0.00    +0.277 C 
ENDBRANCH  24  27
ENDBRANCH  20  21
ENDBRANCH  19  20
ENDBRANCH  17  19
ENDBRANCH   5  15
BRANCH   1  29
ATOM     29  C   UNL     1      -1.185  -0.425   0.072  0.00  0.00    +0.261 C 
BRANCH  29  31
ATOM     30  C   UNL     1       0.112   1.708  -0.031  0.00  0.00    +0.011 C 
ATOM     31  C   UNL     1       0.213   0.182  -0.064  0.00  0.00    +0.033 C 
ATOM     32  C   UNL     1       1.091  -0.296   1.095  0.00  0.00    +0.011 C 
ENDBRANCH  29  31
BRANCH  29  33
ATOM     33  O   UNL     1      -1.811   0.079   1.253  0.00  0.00    -0.479 OA
BRANCH  33  34
ATOM     34  C   UNL     1      -1.779  -0.716   2.356  0.00  0.00    +0.122 A 
ATOM     35  C   UNL     1      -2.470  -0.345   3.500  0.00  0.00    +0.045 A 
ATOM     36  C   UNL     1      -2.437  -1.155   4.618  0.00  0.00    +0.004 A 
ATOM     37  C   UNL     1      -1.714  -2.333   4.599  0.00  0.00    +0.000 A 
ATOM     38  C   UNL     1      -1.024  -2.705   3.460  0.00  0.00    +0.004 A 
ATOM     39  C   UNL     1      -1.059  -1.902   2.336  0.00  0.00    +0.045 A 
ENDBRANCH  33  34
ENDBRANCH  29  33
ENDBRANCH   1  29
TORSDOF 9
