REMARK  Name = ZINC52095016
REMARK  2 active torsions:
REMARK  status: ('A' for Active; 'I' for Inactive)
REMARK    1  A    between atoms: C_4  and  C_8
REMARK    2  A    between atoms: C_8  and  C_10
REMARK                            x       y       z     vdW  Elec       q    Type
REMARK                         _______ _______ _______ _____ _____    ______ ____
ROOT
ATOM      1  C   UNL     1       3.988  -1.281   1.328  0.00  0.00    -0.009 A 
ATOM      2  C   UNL     1       3.550  -2.553   1.640  0.00  0.00    +0.034 A 
ATOM      3  C   UNL     1       3.801  -3.080   2.897  0.00  0.00    +0.067 A 
ATOM      4  C   UNL     1       4.496  -2.324   3.843  0.00  0.00    +0.068 A 
ATOM      5  C   UNL     1       4.932  -1.048   3.522  0.00  0.00    +0.043 A 
ATOM      6  C   UNL     1       4.682  -0.532   2.264  0.00  0.00    +0.025 A 
ATOM      7 BR   UNL     1       5.284   1.205   1.821  0.00  0.00    -0.050 Br
ATOM      8  N   UNL     1       4.594  -3.106   4.992  0.00  0.00    -0.306 N 
ATOM      9  H   UNL     1       5.026  -2.846   5.820  0.00  0.00    +0.170 HD
ATOM     10  C   UNL     1       3.987  -4.284   4.755  0.00  0.00    +0.325 A 
ATOM     11  O   UNL     1       3.893  -5.197   5.555  0.00  0.00    -0.247 OA
ATOM     12  N   UNL     1       3.499  -4.299   3.501  0.00  0.00    -0.306 N 
ATOM     13  H   UNL     1       3.018  -5.033   3.088  0.00  0.00    +0.170 HD
ENDROOT
BRANCH   1  14
ATOM     14  C   UNL     1       3.715  -0.707  -0.038  0.00  0.00    +0.147 C 
ATOM     15 CL   UNL     1       2.191   0.256   0.007  0.00  0.00    -0.111 Cl
BRANCH  14  19
ATOM     16  C   UNL     1       3.304  -3.889  -2.864  0.00  0.00    +0.006 A 
ATOM     17  C   UNL     1       2.185  -3.209  -2.422  0.00  0.00    +0.039 A 
ATOM     18  C   UNL     1       2.317  -2.178  -1.507  0.00  0.00    +0.131 A 
ATOM     19  C   UNL     1       3.570  -1.829  -1.034  0.00  0.00    +0.045 A 
ATOM     20  C   UNL     1       4.690  -2.511  -1.477  0.00  0.00    +0.131 A 
ATOM     21  C   UNL     1       4.556  -3.541  -2.393  0.00  0.00    +0.039 A 
ATOM     22  F   UNL     1       5.914  -2.172  -1.016  0.00  0.00    -0.205 F 
ATOM     23  F   UNL     1       1.223  -1.513  -1.076  0.00  0.00    -0.205 F 
ENDBRANCH  14  19
ENDBRANCH   1  14
TORSDOF 2
