REMARK  Name = ZINC63588757
REMARK  14 active torsions:
REMARK  status: ('A' for Active; 'I' for Inactive)
REMARK    1  A    between atoms: C_1  and  C_2
REMARK    2  A    between atoms: C_2  and  O_3
REMARK    3  A    between atoms: O_3  and  C_4
REMARK    4  A    between atoms: C_7  and  C_13
REMARK    5  A    between atoms: C_9  and  O_10
REMARK    6  A    between atoms: O_10  and  C_11
REMARK    7  A    between atoms: C_11  and  C_12
REMARK    8  A    between atoms: C_13  and  N_15
REMARK    9  A    between atoms: N_17  and  C_18
REMARK   10  A    between atoms: C_20  and  C_25
REMARK   11  A    between atoms: C_22  and  C_24
REMARK   12  A    between atoms: N_26  and  C_27
REMARK   13  A    between atoms: C_27  and  C_28
REMARK   14  A    between atoms: C_28  and  C_29
REMARK                            x       y       z     vdW  Elec       q    Type
REMARK                         _______ _______ _______ _____ _____    ______ ____
ROOT
ATOM      1  N   UNL     1      -0.365  -7.474  -2.033  0.00  0.00    -0.143 NA
ATOM      2  C   UNL     1       0.336  -8.523  -1.631  0.00  0.00    +0.194 C 
ATOM      3  N   UNL     1       1.115  -9.205  -2.522  0.00  0.00    -0.328 N 
ATOM      4  N   UNL     1       0.281  -8.921  -0.328  0.00  0.00    -0.357 N 
ATOM      5  H   UNL     1       1.187 -10.171  -2.462  0.00  0.00    +0.169 HD
ATOM      6  H   UNL     1      -0.329  -8.485   0.287  0.00  0.00    +0.162 HD
ENDROOT
BRANCH   3   7
ATOM      7  C   UNL     1       1.808  -8.512  -3.519  0.00  0.00    +0.042 A 
ATOM      8  C   UNL     1       2.170  -7.186  -3.322  0.00  0.00    +0.029 A 
ATOM      9  C   UNL     1       2.855  -6.505  -4.309  0.00  0.00    -0.048 A 
ATOM     10  C   UNL     1       3.181  -7.141  -5.492  0.00  0.00    +0.006 A 
ATOM     11  C   UNL     1       2.822  -8.462  -5.692  0.00  0.00    -0.048 A 
ATOM     12  C   UNL     1       2.142  -9.151  -4.707  0.00  0.00    +0.029 A 
ATOM     13  C   UNL     1       3.178  -9.152  -6.984  0.00  0.00    +0.044 C 
ATOM     14  C   UNL     1       3.248  -5.065  -4.096  0.00  0.00    +0.044 C 
ENDBRANCH   3   7
BRANCH   1  15
ATOM     15  C   UNL     1      -0.716  -7.356  -3.321  0.00  0.00    +0.270 C 
ATOM     16  O   UNL     1      -0.350  -8.190  -4.131  0.00  0.00    -0.268 OA
BRANCH  15  20
ATOM     17  C   UNL     1      -3.110  -4.073  -4.576  0.00  0.00    +0.162 A 
ATOM     18  C   UNL     1      -2.836  -4.257  -3.227  0.00  0.00    +0.050 A 
ATOM     19  C   UNL     1      -2.061  -5.321  -2.818  0.00  0.00    +0.017 A 
ATOM     20  C   UNL     1      -1.549  -6.215  -3.760  0.00  0.00    +0.043 A 
ATOM     21  C   UNL     1      -1.825  -6.031  -5.116  0.00  0.00    +0.062 A 
ATOM     22  C   UNL     1      -2.607  -4.966  -5.520  0.00  0.00    +0.163 A 
BRANCH  17  23
ATOM     23  O   UNL     1      -3.875  -3.023  -4.975  0.00  0.00    -0.489 OA
BRANCH  23  25
ATOM     24  C   UNL     1      -5.193  -1.035  -4.590  0.00  0.00    +0.048 C 
ATOM     25  C   UNL     1      -4.357  -2.147  -3.954  0.00  0.00    +0.226 C 
ENDBRANCH  23  25
ENDBRANCH  17  23
BRANCH  22  26
ATOM     26  O   UNL     1      -2.882  -4.786  -6.840  0.00  0.00    -0.489 OA
BRANCH  26  27
ATOM     27  C   UNL     1      -2.423  -5.796  -7.741  0.00  0.00    +0.226 C 
ATOM     28  C   UNL     1      -2.742  -5.379  -9.179  0.00  0.00    +0.048 C 
ENDBRANCH  26  27
ENDBRANCH  22  26
ENDBRANCH  15  20
ENDBRANCH   1  15
BRANCH   4  29
ATOM     29  C   UNL     1       1.142 -10.009   0.143  0.00  0.00    +0.120 C 
BRANCH  29  30
ATOM     30  C   UNL     1       0.803 -10.335   1.599  0.00  0.00    +0.054 C 
BRANCH  30  31
ATOM     31  C   UNL     1       1.767 -11.369   2.120  0.00  0.00    -0.040 C 
ATOM     32  C   UNL     1       2.905 -11.143   2.814  0.00  0.00    -0.001 A 
ATOM     33  C   UNL     1       3.562  -9.913   3.273  0.00  0.00    +0.010 A 
ATOM     34  C   UNL     1       4.723 -10.007   3.962  0.00  0.00    +0.001 A 
ATOM     35  C   UNL     1       5.312 -11.246   4.247  0.00  0.00    +0.002 A 
ATOM     36  C   UNL     1       4.768 -12.419   3.859  0.00  0.00    +0.026 A 
ATOM     37  C   UNL     1       3.548 -12.439   3.129  0.00  0.00    +0.043 A 
ATOM     38  N   UNL     1       2.834 -13.428   2.648  0.00  0.00    -0.380 N 
ATOM     39  C   UNL     1       1.654 -12.870   1.978  0.00  0.00    +0.144 C 
ATOM     40  H   UNL     1       3.049 -14.370   2.726  0.00  0.00    +0.160 HD
ENDBRANCH  30  31
ENDBRANCH  29  30
ENDBRANCH   4  29
TORSDOF 10
