REMARK  Name = ZINC39974554
REMARK  7 active torsions:
REMARK  status: ('A' for Active; 'I' for Inactive)
REMARK    1  A    between atoms: C_1  and  C_2
REMARK    2  A    between atoms: N_11  and  C_12
REMARK    3  A    between atoms: C_12  and  N_14
REMARK    4  A    between atoms: N_14  and  C_15
REMARK    5  A    between atoms: C_18  and  S_21
REMARK    6  A    between atoms: S_21  and  N_24
REMARK    7  A    between atoms: C_28  and  C_31
REMARK                            x       y       z     vdW  Elec       q    Type
REMARK                         _______ _______ _______ _____ _____    ______ ____
ROOT
ATOM      1  C   UNL     1      -0.798  -5.012  -3.478  0.00  0.00    +0.033 A 
ATOM      2  C   UNL     1      -0.932  -6.389  -3.359  0.00  0.00    +0.025 A 
ATOM      3  C   UNL     1      -1.235  -7.151  -4.470  0.00  0.00    +0.030 A 
ATOM      4  C   UNL     1      -1.404  -6.544  -5.701  0.00  0.00    +0.106 A 
ATOM      5  C   UNL     1      -1.271  -5.173  -5.824  0.00  0.00    +0.030 A 
ATOM      6  C   UNL     1      -0.975  -4.405  -4.715  0.00  0.00    +0.025 A 
ENDROOT
BRANCH   4   7
ATOM      7  S   UNL     1      -1.789  -7.520  -7.117  0.00  0.00    +0.061 S 
ATOM      8  O   UNL     1      -1.359  -6.779  -8.250  0.00  0.00    -0.153 OA
ATOM      9  O   UNL     1      -1.321  -8.834  -6.843  0.00  0.00    -0.153 OA
BRANCH   7  10
ATOM     10  N   UNL     1      -3.439  -7.616  -7.211  0.00  0.00    -0.176 NA
ATOM     11  C   UNL     1      -4.167  -8.699  -6.535  0.00  0.00    +0.109 C 
ATOM     12  C   UNL     1      -5.063  -9.405  -7.558  0.00  0.00    +0.017 C 
ATOM     13  C   UNL     1      -5.964  -8.372  -8.239  0.00  0.00    +0.006 C 
ATOM     14  C   UNL     1      -5.100  -7.348  -8.979  0.00  0.00    +0.002 C 
ATOM     15  C   UNL     1      -4.205  -6.616  -7.968  0.00  0.00    +0.112 C 
ATOM     16  C   UNL     1      -6.002  -6.336  -9.688  0.00  0.00    +0.009 C 
ENDBRANCH   7  10
ENDBRANCH   4   7
BRANCH   1  17
ATOM     17  N   UNL     1      -0.491  -4.237  -2.355  0.00  0.00    -0.296 N 
ATOM     18  H   UNL     1      -0.471  -3.270  -2.424  0.00  0.00    +0.154 HD
BRANCH  17  19
ATOM     19  C   UNL     1      -0.225  -4.835  -1.177  0.00  0.00    +0.141 C 
ATOM     20  S   UNL     1       1.377  -4.862  -0.574  0.00  0.00    -0.018 S 
BRANCH  19  31
ATOM     21  C   UNL     1      -6.597  -4.818  -2.184  0.00  0.00    +0.044 C 
ATOM     22  C   UNL     1      -5.170  -4.977  -1.726  0.00  0.00    -0.050 A 
ATOM     23  C   UNL     1      -4.179  -4.173  -2.261  0.00  0.00    +0.005 A 
ATOM     24  C   UNL     1      -2.873  -4.320  -1.841  0.00  0.00    +0.024 A 
ATOM     25  C   UNL     1      -2.553  -5.274  -0.881  0.00  0.00    +0.039 A 
ATOM     26  C   UNL     1      -3.546  -6.077  -0.343  0.00  0.00    -0.026 A 
ATOM     27  C   UNL     1      -4.856  -5.921  -0.768  0.00  0.00    +0.008 A 
ATOM     28  C   UNL     1      -3.239  -7.112   0.706  0.00  0.00    +0.038 C 
ATOM     29  C   UNL     1      -1.755  -7.479   0.677  0.00  0.00    +0.024 C 
ATOM     30  C   UNL     1      -0.924  -6.191   0.737  0.00  0.00    +0.113 C 
ATOM     31  N   UNL     1      -1.220  -5.410  -0.473  0.00  0.00    -0.282 N 
ENDBRANCH  19  31
ENDBRANCH  17  19
ENDBRANCH   1  17
TORSDOF 5
