REMARK  Name = ZINC21991701
REMARK  12 active torsions:
REMARK  status: ('A' for Active; 'I' for Inactive)
REMARK    1  A    between atoms: C_1  and  C_2
REMARK    2  A    between atoms: C_3  and  C_36
REMARK    3  A    between atoms: C_4  and  C_27
REMARK    4  A    between atoms: C_6  and  C_10
REMARK    5  A    between atoms: C_7  and  C_9
REMARK    6  A    between atoms: C_10  and  O_12
REMARK    7  A    between atoms: O_12  and  C_13
REMARK    8  A    between atoms: N_19  and  C_20
REMARK    9  A    between atoms: C_20  and  C_21
REMARK   10  A    between atoms: C_31  and  N_33
REMARK   11  A    between atoms: C_36  and  O_38
REMARK   12  A    between atoms: O_38  and  C_39
REMARK                            x       y       z     vdW  Elec       q    Type
REMARK                         _______ _______ _______ _____ _____    ______ ____
ROOT
ATOM      1  C   UNL     1      -1.789   1.206   0.718  0.00  0.00    +0.061 C 
ATOM      2  C   UNL     1      -0.575   0.333   0.527  0.00  0.00    +0.016 C 
ATOM      3  C   UNL     1       0.543   0.858  -0.004  0.00  0.00    +0.065 C 
ATOM      4  C   UNL     1       1.777   0.026  -0.210  0.00  0.00    +0.096 C 
ATOM      5  C   UNL     1       1.456  -1.437  -0.120  0.00  0.00    +0.065 C 
ATOM      6  C   UNL     1       0.301  -1.870   0.415  0.00  0.00    +0.016 C 
ATOM      7  N   UNL     1      -0.625  -0.984   0.894  0.00  0.00    -0.321 N 
ATOM      8  C   UNL     1       0.023  -3.349   0.488  0.00  0.00    +0.061 C 
ATOM      9  H   UNL     1      -1.412  -1.335   1.578  0.00  0.00    +0.152 HD
ENDROOT
BRANCH   4  10
ATOM     10  C   UNL     1       2.792   0.373   0.848  0.00  0.00    -0.033 A 
ATOM     11  C   UNL     1       2.485   0.196   2.184  0.00  0.00    +0.005 A 
ATOM     12  C   UNL     1       3.416   0.513   3.155  0.00  0.00    +0.003 A 
ATOM     13  C   UNL     1       4.655   1.009   2.790  0.00  0.00    +0.033 A 
ATOM     14  C   UNL     1       4.962   1.185   1.454  0.00  0.00    +0.126 A 
ATOM     15  C   UNL     1       4.032   0.863   0.483  0.00  0.00    +0.037 A 
BRANCH  14  16
ATOM     16  N   UNL     1       6.287   1.714   1.063  0.00  0.00    +0.056 N 
ATOM     17  O   UNL     1       7.108   1.995   1.918  0.00  0.00    -0.126 OA
ATOM     18  O   UNL     1       6.558   1.869  -0.115  0.00  0.00    -0.126 OA
ENDBRANCH  14  16
ENDBRANCH   4  10
BRANCH   5  19
ATOM     19  C   UNL     1       2.386  -2.380  -0.614  0.00  0.00    +0.336 C 
ATOM     20  O   UNL     1       2.137  -3.570  -0.552  0.00  0.00    -0.245 OA
BRANCH  19  21
ATOM     21  O   UNL     1       3.549  -1.962  -1.154  0.00  0.00    -0.477 OA
BRANCH  21  22
ATOM     22  C   UNL     1       4.400  -2.962  -1.718  0.00  0.00    +0.127 C 
ATOM     23  C   UNL     1       5.348  -3.491  -0.640  0.00  0.00    +0.025 C 
ATOM     24  C   UNL     1       6.271  -4.548  -1.253  0.00  0.00    -0.000 C 
ATOM     25  C   UNL     1       7.038  -3.927  -2.424  0.00  0.00    -0.018 C 
ATOM     26  C   UNL     1       6.041  -3.385  -3.450  0.00  0.00    -0.073 C 
ATOM     27  N   UNL     1       5.182  -2.378  -2.815  0.00  0.00    +0.407 N 
ATOM     28  H   UNL     1       5.835  -1.603  -2.386  0.00  0.00    -0.076 HD
BRANCH  27  29
ATOM     29  C   UNL     1       4.304  -1.736  -3.803  0.00  0.00    -0.038 C 
BRANCH  29  30
ATOM     30  C   UNL     1       5.122  -0.829  -4.686  0.00  0.00    -0.064 A 
ATOM     31  C   UNL     1       5.303   0.497  -4.337  0.00  0.00    +0.002 A 
ATOM     32  C   UNL     1       6.057   1.327  -5.145  0.00  0.00    +0.000 A 
ATOM     33  C   UNL     1       6.621   0.836  -6.307  0.00  0.00    +0.000 A 
ATOM     34  C   UNL     1       6.434  -0.488  -6.660  0.00  0.00    +0.000 A 
ATOM     35  C   UNL     1       5.685  -1.320  -5.849  0.00  0.00    +0.002 A 
ENDBRANCH  29  30
ENDBRANCH  27  29
ENDBRANCH  21  22
ENDBRANCH  19  21
ENDBRANCH   5  19
BRANCH   3  36
ATOM     36  C   UNL     1       0.556   2.221  -0.380  0.00  0.00    +0.337 C 
ATOM     37  O   UNL     1      -0.409   2.925  -0.150  0.00  0.00    -0.245 OA
BRANCH  36  38
ATOM     38  O   UNL     1       1.637   2.740  -0.999  0.00  0.00    -0.465 OA
ATOM     39  C   UNL     1       1.582   4.124  -1.351  0.00  0.00    +0.280 C 
ENDBRANCH  36  38
ENDBRANCH   3  36
TORSDOF 9
