REMARK  Name = ZINC47823099
REMARK  9 active torsions:
REMARK  status: ('A' for Active; 'I' for Inactive)
REMARK    1  A    between atoms: C_1  and  C_2
REMARK    2  A    between atoms: C_6  and  C_21
REMARK    3  A    between atoms: C_8  and  O_11
REMARK    4  A    between atoms: O_11  and  C_12
REMARK    5  A    between atoms: C_12  and  C_14
REMARK    6  A    between atoms: C_14  and  S_15
REMARK    7  A    between atoms: S_15  and  C_16
REMARK    8  A    between atoms: C_21  and  C_22
REMARK    9  A    between atoms: C_21  and  C_23
REMARK                            x       y       z     vdW  Elec       q    Type
REMARK                         _______ _______ _______ _____ _____    ______ ____
ROOT
ATOM      1  C   UNL     1      -0.008   1.530   0.036  0.00  0.00    +0.007 C 
ATOM      2  C   UNL     1       0.012   0.000   0.022  0.00  0.00    -0.011 C 
ATOM      3  C   UNL     1      -1.424  -0.529   0.021  0.00  0.00    +0.004 C 
ATOM      4  C   UNL     1      -1.403  -2.059   0.007  0.00  0.00    +0.007 C 
ATOM      5  C   UNL     1      -0.672  -2.570   1.250  0.00  0.00    +0.032 C 
ATOM      6  C   UNL     1       0.764  -2.041   1.250  0.00  0.00    +0.180 C 
ATOM      7  C   UNL     1       0.743  -0.511   1.264  0.00  0.00    +0.048 C 
ENDROOT
BRANCH   5   8
ATOM      8  C   UNL     1      -0.652  -4.100   1.236  0.00  0.00    -0.011 C 
ATOM      9  C   UNL     1      -2.080  -4.630   1.372  0.00  0.00    +0.007 C 
ATOM     10  C   UNL     1      -0.050  -4.590  -0.083  0.00  0.00    +0.007 C 
ENDBRANCH   5   8
BRANCH   6  11
ATOM     11  O   UNL     1       1.447  -2.519   2.411  0.00  0.00    -0.460 OA
BRANCH  11  12
ATOM     12  C   UNL     1       2.772  -2.704   2.305  0.00  0.00    +0.318 C 
ATOM     13  O   UNL     1       3.333  -2.468   1.261  0.00  0.00    -0.250 OA
BRANCH  12  14
ATOM     14  C   UNL     1       3.560  -3.206   3.487  0.00  0.00    +0.196 C 
BRANCH  14  15
ATOM     15  S   UNL     1       5.310  -3.350   3.031  0.00  0.00    -0.086 S 
BRANCH  15  16
ATOM     16  C   UNL     1       6.085  -3.940   4.499  0.00  0.00    +0.159 A 
ATOM     17  N   UNL     1       5.562  -4.233   5.683  0.00  0.00    -0.135 NA
ATOM     18  N   UNL     1       6.272  -4.650   6.638  0.00  0.00    -0.149 NA
ATOM     19  C   UNL     1       7.574  -4.821   6.524  0.00  0.00    +0.182 A 
ATOM     20  S   UNL     1       7.805  -4.324   4.819  0.00  0.00    -0.048 S 
ENDBRANCH  15  16
ENDBRANCH  14  15
ENDBRANCH  12  14
ENDBRANCH  11  12
ENDBRANCH   6  11
TORSDOF 6
