REMARK  Name = ZINC09617241
REMARK  9 active torsions:
REMARK  status: ('A' for Active; 'I' for Inactive)
REMARK    1  A    between atoms: N_9  and  C_25
REMARK    2  A    between atoms: N_12  and  C_13
REMARK    3  A    between atoms: C_13  and  C_14
REMARK    4  A    between atoms: N_16  and  C_17
REMARK    5  A    between atoms: C_17  and  C_18
REMARK    6  A    between atoms: C_18  and  C_19
REMARK    7  A    between atoms: C_25  and  C_26
REMARK    8  A    between atoms: C_29  and  C_32
REMARK    9  A    between atoms: N_34  and  C_35
REMARK                            x       y       z     vdW  Elec       q    Type
REMARK                         _______ _______ _______ _____ _____    ______ ____
ROOT
ATOM      1  C   UNL     1      -4.013  -0.447   3.596  0.00  0.00    +0.001 A 
ATOM      2  C   UNL     1      -2.971   0.468   3.617  0.00  0.00    +0.002 A 
ATOM      3  C   UNL     1      -2.434   0.951   2.440  0.00  0.00    +0.027 A 
ATOM      4  C   UNL     1      -2.940   0.517   1.224  0.00  0.00    +0.059 A 
ATOM      5  C   UNL     1      -3.996  -0.410   1.202  0.00  0.00    +0.063 A 
ATOM      6  C   UNL     1      -4.529  -0.889   2.396  0.00  0.00    +0.015 A 
ATOM      7  C   UNL     1      -4.511  -0.850  -0.108  0.00  0.00    +0.264 A 
ATOM      8  O   UNL     1      -5.423  -1.650  -0.183  0.00  0.00    -0.267 OA
ATOM      9  N   UNL     1      -3.943  -0.340  -1.222  0.00  0.00    -0.260 N 
ATOM     10  C   UNL     1      -2.939   0.548  -1.149  0.00  0.00    +0.333 A 
ATOM     11  O   UNL     1      -2.467   0.980  -2.183  0.00  0.00    -0.246 OA
ATOM     12  N   UNL     1      -2.430   0.977   0.019  0.00  0.00    -0.284 N 
ENDROOT
BRANCH  12  13
ATOM     13  C   UNL     1      -1.330   1.944   0.019  0.00  0.00    +0.222 C 
BRANCH  13  14
ATOM     14  C   UNL     1      -0.014   1.209   0.009  0.00  0.00    +0.233 C 
ATOM     15  O   UNL     1       0.002  -0.004   0.002  0.00  0.00    -0.274 OA
ATOM     16  N   UNL     1       1.143   1.898   0.001  0.00  0.00    -0.314 N 
ATOM     17  H   UNL     1       1.129   2.998   0.007  0.00  0.00    +0.149 HD
BRANCH  16  18
ATOM     18  C   UNL     1       2.422   1.183  -0.015  0.00  0.00    +0.108 C 
BRANCH  18  19
ATOM     19  C   UNL     1       3.571   2.193  -0.020  0.00  0.00    +0.049 C 
BRANCH  19  20
ATOM     20  C   UNL     1       4.886   1.458  -0.037  0.00  0.00    -0.072 C 
ATOM     21  C   UNL     1       5.454   1.254  -1.182  0.00  0.00    -0.028 C 
ATOM     22  C   UNL     1       6.757   0.530  -1.359  0.00  0.00    +0.027 C 
ATOM     23  C   UNL     1       7.502   0.455  -0.025  0.00  0.00    +0.004 C 
ATOM     24  C   UNL     1       6.531  -0.059   1.046  0.00  0.00    +0.005 C 
ATOM     25  C   UNL     1       5.460   1.011   1.276  0.00  0.00    +0.030 C 
ENDBRANCH  19  20
ENDBRANCH  18  19
ENDBRANCH  16  18
ENDBRANCH  13  14
ENDBRANCH  12  13
BRANCH   9  26
ATOM     26  C   UNL     1      -4.435  -0.760  -2.536  0.00  0.00    +0.133 C 
BRANCH  26  27
ATOM     27  C   UNL     1      -5.559   0.177  -2.983  0.00  0.00    +0.009 C 
ATOM     28  C   UNL     1      -6.753   0.030  -2.038  0.00  0.00    +0.006 C 
ATOM     29  C   UNL     1      -7.876   0.967  -2.485  0.00  0.00    +0.013 C 
ATOM     30  C   UNL     1      -8.306   0.606  -3.908  0.00  0.00    +0.075 C 
ATOM     31  C   UNL     1      -7.112   0.753  -4.854  0.00  0.00    +0.013 C 
ATOM     32  C   UNL     1      -5.989  -0.184  -4.407  0.00  0.00    +0.006 C 
BRANCH  30  33
ATOM     33  C   UNL     1      -9.412   1.529  -4.348  0.00  0.00    +0.216 C 
ATOM     34  O   UNL     1      -9.262   2.235  -5.323  0.00  0.00    -0.276 OA
ATOM     35  N   UNL     1     -10.570   1.569  -3.659  0.00  0.00    -0.312 N 
ATOM     36  H   UNL     1     -10.707   0.929  -2.776  0.00  0.00    +0.149 HD
BRANCH  35  37
ATOM     37  C   UNL     1     -11.646   2.467  -4.087  0.00  0.00    +0.073 C 
ATOM     38  C   UNL     1     -11.454   3.861  -3.455  0.00  0.00    +0.022 C 
ATOM     39  C   UNL     1     -12.895   4.335  -3.137  0.00  0.00    +0.002 C 
ATOM     40  C   UNL     1     -13.588   3.031  -2.668  0.00  0.00    +0.002 C 
ATOM     41  C   UNL     1     -13.002   1.940  -3.588  0.00  0.00    +0.022 C 
ENDBRANCH  35  37
ENDBRANCH  30  33
ENDBRANCH  26  27
ENDBRANCH   9  26
TORSDOF 9
