REMARK  Name = ZINC11913023
REMARK  9 active torsions:
REMARK  status: ('A' for Active; 'I' for Inactive)
REMARK    1  A    between atoms: C_2  and  C_3
REMARK    2  A    between atoms: C_3  and  O_4
REMARK    3  A    between atoms: O_4  and  C_5
REMARK    4  A    between atoms: C_10  and  C_11
REMARK    5  A    between atoms: C_11  and  N_70
REMARK    6  A    between atoms: C_14  and  C_17
REMARK    7  A    between atoms: C_17  and  C_31
REMARK    8  A    between atoms: N_20  and  C_24
REMARK    9  A    between atoms: C_24  and  C_25
REMARK                            x       y       z     vdW  Elec       q    Type
REMARK                         _______ _______ _______ _____ _____    ______ ____
ROOT
ATOM      1  C   UNL     1       5.159   3.734  -0.933  0.00  0.00    +0.157 C 
ATOM      2  C   UNL     1       6.068   3.043  -1.930  0.00  0.00    +0.253 C 
ATOM      3  O   UNL     1       6.010   3.104  -3.140  0.00  0.00    -0.272 OA
ATOM      4  N   UNL     1       6.954   2.345  -1.192  0.00  0.00    -0.221 N 
ATOM      5  C   UNL     1       6.734   2.498   0.118  0.00  0.00    +0.310 C 
ATOM      6  O   UNL     1       7.403   1.966   0.982  0.00  0.00    -0.252 OA
ATOM      7  N   UNL     1       5.689   3.305   0.373  0.00  0.00    -0.280 N 
ATOM      8  H   UNL     1       5.350   3.556   1.246  0.00  0.00    +0.152 HD
ENDROOT
BRANCH   1  11
ATOM      9  C   UNL     1       2.175   1.302  -0.994  0.00  0.00    -0.078 C 
ATOM     10  C   UNL     1       3.632   1.754  -0.877  0.00  0.00    -0.012 C 
ATOM     11  C   UNL     1       3.713   3.265  -1.108  0.00  0.00    +0.024 C 
ATOM     12  C   UNL     1       2.818   3.978  -0.091  0.00  0.00    -0.012 C 
ATOM     13  C   UNL     1       1.384   3.461  -0.231  0.00  0.00    -0.078 C 
ATOM     14  N   UNL     1       1.371   2.006   0.027  0.00  0.00    +0.382 N 
ATOM     15  H   UNL     1       1.779   1.827   0.953  0.00  0.00    -0.081 HD
BRANCH  14  16
ATOM     16  C   UNL     1      -0.018   1.503   0.010  0.00  0.00    -0.039 C 
BRANCH  16  22
ATOM     17  C   UNL     1       0.231  -0.702   1.179  0.00  0.00    +0.122 A 
ATOM     18  C   UNL     1       0.249  -2.089   1.168  0.00  0.00    +0.046 A 
ATOM     19  C   UNL     1       0.038  -2.772  -0.014  0.00  0.00    +0.004 A 
ATOM     20  C   UNL     1      -0.190  -2.074  -1.186  0.00  0.00    +0.000 A 
ATOM     21  C   UNL     1      -0.213  -0.692  -1.177  0.00  0.00    +0.005 A 
ATOM     22  C   UNL     1       0.002  -0.004   0.002  0.00  0.00    -0.022 A 
BRANCH  17  23
ATOM     23  O   UNL     1       0.438  -0.027   2.341  0.00  0.00    -0.488 OA
BRANCH  23  24
ATOM     24  C   UNL     1       0.667  -0.811   3.513  0.00  0.00    +0.256 C 
BRANCH  24  26
ATOM     25  C   UNL     1       0.273  -0.151   5.831  0.00  0.00    +0.007 C 
ATOM     26  C   UNL     1       0.874   0.102   4.695  0.00  0.00    +0.006 C 
ENDBRANCH  24  26
ENDBRANCH  23  24
ENDBRANCH  17  23
ENDBRANCH  16  22
ENDBRANCH  14  16
ENDBRANCH   1  11
BRANCH   1  27
ATOM     27  C   UNL     1       5.251   5.231  -1.081  0.00  0.00    +0.074 A 
ATOM     28  C   UNL     1       5.721   5.994  -0.028  0.00  0.00    +0.026 A 
ATOM     29  C   UNL     1       5.807   7.369  -0.176  0.00  0.00    +0.003 A 
ATOM     30  C   UNL     1       5.405   7.930  -1.380  0.00  0.00    +0.020 A 
ATOM     31  C   UNL     1       4.941   7.104  -2.385  0.00  0.00    +0.111 A 
ATOM     32  N   UNL     1       4.878   5.798  -2.211  0.00  0.00    -0.257 NA
ENDBRANCH   1  27
BRANCH   4  33
ATOM     33  C   UNL     1       8.026   1.521  -1.756  0.00  0.00    +0.149 C 
BRANCH  33  34
ATOM     34  C   UNL     1       9.284   2.373  -1.938  0.00  0.00    +0.136 C 
ATOM     35  C   UNL     1      10.388   1.558  -2.646  0.00  0.00    +0.035 C 
ATOM     36  C   UNL     1      11.694   2.021  -1.962  0.00  0.00    +0.031 C 
ATOM     37  C   UNL     1      11.224   3.061  -0.921  0.00  0.00    +0.160 C 
ATOM     38  O   UNL     1       9.846   2.719  -0.653  0.00  0.00    -0.375 OA
ENDBRANCH  33  34
ENDBRANCH   4  33
TORSDOF 9
