REMARK  Name = ZINC49513007
REMARK  8 active torsions:
REMARK  status: ('A' for Active; 'I' for Inactive)
REMARK    1  A    between atoms: C_1  and  N_2
REMARK    2  A    between atoms: C_6  and  C_7
REMARK    3  A    between atoms: C_7  and  C_9
REMARK    4  A    between atoms: C_7  and  N_26
REMARK    5  A    between atoms: C_9  and  N_10
REMARK    6  A    between atoms: C_11  and  C_13
REMARK    7  A    between atoms: N_15  and  C_16
REMARK    8  A    between atoms: C_21  and  C_22
REMARK                            x       y       z     vdW  Elec       q    Type
REMARK                         _______ _______ _______ _____ _____    ______ ____
ROOT
ATOM      1  N   UNL     1      -1.047   0.770   4.417  0.00  0.00    -0.309 N 
ATOM      2  C   UNL     1      -2.156   1.186   5.060  0.00  0.00    +0.299 C 
ATOM      3  O   UNL     1      -3.220   1.219   4.476  0.00  0.00    -0.265 OA
ATOM      4  H   UNL     1      -0.198   0.743   4.884  0.00  0.00    +0.149 HD
ENDROOT
BRANCH   2   5
ATOM      5  C   UNL     1      -2.077   1.606   6.491  0.00  0.00    +0.303 C 
ATOM      6  O   UNL     1      -1.014   1.573   7.075  0.00  0.00    -0.265 OA
ATOM      7  N   UNL     1      -3.186   2.022   7.134  0.00  0.00    -0.277 N 
ATOM      8  H   UNL     1      -4.047   1.985   6.689  0.00  0.00    +0.155 HD
BRANCH   7   9
ATOM      9  C   UNL     1      -3.095   2.508   8.441  0.00  0.00    +0.045 A 
ATOM     10  C   UNL     1      -1.962   3.200   8.849  0.00  0.00    +0.024 A 
ATOM     11  C   UNL     1      -1.876   3.679  10.142  0.00  0.00    +0.002 A 
ATOM     12  C   UNL     1      -2.916   3.470  11.029  0.00  0.00    +0.001 A 
ATOM     13  C   UNL     1      -4.045   2.781  10.626  0.00  0.00    +0.014 A 
ATOM     14  C   UNL     1      -4.140   2.305   9.333  0.00  0.00    +0.076 A 
BRANCH  14  15
ATOM     15  C   UNL     1      -5.374   1.560   8.893  0.00  0.00    +0.419 C 
ATOM     16  F   UNL     1      -6.278   1.483   9.958  0.00  0.00    -0.166 F 
ATOM     17  F   UNL     1      -5.971   2.237   7.823  0.00  0.00    -0.166 F 
ATOM     18  F   UNL     1      -5.020   0.269   8.488  0.00  0.00    -0.166 F 
ENDBRANCH  14  15
ENDBRANCH   7   9
ENDBRANCH   2   5
BRANCH   1  19
ATOM     19  C   UNL     1      -1.125   0.358   3.014  0.00  0.00    +0.095 C 
BRANCH  19  20
ATOM     20  C   UNL     1       0.233  -0.185   2.565  0.00  0.00    -0.003 C 
BRANCH  20  21
ATOM     21  N   UNL     1       0.646  -1.273   3.461  0.00  0.00    +0.386 N 
ATOM     22  C   UNL     1       1.942  -1.804   2.995  0.00  0.00    -0.078 C 
ATOM     23  C   UNL     1       2.641  -2.443   4.169  0.00  0.00    -0.019 C 
ATOM     24  C   UNL     1       2.395  -3.963   4.211  0.00  0.00    -0.002 C 
ATOM     25  C   UNL     1       0.936  -4.318   3.858  0.00  0.00    -0.002 C 
ATOM     26  C   UNL     1      -0.053  -3.371   4.489  0.00  0.00    -0.019 C 
ATOM     27  C   UNL     1      -0.366  -2.234   3.494  0.00  0.00    -0.078 C 
ATOM     28  H   UNL     1       0.766  -0.899   4.390  0.00  0.00    -0.081 HD
ENDBRANCH  20  21
BRANCH  20  34
ATOM     29  C   UNL     1      -0.448   1.471   0.033  0.00  0.00    +0.148 C 
ATOM     30  N   UNL     1      -0.176   0.031   0.050  0.00  0.00    -0.355 N 
ATOM     31  C   UNL     1      -0.175  -0.790  -1.038  0.00  0.00    +0.085 A 
ATOM     32  C   UNL     1       0.118  -2.039  -0.624  0.00  0.00    +0.019 A 
ATOM     33  C   UNL     1       0.305  -1.988   0.772  0.00  0.00    +0.021 A 
ATOM     34  C   UNL     1       0.125  -0.708   1.156  0.00  0.00    +0.006 A 
ENDBRANCH  20  34
ENDBRANCH  19  20
ENDBRANCH   1  19
TORSDOF 7
