REMARK  Name = ZINC16939365
REMARK  16 active torsions:
REMARK  status: ('A' for Active; 'I' for Inactive)
REMARK    1  A    between atoms: C_1  and  C_2
REMARK    2  A    between atoms: C_5  and  N_9
REMARK    3  A    between atoms: C_6  and  C_8
REMARK    4  A    between atoms: C_10  and  C_12
REMARK    5  A    between atoms: C_12  and  C_14
REMARK    6  A    between atoms: C_12  and  O_15
REMARK    7  A    between atoms: O_15  and  C_16
REMARK    8  A    between atoms: C_16  and  C_18
REMARK    9  A    between atoms: C_21  and  O_32
REMARK   10  A    between atoms: C_22  and  S_24
REMARK   11  A    between atoms: S_24  and  N_27
REMARK   12  A    between atoms: N_27  and  C_28
REMARK   13  A    between atoms: C_28  and  C_29
REMARK   14  A    between atoms: C_28  and  C_30
REMARK   15  A    between atoms: C_28  and  C_31
REMARK   16  A    between atoms: O_32  and  C_33
REMARK                            x       y       z     vdW  Elec       q    Type
REMARK                         _______ _______ _______ _____ _____    ______ ____
ROOT
ATOM      1  C   UNL     1      -0.565  -8.167  -2.925  0.00  0.00    +0.340 C 
ATOM      2  O   UNL     1      -0.910  -8.730  -1.905  0.00  0.00    -0.245 OA
ENDROOT
BRANCH   1   3
ATOM      3  C   UNL     1      -0.993  -8.689  -4.236  0.00  0.00    +0.061 A 
ATOM      4  C   UNL     1      -0.592  -8.045  -5.411  0.00  0.00    +0.018 A 
ATOM      5  C   UNL     1      -0.992  -8.536  -6.633  0.00  0.00    +0.048 A 
ATOM      6  C   UNL     1      -1.795  -9.669  -6.700  0.00  0.00    +0.146 A 
ATOM      7  C   UNL     1      -2.195 -10.312  -5.535  0.00  0.00    +0.147 A 
ATOM      8  C   UNL     1      -1.794  -9.831  -4.309  0.00  0.00    +0.047 A 
BRANCH   7   9
ATOM      9  S   UNL     1      -3.213 -11.748  -5.627  0.00  0.00    +0.062 S 
ATOM     10  O   UNL     1      -2.595 -12.624  -6.561  0.00  0.00    -0.153 OA
ATOM     11  O   UNL     1      -3.492 -12.135  -4.289  0.00  0.00    -0.153 OA
BRANCH   9  12
ATOM     12  N   UNL     1      -4.655 -11.284  -6.296  0.00  0.00    -0.185 NA
ATOM     13  H   UNL     1      -4.928 -11.639  -7.156  0.00  0.00    +0.149 HD
BRANCH  12  14
ATOM     14  C   UNL     1      -5.519 -10.336  -5.589  0.00  0.00    +0.032 C 
ATOM     15  C   UNL     1      -4.829  -8.972  -5.517  0.00  0.00    +0.029 C 
ATOM     16  C   UNL     1      -6.846 -10.198  -6.338  0.00  0.00    +0.029 C 
ATOM     17  C   UNL     1      -5.785 -10.847  -4.171  0.00  0.00    +0.029 C 
ENDBRANCH  12  14
ENDBRANCH   9  12
ENDBRANCH   7   9
BRANCH   6  18
ATOM     18  O   UNL     1      -2.188 -10.149  -7.907  0.00  0.00    -0.493 OA
ATOM     19  C   UNL     1      -1.650  -9.510  -9.066  0.00  0.00    +0.277 C 
ENDBRANCH   6  18
ENDBRANCH   1   3
BRANCH   1  20
ATOM     20  O   UNL     1       0.208  -7.066  -2.857  0.00  0.00    -0.449 OA
BRANCH  20  21
ATOM     21  C   UNL     1       0.584  -6.616  -1.554  0.00  0.00    +0.259 C 
ATOM     22  C   UNL     1       1.900  -7.281  -1.145  0.00  0.00    +0.062 C 
BRANCH  21  24
ATOM     23  N   UNL     1       1.019  -4.459  -0.425  0.00  0.00    -0.282 N 
ATOM     24  C   UNL     1       0.762  -5.120  -1.571  0.00  0.00    +0.258 C 
ATOM     25  O   UNL     1       0.673  -4.510  -2.615  0.00  0.00    -0.271 OA
ATOM     26  H   UNL     1       1.165  -4.952   0.398  0.00  0.00    +0.155 HD
BRANCH  23  31
ATOM     27  C   UNL     1       1.252   1.210  -0.411  0.00  0.00    +0.044 C 
ATOM     28  C   UNL     1       1.190  -0.296  -0.414  0.00  0.00    -0.050 A 
ATOM     29  C   UNL     1       1.623  -1.002  -1.523  0.00  0.00    +0.005 A 
ATOM     30  C   UNL     1       1.567  -2.382  -1.529  0.00  0.00    +0.024 A 
ATOM     31  C   UNL     1       1.077  -3.061  -0.421  0.00  0.00    +0.036 A 
ATOM     32  C   UNL     1       0.645  -2.349   0.690  0.00  0.00    -0.029 A 
ATOM     33  C   UNL     1       0.707  -0.969   0.692  0.00  0.00    +0.008 A 
ATOM     34  C   UNL     1       0.112  -3.082   1.895  0.00  0.00    +0.045 C 
ENDBRANCH  23  31
ENDBRANCH  21  24
ENDBRANCH  20  21
ENDBRANCH   1  20
TORSDOF 9
