REMARK  Name = ZINC22920463
REMARK  9 active torsions:
REMARK  status: ('A' for Active; 'I' for Inactive)
REMARK    1  A    between atoms: C_1  and  C_2
REMARK    2  A    between atoms: C_3  and  C_32
REMARK    3  A    between atoms: C_11  and  C_13
REMARK    4  A    between atoms: C_13  and  S_14
REMARK    5  A    between atoms: S_14  and  C_15
REMARK    6  A    between atoms: C_15  and  C_17
REMARK    7  A    between atoms: C_15  and  C_18
REMARK    8  A    between atoms: C_26  and  O_30
REMARK    9  A    between atoms: O_30  and  C_31
REMARK                            x       y       z     vdW  Elec       q    Type
REMARK                         _______ _______ _______ _____ _____    ______ ____
ROOT
ATOM      1  C   UNL     1       0.135  -6.147   5.443  0.00  0.00    +0.130 C 
ATOM      2  C   UNL     1       1.446  -5.905   6.194  0.00  0.00    +0.029 C 
ENDROOT
BRANCH   1   3
ATOM      3  C   UNL     1       0.027  -7.604   5.076  0.00  0.00    +0.231 C 
ATOM      4  O   UNL     1       0.388  -7.982   3.981  0.00  0.00    -0.274 OA
ATOM      5  N   UNL     1      -0.469  -8.488   5.964  0.00  0.00    -0.264 N 
ATOM      6  C   UNL     1      -0.568  -9.829   5.626  0.00  0.00    +0.165 A 
ATOM      7  N   UNL     1      -0.228 -10.422   4.506  0.00  0.00    -0.225 NA
ATOM      8  C   UNL     1      -0.382 -11.751   4.313  0.00  0.00    +0.081 A 
ATOM      9  C   UNL     1      -0.059 -12.508   3.163  0.00  0.00    +0.032 A 
ATOM     10  C   UNL     1      -0.280 -13.860   3.128  0.00  0.00    +0.048 A 
ATOM     11  C   UNL     1      -0.826 -14.535   4.216  0.00  0.00    +0.121 A 
ATOM     12  C   UNL     1      -1.153 -13.822   5.360  0.00  0.00    +0.063 A 
ATOM     13  C   UNL     1      -0.934 -12.468   5.399  0.00  0.00    +0.044 A 
ATOM     14  S   UNL     1      -1.182 -11.190   6.608  0.00  0.00    -0.052 S 
ATOM     15  H   UNL     1      -0.757  -8.186   6.840  0.00  0.00    +0.157 HD
BRANCH  11  16
ATOM     16  O   UNL     1      -1.036 -15.877   4.157  0.00  0.00    -0.495 OA
ATOM     17  C   UNL     1      -0.673 -16.538   2.944  0.00  0.00    +0.277 C 
ENDBRANCH  11  16
ENDBRANCH   1   3
BRANCH   1  18
ATOM     18  S   UNL     1       0.108  -5.139   3.935  0.00  0.00    -0.141 S 
BRANCH  18  19
ATOM     19  C   UNL     1       0.090  -3.432   4.547  0.00  0.00    +0.144 C 
BRANCH  19  30
ATOM     20  C   UNL     1      -0.018   1.503   0.010  0.00  0.00    +0.045 C 
ATOM     21  C   UNL     1       0.002  -0.004   0.002  0.00  0.00    -0.026 A 
ATOM     22  C   UNL     1       0.006  -0.677  -1.160  0.00  0.00    -0.008 A 
ATOM     23  S   UNL     1       0.032  -2.385  -0.648  0.00  0.00    -0.073 S 
ATOM     24  C   UNL     1       0.037  -2.144   1.110  0.00  0.00    +0.116 A 
ATOM     25  C   UNL     1       0.024  -0.745   1.250  0.00  0.00    +0.075 A 
ATOM     26  C   UNL     1       0.029  -0.257   2.597  0.00  0.00    +0.260 A 
ATOM     27  O   UNL     1       0.014   0.942   2.821  0.00  0.00    -0.267 OA
ATOM     28  N   UNL     1       0.051  -1.142   3.611  0.00  0.00    -0.310 N 
ATOM     29  H   UNL     1       0.054  -0.817   4.525  0.00  0.00    +0.170 HD
ATOM     30  C   UNL     1       0.067  -2.480   3.380  0.00  0.00    +0.121 A 
ATOM     31  N   UNL     1       0.053  -2.956   2.163  0.00  0.00    -0.226 NA
ATOM     32  C   UNL     1      -0.009  -0.122  -2.561  0.00  0.00    +0.052 C 
ENDBRANCH  19  30
ENDBRANCH  18  19
ENDBRANCH   1  18
TORSDOF 5
