REMARK  Name = ZINC14967896
REMARK  12 active torsions:
REMARK  status: ('A' for Active; 'I' for Inactive)
REMARK    1  A    between atoms: C_1  and  C_2
REMARK    2  A    between atoms: C_2  and  C_3
REMARK    3  A    between atoms: C_3  and  C_5
REMARK    4  A    between atoms: C_3  and  C_6
REMARK    5  A    between atoms: C_6  and  N_65
REMARK    6  A    between atoms: C_9  and  C_12
REMARK    7  A    between atoms: C_12  and  C_14
REMARK    8  A    between atoms: C_12  and  N_22
REMARK    9  A    between atoms: C_14  and  C_15
REMARK   10  A    between atoms: N_22  and  C_23
REMARK   11  A    between atoms: C_24  and  C_26
REMARK   12  A    between atoms: C_30  and  C_31
REMARK                            x       y       z     vdW  Elec       q    Type
REMARK                         _______ _______ _______ _____ _____    ______ ____
ROOT
ATOM      1  C   UNL     1      -4.189  -0.203  -0.756  0.00  0.00    +0.083 C 
ENDROOT
BRANCH   1   4
ATOM      2  C   UNL     1      -5.496  -1.322   2.687  0.00  0.00    -0.078 C 
ATOM      3  C   UNL     1      -4.777  -0.443   1.662  0.00  0.00    -0.013 C 
ATOM      4  C   UNL     1      -4.854  -1.106   0.284  0.00  0.00    +0.006 C 
ATOM      5  C   UNL     1      -6.324  -1.320  -0.088  0.00  0.00    -0.013 C 
ATOM      6  C   UNL     1      -6.999  -2.174   0.988  0.00  0.00    -0.078 C 
ATOM      7  N   UNL     1      -6.911  -1.469   2.284  0.00  0.00    +0.380 N 
ATOM      8  H   UNL     1      -7.328  -0.536   2.185  0.00  0.00    -0.082 HD
BRANCH   7   9
ATOM      9  C   UNL     1      -7.655  -2.219   3.317  0.00  0.00    -0.076 C 
BRANCH   9  10
ATOM     10  C   UNL     1      -9.081  -2.468   2.823  0.00  0.00    -0.031 C 
ATOM     11  C   UNL     1      -9.848  -3.282   3.867  0.00  0.00    +0.005 C 
BRANCH  10  13
ATOM     12  C   UNL     1     -11.167  -1.373   1.991  0.00  0.00    +0.004 C 
ATOM     13  C   UNL     1      -9.786  -1.128   2.603  0.00  0.00    -0.002 C 
ENDBRANCH  10  13
ENDBRANCH   9  10
ENDBRANCH   7   9
ENDBRANCH   1   4
BRANCH   1  14
ATOM     14  N   UNL     1      -2.785   0.007  -0.395  0.00  0.00    -0.297 N 
ATOM     15  C   UNL     1      -1.877  -1.138  -0.288  0.00  0.00    +0.132 C 
ATOM     16  C   UNL     1      -2.329   1.253  -0.161  0.00  0.00    +0.250 C 
ATOM     17  O   UNL     1      -3.100   2.193  -0.160  0.00  0.00    -0.270 OA
BRANCH  16  18
ATOM     18  C   UNL     1      -0.895   1.477   0.095  0.00  0.00    +0.077 A 
ATOM     19  C   UNL     1       0.018   0.611   0.857  0.00  0.00    +0.054 A 
ATOM     20  C   UNL     1       1.216   1.213   0.816  0.00  0.00    +0.196 A 
ATOM     21  O   UNL     1       1.113   2.352   0.114  0.00  0.00    -0.467 OA
ATOM     22  C   UNL     1      -0.137   2.532  -0.322  0.00  0.00    +0.114 A 
ATOM     23  C   UNL     1      -0.625   3.697  -1.143  0.00  0.00    +0.087 C 
ENDBRANCH  16  18
ENDBRANCH   1  14
BRANCH   1  24
ATOM     24  C   UNL     1      -4.268  -0.867  -2.133  0.00  0.00    +0.060 C 
BRANCH  24  25
ATOM     25  C   UNL     1      -3.724   0.075  -3.176  0.00  0.00    -0.010 A 
ATOM     26  C   UNL     1      -4.585   0.887  -3.890  0.00  0.00    +0.006 A 
ATOM     27  C   UNL     1      -4.085   1.755  -4.844  0.00  0.00    +0.000 A 
ATOM     28  C   UNL     1      -2.726   1.803  -5.092  0.00  0.00    +0.003 A 
ATOM     29  C   UNL     1      -1.864   0.988  -4.383  0.00  0.00    +0.038 A 
ATOM     30  C   UNL     1      -2.363   0.122  -3.424  0.00  0.00    +0.127 A 
ATOM     31  F   UNL     1      -1.521  -0.675  -2.731  0.00  0.00    -0.205 F 
ENDBRANCH  24  25
ENDBRANCH   1  24
TORSDOF 8
