REMARK  Name = ZINC34692447
REMARK  12 active torsions:
REMARK  status: ('A' for Active; 'I' for Inactive)
REMARK    1  A    between atoms: C_1  and  C_2
REMARK    2  A    between atoms: C_2  and  C_4
REMARK    3  A    between atoms: C_2  and  O_14
REMARK    4  A    between atoms: N_6  and  C_7
REMARK    5  A    between atoms: C_7  and  C_8
REMARK    6  A    between atoms: C_8  and  N_9
REMARK    7  A    between atoms: O_14  and  C_15
REMARK    8  A    between atoms: C_21  and  C_32
REMARK    9  A    between atoms: C_26  and  C_28
REMARK   10  A    between atoms: C_28  and  C_29
REMARK   11  A    between atoms: C_28  and  C_30
REMARK   12  A    between atoms: C_28  and  C_31
REMARK                            x       y       z     vdW  Elec       q    Type
REMARK                         _______ _______ _______ _____ _____    ______ ____
ROOT
ATOM      1  C   UNL     1      -1.819   0.497   2.995  0.00  0.00    +0.122 A 
ATOM      2  C   UNL     1      -3.124   0.452   3.466  0.00  0.00    +0.046 A 
ATOM      3  C   UNL     1      -3.386  -0.099   4.701  0.00  0.00    +0.007 A 
ATOM      4  C   UNL     1      -2.357  -0.614   5.481  0.00  0.00    -0.040 A 
ATOM      5  C   UNL     1      -1.064  -0.579   5.010  0.00  0.00    -0.016 A 
ATOM      6  C   UNL     1      -0.795  -0.023   3.768  0.00  0.00    +0.051 A 
ATOM      7  C   UNL     1       0.095  -1.145   5.792  0.00  0.00    +0.137 C 
ATOM      8  N   UNL     1      -0.333  -1.445   7.162  0.00  0.00    -0.290 N 
ATOM      9  C   UNL     1      -1.628  -2.124   7.333  0.00  0.00    +0.113 C 
ATOM     10  C   UNL     1      -2.721  -1.185   6.826  0.00  0.00    +0.054 C 
ATOM     11  C   UNL     1       0.429  -1.111   8.223  0.00  0.00    +0.222 C 
ATOM     12  O   UNL     1       1.526  -0.624   8.052  0.00  0.00    -0.275 OA
ENDROOT
BRANCH   7  13
ATOM     13  C   UNL     1       1.217  -0.140   5.826  0.00  0.00    -0.022 A 
ATOM     14  C   UNL     1       1.081   1.021   6.564  0.00  0.00    +0.008 A 
ATOM     15  C   UNL     1       2.110   1.944   6.597  0.00  0.00    +0.038 A 
ATOM     16  C   UNL     1       3.276   1.706   5.889  0.00  0.00    +0.123 A 
ATOM     17  C   UNL     1       3.410   0.543   5.150  0.00  0.00    +0.038 A 
ATOM     18  C   UNL     1       2.383  -0.381   5.123  0.00  0.00    +0.008 A 
ATOM     19  F   UNL     1       4.281   2.608   5.919  0.00  0.00    -0.205 F 
ENDBRANCH   7  13
BRANCH  11  20
ATOM     20  C   UNL     1      -0.082  -1.345   9.621  0.00  0.00    +0.039 C 
ATOM     21  C   UNL     1       0.914  -0.771  10.631  0.00  0.00    +0.020 C 
ATOM     22  C   UNL     1      -1.437  -0.655   9.791  0.00  0.00    +0.020 C 
ATOM     23  C   UNL     1      -0.242  -2.848   9.861  0.00  0.00    +0.020 C 
ENDBRANCH  11  20
BRANCH   1  24
ATOM     24  O   UNL     1      -1.550   1.042   1.780  0.00  0.00    -0.480 OA
BRANCH  24  26
ATOM     25  C   UNL     1      -2.903   3.028   1.522  0.00  0.00    +0.062 C 
ATOM     26  C   UNL     1      -2.652   1.593   1.056  0.00  0.00    +0.255 C 
BRANCH  26  27
ATOM     27  C   UNL     1      -2.337   1.591  -0.417  0.00  0.00    +0.253 C 
ATOM     28  O   UNL     1      -1.241   1.246  -0.803  0.00  0.00    -0.272 OA
ATOM     29  N   UNL     1      -3.275   1.972  -1.307  0.00  0.00    -0.314 N 
ATOM     30  H   UNL     1      -4.152   2.248  -0.999  0.00  0.00    +0.149 HD
BRANCH  29  31
ATOM     31  C   UNL     1      -2.969   1.971  -2.740  0.00  0.00    +0.086 C 
BRANCH  31  32
ATOM     32  C   UNL     1      -4.195   2.443  -3.524  0.00  0.00    -0.060 C 
BRANCH  32  33
ATOM     33  N   UNL     1      -3.888   2.441  -4.960  0.00  0.00    +0.381 N 
ATOM     34  C   UNL     1      -3.728   1.047  -5.448  0.00  0.00    -0.079 C 
ATOM     35  C   UNL     1      -3.979   1.174  -6.972  0.00  0.00    -0.020 C 
ATOM     36  C   UNL     1      -5.106   2.229  -7.050  0.00  0.00    -0.020 C 
ATOM     37  C   UNL     1      -5.021   3.008  -5.725  0.00  0.00    -0.079 C 
ATOM     38  H   UNL     1      -3.049   2.971  -5.138  0.00  0.00    -0.082 HD
ENDBRANCH  32  33
ENDBRANCH  31  32
ENDBRANCH  29  31
ENDBRANCH  26  27
ENDBRANCH  24  26
ENDBRANCH   1  24
TORSDOF 8
