REMARK  Name = ZINC11909786
REMARK  10 active torsions:
REMARK  status: ('A' for Active; 'I' for Inactive)
REMARK    1  A    between atoms: C_1  and  C_2
REMARK    2  A    between atoms: C_2  and  C_3
REMARK    3  A    between atoms: C_3  and  C_4
REMARK    4  A    between atoms: C_12  and  S_18
REMARK    5  A    between atoms: C_13  and  C_14
REMARK    6  A    between atoms: C_14  and  O_16
REMARK    7  A    between atoms: O_16  and  C_17
REMARK    8  A    between atoms: S_18  and  N_21
REMARK    9  A    between atoms: N_21  and  C_22
REMARK   10  A    between atoms: C_22  and  C_23
REMARK                            x       y       z     vdW  Elec       q    Type
REMARK                         _______ _______ _______ _____ _____    ______ ____
ROOT
ATOM      1  C   UNL     1      -4.733   9.821  -0.526  0.00  0.00    +0.216 C 
ATOM      2  O   UNL     1      -4.952  11.004  -0.372  0.00  0.00    -0.276 OA
ATOM      3  N   UNL     1      -3.477   9.394  -0.766  0.00  0.00    -0.296 N 
ATOM      4  C   UNL     1      -2.353  10.339  -0.847  0.00  0.00    +0.113 C 
ATOM      5  C   UNL     1      -1.370  10.066   0.294  0.00  0.00    +0.056 C 
ATOM      6  C   UNL     1      -1.081   8.572   0.360  0.00  0.00    -0.018 A 
ATOM      7  C   UNL     1      -1.914   7.670  -0.208  0.00  0.00    +0.013 A 
ATOM      8  S   UNL     1      -1.173   6.099   0.129  0.00  0.00    -0.071 S 
ATOM      9  C   UNL     1       0.221   6.633   1.009  0.00  0.00    +0.157 A 
ATOM     10  C   UNL     1       0.077   8.004   1.025  0.00  0.00    +0.096 A 
ATOM     11  C   UNL     1      -3.179   7.961  -0.957  0.00  0.00    +0.150 C 
ENDROOT
BRANCH   9  12
ATOM     12  S   UNL     1       1.506   5.659   1.718  0.00  0.00    +0.066 S 
ATOM     13  O   UNL     1       1.406   5.817   3.127  0.00  0.00    -0.153 OA
ATOM     14  O   UNL     1       2.693   5.967   1.000  0.00  0.00    -0.153 OA
BRANCH  12  15
ATOM     15  N   UNL     1       1.155   4.073   1.394  0.00  0.00    -0.185 NA
ATOM     16  H   UNL     1       0.953   3.463   2.121  0.00  0.00    +0.148 HD
BRANCH  15  17
ATOM     17  C   UNL     1       1.149   3.593   0.010  0.00  0.00    +0.141 C 
BRANCH  17  18
ATOM     18  C   UNL     1       1.171   2.086   0.002  0.00  0.00    -0.032 A 
ATOM     19  C   UNL     1      -0.017   1.378   0.010  0.00  0.00    +0.008 A 
ATOM     20  C   UNL     1       0.002  -0.004   0.002  0.00  0.00    +0.038 A 
ATOM     21  C   UNL     1       1.211  -0.679  -0.013  0.00  0.00    +0.123 A 
ATOM     22  C   UNL     1       2.399   0.031  -0.021  0.00  0.00    +0.038 A 
ATOM     23  C   UNL     1       2.378   1.413  -0.013  0.00  0.00    +0.008 A 
ATOM     24  F   UNL     1       1.230  -2.030  -0.020  0.00  0.00    -0.205 F 
ENDBRANCH  17  18
ENDBRANCH  15  17
ENDBRANCH  12  15
ENDBRANCH   9  12
BRANCH  10  25
ATOM     25  C   UNL     1       1.067   8.862   1.692  0.00  0.00    +0.342 C 
ATOM     26  O   UNL     1       2.022   9.286   1.069  0.00  0.00    -0.245 OA
BRANCH  25  27
ATOM     27  O   UNL     1       0.916   9.181   2.993  0.00  0.00    -0.464 OA
ATOM     28  C   UNL     1       1.932  10.032   3.585  0.00  0.00    +0.280 C 
ENDBRANCH  25  27
ENDBRANCH  10  25
BRANCH   1  29
ATOM     29  C   UNL     1      -5.864   8.829  -0.449  0.00  0.00    +0.096 C 
BRANCH  29  31
ATOM     30  C   UNL     1      -8.323   8.561  -0.092  0.00  0.00    +0.004 C 
ATOM     31  C   UNL     1      -7.174   9.569  -0.170  0.00  0.00    +0.006 C 
ENDBRANCH  29  31
ENDBRANCH   1  29
TORSDOF 8
