REMARK  Name = ZINC20479178
REMARK  6 active torsions:
REMARK  status: ('A' for Active; 'I' for Inactive)
REMARK    1  A    between atoms: C_6  and  N_7
REMARK    2  A    between atoms: C_8  and  N_31
REMARK    3  A    between atoms: C_13  and  S_14
REMARK    4  A    between atoms: S_14  and  C_15
REMARK    5  A    between atoms: C_15  and  C_16
REMARK    6  A    between atoms: N_21  and  C_24
REMARK                            x       y       z     vdW  Elec       q    Type
REMARK                         _______ _______ _______ _____ _____    ______ ____
ROOT
ATOM      1  N   UNL     1      -1.209  -0.821   0.427  0.00  0.00    -0.277 N 
ATOM      2  C   UNL     1      -1.192  -2.174   0.199  0.00  0.00    +0.108 A 
ATOM      3  C   UNL     1      -2.376  -2.841   0.077  0.00  0.00    +0.114 A 
ATOM      4  C   UNL     1      -3.580  -2.117   0.190  0.00  0.00    +0.276 A 
ATOM      5  O   UNL     1      -4.654  -2.693   0.085  0.00  0.00    -0.266 OA
ATOM      6  N   UNL     1      -3.545  -0.794   0.414  0.00  0.00    -0.185 NA
ATOM      7  C   UNL     1      -2.398  -0.159   0.536  0.00  0.00    +0.179 A 
ENDROOT
BRANCH   1  13
ATOM      8  C   UNL     1       0.585   0.031   1.804  0.00  0.00    +0.028 A 
ATOM      9  C   UNL     1       1.773   0.724   1.928  0.00  0.00    +0.022 A 
ATOM     10  C   UNL     1       2.377   1.270   0.809  0.00  0.00    +0.041 A 
ATOM     11  C   UNL     1       1.792   1.123  -0.436  0.00  0.00    +0.022 A 
ATOM     12  C   UNL     1       0.604   0.431  -0.566  0.00  0.00    +0.028 A 
ATOM     13  C   UNL     1      -0.004  -0.118   0.556  0.00  0.00    +0.050 A 
ATOM     14 CL   UNL     1       3.870   2.140   0.968  0.00  0.00    -0.084 Cl
ENDBRANCH   1  13
BRANCH   2  15
ATOM     15  N   UNL     1       0.003  -2.848   0.093  0.00  0.00    -0.344 N 
ATOM     16  H   UNL     1       0.839  -2.357   0.099  0.00  0.00    +0.144 HD
ATOM     17  H   UNL     1       0.009  -3.815   0.013  0.00  0.00    +0.144 HD
ENDBRANCH   2  15
BRANCH   7  18
ATOM     18  S   UNL     1      -2.398   1.577   0.836  0.00  0.00    -0.078 S 
BRANCH  18  19
ATOM     19  C   UNL     1      -4.158   2.011   0.902  0.00  0.00    +0.173 C 
BRANCH  19  20
ATOM     20  C   UNL     1      -4.302   3.489   1.158  0.00  0.00    +0.226 C 
ATOM     21  O   UNL     1      -3.314   4.182   1.283  0.00  0.00    -0.275 OA
ATOM     22  N   UNL     1      -5.528   4.042   1.247  0.00  0.00    -0.298 N 
ATOM     23  C   UNL     1      -6.733   3.214   1.104  0.00  0.00    +0.126 C 
ATOM     24  C   UNL     1      -7.613   3.409   2.345  0.00  0.00    +0.124 C 
ATOM     25  N   UNL     1      -7.768   4.851   2.588  0.00  0.00    -0.327 N 
ATOM     26  C   UNL     1      -6.562   5.678   2.731  0.00  0.00    +0.124 C 
ATOM     27  C   UNL     1      -5.683   5.482   1.495  0.00  0.00    +0.126 C 
BRANCH  25  28
ATOM     28  C   UNL     1      -9.040   5.424   2.680  0.00  0.00    +0.030 A 
ATOM     29  C   UNL     1      -9.174   6.790   2.892  0.00  0.00    +0.026 A 
ATOM     30  C   UNL     1     -10.431   7.354   2.983  0.00  0.00    +0.040 A 
ATOM     31  C   UNL     1     -11.558   6.558   2.863  0.00  0.00    +0.124 A 
ATOM     32  C   UNL     1     -11.427   5.196   2.652  0.00  0.00    +0.040 A 
ATOM     33  C   UNL     1     -10.172   4.628   2.555  0.00  0.00    +0.026 A 
ATOM     34  F   UNL     1     -12.787   7.112   2.953  0.00  0.00    -0.205 F 
ENDBRANCH  25  28
ENDBRANCH  19  20
ENDBRANCH  18  19
ENDBRANCH   7  18
TORSDOF 6
