REMARK  Name = ZINC56945868
REMARK  11 active torsions:
REMARK  status: ('A' for Active; 'I' for Inactive)
REMARK    1  A    between atoms: C_1  and  C_2
REMARK    2  A    between atoms: C_5  and  C_32
REMARK    3  A    between atoms: N_8  and  C_10
REMARK    4  A    between atoms: C_10  and  C_11
REMARK    5  A    between atoms: C_11  and  C_13
REMARK    6  A    between atoms: C_11  and  N_14
REMARK    7  A    between atoms: N_17  and  N_18
REMARK    8  A    between atoms: C_19  and  C_21
REMARK    9  A    between atoms: C_21  and  C_23
REMARK   10  A    between atoms: C_21  and  O_24
REMARK   11  A    between atoms: O_24  and  C_25
REMARK                            x       y       z     vdW  Elec       q    Type
REMARK                         _______ _______ _______ _____ _____    ______ ____
ROOT
ATOM      1  N   UNL     1       1.838   1.666   3.231  0.00  0.00    -0.297 N 
ATOM      2  C   UNL     1       0.810   2.406   3.692  0.00  0.00    +0.316 C 
ATOM      3  O   UNL     1      -0.131   1.866   4.240  0.00  0.00    -0.251 OA
ATOM      4  N   UNL     1       0.825   3.746   3.543  0.00  0.00    -0.218 N 
ATOM      5  H   UNL     1       2.588   2.097   2.793  0.00  0.00    +0.150 HD
ATOM      6  H   UNL     1       0.085   4.279   3.875  0.00  0.00    +0.174 HD
ENDROOT
BRANCH   4   7
ATOM      7  N   UNL     1       1.909   4.369   2.911  0.00  0.00    -0.230 N 
ATOM      8  C   UNL     1       1.924   5.708   2.763  0.00  0.00    +0.270 C 
ATOM      9  O   UNL     1       0.999   6.374   3.177  0.00  0.00    -0.270 OA
ATOM     10  H   UNL     1       2.649   3.836   2.580  0.00  0.00    +0.173 HD
BRANCH   8  11
ATOM     11  C   UNL     1       3.090   6.378   2.082  0.00  0.00    +0.257 C 
ATOM     12  C   UNL     1       3.145   5.941   0.617  0.00  0.00    +0.062 C 
BRANCH  11  13
ATOM     13  O   UNL     1       2.930   7.796   2.150  0.00  0.00    -0.477 OA
BRANCH  13  14
ATOM     14  C   UNL     1       4.060   8.549   2.076  0.00  0.00    +0.157 A 
ATOM     15  C   UNL     1       5.283   7.944   1.829  0.00  0.00    +0.048 A 
ATOM     16  C   UNL     1       6.430   8.710   1.754  0.00  0.00    +0.004 A 
ATOM     17  C   UNL     1       6.361  10.081   1.926  0.00  0.00    +0.003 A 
ATOM     18  C   UNL     1       5.144  10.688   2.174  0.00  0.00    +0.042 A 
ATOM     19  C   UNL     1       3.991   9.926   2.243  0.00  0.00    +0.165 A 
ATOM     20  F   UNL     1       2.801  10.520   2.478  0.00  0.00    -0.202 F 
ENDBRANCH  13  14
ENDBRANCH  11  13
ENDBRANCH   8  11
ENDBRANCH   4   7
BRANCH   1  21
ATOM     21  C   UNL     1       1.822   0.210   3.392  0.00  0.00    +0.055 C 
ATOM     22  C   UNL     1       2.368  -0.157   4.774  0.00  0.00    +0.026 C 
BRANCH  21  23
ATOM     23  C   UNL     1       2.694  -0.432   2.312  0.00  0.00    -0.057 C 
BRANCH  23  29
ATOM     24  C   UNL     1       0.366   1.583  -0.573  0.00  0.00    +0.005 C 
ATOM     25  C   UNL     1       0.377   0.053  -0.600  0.00  0.00    -0.031 C 
ATOM     26  C   UNL     1       1.305  -0.432  -1.716  0.00  0.00    +0.003 C 
ATOM     27  C   UNL     1       2.735   0.025  -1.413  0.00  0.00    -0.031 C 
ATOM     28  C   UNL     1       3.153  -0.505  -0.040  0.00  0.00    -0.076 C 
ATOM     29  N   UNL     1       2.243   0.015   0.988  0.00  0.00    +0.381 N 
ATOM     30  C   UNL     1       0.881  -0.478   0.744  0.00  0.00    -0.076 C 
ATOM     31  C   UNL     1       3.684  -0.520  -2.482  0.00  0.00    +0.005 C 
ATOM     32  H   UNL     1       2.245   1.024   0.957  0.00  0.00    -0.082 HD
ENDBRANCH  23  29
ENDBRANCH  21  23
ENDBRANCH   1  21
TORSDOF 7
