REMARK  Name = ZINC14651156
REMARK  11 active torsions:
REMARK  status: ('A' for Active; 'I' for Inactive)
REMARK    1  A    between atoms: C_1  and  C_2
REMARK    2  A    between atoms: C_2  and  N_3
REMARK    3  A    between atoms: N_3  and  C_4
REMARK    4  A    between atoms: N_3  and  C_6
REMARK    5  A    between atoms: C_4  and  C_5
REMARK    6  A    between atoms: C_6  and  C_7
REMARK    7  A    between atoms: C_7  and  N_8
REMARK    8  A    between atoms: N_17  and  C_18
REMARK    9  A    between atoms: C_18  and  C_20
REMARK   10  A    between atoms: C_23  and  O_26
REMARK   11  A    between atoms: O_26  and  C_27
REMARK                            x       y       z     vdW  Elec       q    Type
REMARK                         _______ _______ _______ _____ _____    ______ ____
ROOT
ATOM      1  N   UNL     1      -0.608  -3.777   2.104  0.00  0.00    -0.314 N 
ATOM      2  C   UNL     1      -1.569  -4.483   2.821  0.00  0.00    +0.068 A 
ATOM      3  C   UNL     1      -2.763  -4.112   3.423  0.00  0.00    +0.028 A 
ATOM      4  C   UNL     1      -3.524  -5.057   4.081  0.00  0.00    +0.002 A 
ATOM      5  C   UNL     1      -3.101  -6.374   4.143  0.00  0.00    +0.002 A 
ATOM      6  C   UNL     1      -1.915  -6.753   3.548  0.00  0.00    +0.028 A 
ATOM      7  C   UNL     1      -1.142  -5.811   2.884  0.00  0.00    +0.066 A 
ATOM      8  N   UNL     1       0.069  -5.886   2.204  0.00  0.00    -0.326 N 
ATOM      9  C   UNL     1       0.371  -4.645   1.734  0.00  0.00    +0.201 A 
ATOM     10  N   UNL     1       1.453  -4.331   1.031  0.00  0.00    -0.142 NA
ATOM     11  H   UNL     1       0.604  -6.685   2.082  0.00  0.00    +0.169 HD
ENDROOT
BRANCH  10  12
ATOM     12  C   UNL     1       2.289  -5.293   0.624  0.00  0.00    +0.270 C 
ATOM     13  O   UNL     1       2.011  -6.464   0.817  0.00  0.00    -0.268 OA
BRANCH  12  14
ATOM     14  C   UNL     1       3.551  -4.936  -0.060  0.00  0.00    +0.039 A 
ATOM     15  C   UNL     1       3.873  -3.595  -0.278  0.00  0.00    +0.017 A 
ATOM     16  C   UNL     1       5.050  -3.266  -0.915  0.00  0.00    +0.046 A 
ATOM     17  C   UNL     1       5.914  -4.267  -1.342  0.00  0.00    +0.127 A 
ATOM     18  C   UNL     1       5.596  -5.602  -1.127  0.00  0.00    +0.046 A 
ATOM     19  C   UNL     1       4.424  -5.939  -0.486  0.00  0.00    +0.017 A 
BRANCH  17  20
ATOM     20  O   UNL     1       7.072  -3.939  -1.970  0.00  0.00    -0.434 OA
BRANCH  20  21
ATOM     21  C   UNL     1       7.914  -5.017  -2.383  0.00  0.00    +0.541 C 
ATOM     22  F   UNL     1       8.293  -5.767  -1.264  0.00  0.00    -0.166 F 
ATOM     23  F   UNL     1       7.218  -5.836  -3.279  0.00  0.00    -0.166 F 
ENDBRANCH  20  21
ENDBRANCH  17  20
ENDBRANCH  12  14
ENDBRANCH  10  12
BRANCH   1  24
ATOM     24  C   UNL     1      -0.648  -2.345   1.794  0.00  0.00    +0.106 C 
BRANCH  24  25
ATOM     25  C   UNL     1      -1.374  -2.131   0.464  0.00  0.00    -0.057 C 
BRANCH  25  26
ATOM     26  N   UNL     1      -1.414  -0.696   0.154  0.00  0.00    +0.380 N 
ATOM     27  H   UNL     1      -1.831  -0.197   0.925  0.00  0.00    -0.082 HD
BRANCH  26  29
ATOM     28  C   UNL     1      -0.075   1.315  -0.248  0.00  0.00    -0.017 C 
ATOM     29  C   UNL     1      -0.047  -0.204  -0.066  0.00  0.00    -0.082 C 
ENDBRANCH  26  29
BRANCH  26  30
ATOM     30  C   UNL     1      -2.213  -0.479  -1.060  0.00  0.00    -0.082 C 
ATOM     31  C   UNL     1      -3.670  -0.858  -0.785  0.00  0.00    -0.017 C 
ENDBRANCH  26  30
ENDBRANCH  25  26
ENDBRANCH  24  25
ENDBRANCH   1  24
TORSDOF 9
