REMARK  Name = ZINC08890172
REMARK  10 active torsions:
REMARK  status: ('A' for Active; 'I' for Inactive)
REMARK    1  A    between atoms: C_1  and  O_2
REMARK    2  A    between atoms: O_2  and  C_3
REMARK    3  A    between atoms: C_3  and  C_5
REMARK    4  A    between atoms: C_8  and  N_11
REMARK    5  A    between atoms: C_12  and  C_14
REMARK    6  A    between atoms: C_14  and  O_15
REMARK    7  A    between atoms: O_15  and  C_16
REMARK    8  A    between atoms: C_16  and  C_18
REMARK    9  A    between atoms: C_18  and  C_19
REMARK   10  A    between atoms: C_19  and  C_20
REMARK                            x       y       z     vdW  Elec       q    Type
REMARK                         _______ _______ _______ _____ _____    ______ ____
ROOT
ATOM      1  C   UNL     1       4.763   1.675   0.176  0.00  0.00    +0.308 C 
ATOM      2  O   UNL     1       5.007   0.494   0.259  0.00  0.00    -0.251 OA
ENDROOT
BRANCH   1   3
ATOM      3  O   UNL     1       3.490   2.093   0.094  0.00  0.00    -0.455 OA
BRANCH   3   4
ATOM      4  C   UNL     1       2.458   1.071   0.111  0.00  0.00    +0.328 C 
BRANCH   4   6
ATOM      5  N   UNL     1      -0.011   0.966   0.007  0.00  0.00    -0.283 N 
ATOM      6  C   UNL     1       1.103   1.724   0.010  0.00  0.00    +0.255 C 
ATOM      7  O   UNL     1       1.016   2.931  -0.068  0.00  0.00    -0.272 OA
ATOM      8  H   UNL     1       0.060  -0.002   0.003  0.00  0.00    +0.155 HD
BRANCH   5  12
ATOM      9  C   UNL     1      -3.762   2.778   0.001  0.00  0.00    +0.059 A 
ATOM     10  C   UNL     1      -3.562   1.582   0.697  0.00  0.00    +0.017 A 
ATOM     11  C   UNL     1      -2.322   0.986   0.697  0.00  0.00    +0.024 A 
ATOM     12  C   UNL     1      -1.266   1.572   0.005  0.00  0.00    +0.034 A 
ATOM     13  C   UNL     1      -1.460   2.765  -0.684  0.00  0.00    +0.024 A 
ATOM     14  C   UNL     1      -2.699   3.364  -0.693  0.00  0.00    +0.017 A 
BRANCH   9  15
ATOM     15  C   UNL     1      -5.090   3.419  -0.002  0.00  0.00    +0.339 C 
ATOM     16  O   UNL     1      -6.012   2.908   0.601  0.00  0.00    -0.245 OA
BRANCH  15  18
ATOM     17  C   UNL     1      -6.613   5.146  -0.633  0.00  0.00    +0.280 C 
ATOM     18  O   UNL     1      -5.280   4.572  -0.674  0.00  0.00    -0.464 OA
ENDBRANCH  15  18
ENDBRANCH   9  15
ENDBRANCH   5  12
ENDBRANCH   4   6
ENDBRANCH   3   4
ENDBRANCH   1   3
BRANCH   1  19
ATOM     19  C   UNL     1       5.887   2.678   0.164  0.00  0.00    +0.128 C 
BRANCH  19  20
ATOM     20  C   UNL     1       7.226   1.944   0.269  0.00  0.00    +0.085 C 
BRANCH  20  21
ATOM     21  C   UNL     1       8.351   2.947   0.257  0.00  0.00    +0.111 A 
ATOM     22  N   UNL     1       9.634   2.511   0.341  0.00  0.00    -0.310 N 
ATOM     23  H   UNL     1       9.809   1.559   0.407  0.00  0.00    +0.170 HD
ATOM     24  C   UNL     1      10.668   3.373   0.334  0.00  0.00    +0.260 A 
ATOM     25  O   UNL     1      11.815   2.965   0.410  0.00  0.00    -0.267 OA
ATOM     26  C   UNL     1      10.399   4.777   0.236  0.00  0.00    +0.075 A 
ATOM     27  C   UNL     1      11.353   5.885   0.211  0.00  0.00    -0.023 A 
ATOM     28  C   UNL     1      10.842   7.130   0.112  0.00  0.00    -0.004 A 
ATOM     29  S   UNL     1       9.085   6.902   0.046  0.00  0.00    -0.073 S 
ATOM     30  C   UNL     1       9.043   5.131   0.153  0.00  0.00    +0.116 A 
ATOM     31  N   UNL     1       8.074   4.220   0.162  0.00  0.00    -0.227 NA
ATOM     32  C   UNL     1      11.601   8.421   0.067  0.00  0.00    +0.043 C 
ATOM     33  C   UNL     1      13.042   8.152   0.524  0.00  0.00    +0.005 C 
ATOM     34  C   UNL     1      13.570   6.921  -0.217  0.00  0.00    +0.005 C 
ATOM     35  C   UNL     1      12.861   5.665   0.292  0.00  0.00    +0.037 C 
ENDBRANCH  20  21
ENDBRANCH  19  20
ENDBRANCH   1  19
TORSDOF 9
