REMARK  Name = ZINC06126879
REMARK  11 active torsions:
REMARK  status: ('A' for Active; 'I' for Inactive)
REMARK    1  A    between atoms: C_1  and  N_2
REMARK    2  A    between atoms: N_2  and  C_3
REMARK    3  A    between atoms: N_2  and  S_4
REMARK    4  A    between atoms: S_4  and  C_7
REMARK    5  A    between atoms: C_10  and  C_13
REMARK    6  A    between atoms: C_13  and  C_15
REMARK    7  A    between atoms: C_16  and  O_34
REMARK    8  A    between atoms: N_19  and  C_27
REMARK    9  A    between atoms: C_20  and  C_22
REMARK   10  A    between atoms: C_27  and  C_28
REMARK   11  A    between atoms: C_28  and  N_61
REMARK                            x       y       z     vdW  Elec       q    Type
REMARK                         _______ _______ _______ _____ _____    ______ ____
ROOT
ATOM      1  C   UNL     1       2.583  -3.162   0.013  0.00  0.00    +0.074 C 
ATOM      2  C   UNL     1       2.866  -4.478  -0.122  0.00  0.00    +0.188 C 
ATOM      3  C   UNL     1       4.323  -4.645  -0.313  0.00  0.00    +0.282 C 
ATOM      4  O   UNL     1       4.889  -5.708  -0.466  0.00  0.00    -0.267 OA
ATOM      5  N   UNL     1       4.929  -3.444  -0.286  0.00  0.00    -0.282 N 
ATOM      6  C   UNL     1       3.897  -2.421  -0.082  0.00  0.00    +0.180 C 
ENDROOT
BRANCH   6   7
ATOM      7  C   UNL     1       4.160  -1.668   1.197  0.00  0.00    +0.130 A 
ATOM      8  C   UNL     1       4.075  -0.335   1.356  0.00  0.00    +0.047 A 
ATOM      9  C   UNL     1       4.400  -0.062   2.705  0.00  0.00    +0.041 A 
ATOM     10  C   UNL     1       4.671  -1.244   3.287  0.00  0.00    +0.195 A 
ATOM     11  O   UNL     1       4.524  -2.213   2.369  0.00  0.00    -0.466 OA
ENDBRANCH   6   7
BRANCH   1  12
ATOM     12  C   UNL     1       1.258  -2.569   0.218  0.00  0.00    +0.195 C 
ATOM     13  O   UNL     1       0.647  -2.787   1.247  0.00  0.00    -0.287 OA
BRANCH  12  17
ATOM     14  C   UNL     1      -0.447  -0.090  -2.781  0.00  0.00    +0.105 A 
ATOM     15  C   UNL     1      -1.091  -0.243  -1.566  0.00  0.00    +0.029 A 
ATOM     16  C   UNL     1      -0.543  -1.047  -0.588  0.00  0.00    +0.013 A 
ATOM     17  C   UNL     1       0.664  -1.706  -0.826  0.00  0.00    +0.022 A 
ATOM     18  C   UNL     1       1.309  -1.547  -2.054  0.00  0.00    +0.013 A 
ATOM     19  C   UNL     1       0.750  -0.740  -3.024  0.00  0.00    +0.029 A 
BRANCH  14  20
ATOM     20  S   UNL     1      -1.154   0.939  -4.025  0.00  0.00    +0.060 S 
ATOM     21  O   UNL     1      -0.637   0.485  -5.269  0.00  0.00    -0.153 OA
ATOM     22  O   UNL     1      -2.548   1.001  -3.756  0.00  0.00    -0.153 OA
BRANCH  20  24
ATOM     23  C   UNL     1       0.678   2.880  -4.462  0.00  0.00    +0.131 C 
ATOM     24  N   UNL     1      -0.559   2.466  -3.794  0.00  0.00    -0.183 NA
ATOM     25  C   UNL     1      -1.268   3.405  -2.921  0.00  0.00    +0.131 C 
ENDBRANCH  20  24
ENDBRANCH  14  20
ENDBRANCH  12  17
ENDBRANCH   1  12
BRANCH   2  26
ATOM     26  O   UNL     1       1.960  -5.482  -0.091  0.00  0.00    -0.502 OA
ATOM     27  H   UNL     1       2.428  -6.357  -0.215  0.00  0.00    +0.292 HD
ENDBRANCH   2  26
BRANCH   5  28
ATOM     28  C   UNL     1       6.366  -3.200  -0.436  0.00  0.00    +0.091 C 
BRANCH  28  29
ATOM     29  C   UNL     1       7.035  -3.231   0.939  0.00  0.00    -0.059 C 
BRANCH  29  35
ATOM     30  C   UNL     1       9.124  -4.091   0.067  0.00  0.00    -0.050 C 
ATOM     31  C   UNL     1      10.609  -3.769  -0.119  0.00  0.00    +0.141 C 
ATOM     32  O   UNL     1      11.205  -3.534   1.159  0.00  0.00    -0.383 OA
ATOM     33  C   UNL     1      10.598  -2.465   1.890  0.00  0.00    +0.141 C 
ATOM     34  C   UNL     1       9.113  -2.774   2.096  0.00  0.00    -0.050 C 
ATOM     35  N   UNL     1       8.480  -2.965   0.775  0.00  0.00    +0.384 N 
ATOM     36  H   UNL     1       8.600  -2.109   0.220  0.00  0.00    -0.082 HD
ENDBRANCH  29  35
ENDBRANCH  28  29
ENDBRANCH   5  28
TORSDOF 9
