REMARK  Name = ZINC12177380
REMARK  12 active torsions:
REMARK  status: ('A' for Active; 'I' for Inactive)
REMARK    1  A    between atoms: C_1  and  C_2
REMARK    2  A    between atoms: C_5  and  C_8
REMARK    3  A    between atoms: C_10  and  C_18
REMARK    4  A    between atoms: C_12  and  C_17
REMARK    5  A    between atoms: C_18  and  O_20
REMARK    6  A    between atoms: O_20  and  C_21
REMARK    7  A    between atoms: C_21  and  C_22
REMARK    8  A    between atoms: C_22  and  C_24
REMARK    9  A    between atoms: C_25  and  C_34
REMARK   10  A    between atoms: C_26  and  C_31
REMARK   11  A    between atoms: C_27  and  C_30
REMARK   12  A    between atoms: C_31  and  C_33
REMARK                            x       y       z     vdW  Elec       q    Type
REMARK                         _______ _______ _______ _____ _____    ______ ____
ROOT
ATOM      1  C   UNL     1       0.937   1.593   1.581  0.00  0.00    +0.076 A 
ATOM      2  C   UNL     1       2.167   0.930   1.592  0.00  0.00    +0.044 A 
ATOM      3  C   UNL     1       2.366  -0.144   0.729  0.00  0.00    +0.075 A 
ATOM      4  C   UNL     1       1.303  -0.512  -0.122  0.00  0.00    +0.077 A 
ATOM      5  C   UNL     1       1.129  -1.551  -1.135  0.00  0.00    +0.091 A 
ATOM      6  N   UNL     1      -0.071  -1.429  -1.614  0.00  0.00    -0.080 NA
ATOM      7  O   UNL     1      -0.732  -0.354  -0.977  0.00  0.00    -0.334 OA
ATOM      8  C   UNL     1       0.096   0.206  -0.071  0.00  0.00    +0.260 A 
ATOM      9  N   UNL     1      -0.040   1.220   0.769  0.00  0.00    -0.210 NA
ATOM     10  C   UNL     1       2.155  -2.575  -1.549  0.00  0.00    +0.070 C 
ENDROOT
BRANCH   1  15
ATOM     11  C   UNL     1       0.098   6.037   5.144  0.00  0.00    +0.044 C 
ATOM     12  C   UNL     1       0.317   4.874   4.212  0.00  0.00    -0.050 A 
ATOM     13  C   UNL     1      -0.696   4.474   3.358  0.00  0.00    +0.004 A 
ATOM     14  C   UNL     1      -0.500   3.410   2.502  0.00  0.00    +0.010 A 
ATOM     15  C   UNL     1       0.721   2.737   2.499  0.00  0.00    +0.001 A 
ATOM     16  C   UNL     1       1.736   3.140   3.365  0.00  0.00    +0.010 A 
ATOM     17  C   UNL     1       1.531   4.210   4.213  0.00  0.00    +0.004 A 
ENDBRANCH   1  15
BRANCH   3  18
ATOM     18  C   UNL     1       3.652  -0.875   0.704  0.00  0.00    +0.340 C 
ATOM     19  O   UNL     1       3.662  -2.079   0.548  0.00  0.00    -0.245 OA
BRANCH  18  20
ATOM     20  O   UNL     1       4.810  -0.205   0.855  0.00  0.00    -0.453 OA
BRANCH  20  21
ATOM     21  C   UNL     1       6.033  -0.987   0.821  0.00  0.00    +0.313 C 
BRANCH  21  22
ATOM     22  C   UNL     1       7.218  -0.074   1.004  0.00  0.00    +0.217 C 
ATOM     23  O   UNL     1       7.049   1.119   1.150  0.00  0.00    -0.287 OA
BRANCH  22  24
ATOM     24  C   UNL     1       8.530  -0.609   1.007  0.00  0.00    +0.090 A 
ATOM     25  C   UNL     1       9.695   0.110   1.159  0.00  0.00    -0.012 A 
ATOM     26  C   UNL     1      10.758  -0.820   1.101  0.00  0.00    +0.041 A 
ATOM     27  C   UNL     1      10.195  -2.073   0.906  0.00  0.00    +0.024 A 
ATOM     28  N   UNL     1       8.863  -1.939   0.851  0.00  0.00    -0.355 N 
ATOM     29  H   UNL     1       8.231  -2.664   0.722  0.00  0.00    +0.166 HD
ATOM     30  C   UNL     1      10.954  -3.368   0.778  0.00  0.00    +0.064 C 
ATOM     31  C   UNL     1       9.813   1.599   1.353  0.00  0.00    +0.047 C 
BRANCH  26  32
ATOM     32  C   UNL     1      12.188  -0.517   1.218  0.00  0.00    +0.162 C 
ATOM     33  O   UNL     1      12.836  -0.253   0.227  0.00  0.00    -0.292 OA
ATOM     34  C   UNL     1      12.853  -0.532   2.570  0.00  0.00    +0.091 C 
ENDBRANCH  26  32
ENDBRANCH  22  24
ENDBRANCH  21  22
ENDBRANCH  20  21
ENDBRANCH  18  20
ENDBRANCH   3  18
TORSDOF 7
