REMARK  Name = ZINC36000344
REMARK  8 active torsions:
REMARK  status: ('A' for Active; 'I' for Inactive)
REMARK    1  A    between atoms: C_1  and  C_2
REMARK    2  A    between atoms: C_6  and  C_18
REMARK    3  A    between atoms: N_9  and  C_11
REMARK    4  A    between atoms: N_19  and  C_20
REMARK    5  A    between atoms: C_20  and  C_21
REMARK    6  A    between atoms: C_21  and  N_22
REMARK    7  A    between atoms: C_23  and  C_25
REMARK    8  A    between atoms: C_28  and  C_31
REMARK                            x       y       z     vdW  Elec       q    Type
REMARK                         _______ _______ _______ _____ _____    ______ ____
ROOT
ATOM      1  C   UNL     1      -0.035   1.502   0.012  0.00  0.00    +0.068 C 
ATOM      2  C   UNL     1      -0.012  -0.004   0.003  0.00  0.00    +0.073 A 
ATOM      3  C   UNL     1      -0.099  -0.824  -1.143  0.00  0.00    +0.082 A 
ATOM      4  C   UNL     1      -0.222  -0.584  -2.525  0.00  0.00    +0.133 A 
ATOM      5  N   UNL     1      -0.276  -1.628  -3.345  0.00  0.00    -0.217 NA
ATOM      6  C   UNL     1      -0.216  -2.865  -2.883  0.00  0.00    +0.130 A 
ATOM      7  N   UNL     1      -0.101  -3.138  -1.602  0.00  0.00    -0.213 NA
ATOM      8  C   UNL     1      -0.039  -2.160  -0.701  0.00  0.00    +0.169 A 
ATOM      9  N   UNL     1       0.079  -2.114   0.659  0.00  0.00    -0.212 N 
ATOM     10  N   UNL     1       0.097  -0.770   1.052  0.00  0.00    -0.169 NA
ATOM     11  C   UNL     1      -0.283  -4.007  -3.864  0.00  0.00    +0.088 C 
ATOM     12  N   UNL     1      -0.286   0.705  -3.017  0.00  0.00    -0.327 N 
ATOM     13  H   UNL     1      -0.168   1.459  -2.417  0.00  0.00    +0.148 HD
ENDROOT
BRANCH   9  14
ATOM     14  C   UNL     1       0.170  -3.221   1.514  0.00  0.00    +0.086 A 
ATOM     15  C   UNL     1       0.150  -4.507   0.991  0.00  0.00    +0.029 A 
ATOM     16  C   UNL     1       0.240  -5.596   1.835  0.00  0.00    +0.002 A 
ATOM     17  C   UNL     1       0.350  -5.407   3.201  0.00  0.00    +0.002 A 
ATOM     18  C   UNL     1       0.370  -4.128   3.726  0.00  0.00    +0.022 A 
ATOM     19  C   UNL     1       0.286  -3.034   2.885  0.00  0.00    +0.066 A 
ATOM     20 CL   UNL     1       0.320  -1.428   3.544  0.00  0.00    -0.081 Cl
ENDBRANCH   9  14
BRANCH  12  21
ATOM     21  C   UNL     1      -0.531   0.934  -4.443  0.00  0.00    +0.121 C 
BRANCH  21  22
ATOM     22  C   UNL     1      -0.554   2.439  -4.721  0.00  0.00    +0.123 C 
BRANCH  22  23
ATOM     23  N   UNL     1      -0.799   2.668  -6.147  0.00  0.00    -0.310 N 
ATOM     24  C   UNL     1      -0.861   3.926  -6.627  0.00  0.00    +0.244 C 
ATOM     25  O   UNL     1      -0.714   4.870  -5.876  0.00  0.00    -0.270 OA
ATOM     26  H   UNL     1      -0.916   1.914  -6.746  0.00  0.00    +0.149 HD
BRANCH  24  27
ATOM     27  C   UNL     1      -1.108   4.157  -8.066  0.00  0.00    +0.037 A 
ATOM     28  C   UNL     1      -1.284   3.075  -8.929  0.00  0.00    +0.013 A 
ATOM     29  C   UNL     1      -1.515   3.298 -10.271  0.00  0.00    +0.013 A 
ATOM     30  C   UNL     1      -1.572   4.590 -10.761  0.00  0.00    +0.055 A 
ATOM     31  C   UNL     1      -1.399   5.667  -9.910  0.00  0.00    +0.013 A 
ATOM     32  C   UNL     1      -1.173   5.459  -8.565  0.00  0.00    +0.013 A 
BRANCH  30  33
ATOM     33  C   UNL     1      -1.825   4.826 -12.228  0.00  0.00    +0.417 C 
ATOM     34  F   UNL     1      -3.201   4.927 -12.454  0.00  0.00    -0.166 F 
ATOM     35  F   UNL     1      -1.198   6.013 -12.624  0.00  0.00    -0.166 F 
ATOM     36  F   UNL     1      -1.308   3.757 -12.968  0.00  0.00    -0.166 F 
ENDBRANCH  30  33
ENDBRANCH  24  27
ENDBRANCH  22  23
ENDBRANCH  21  22
ENDBRANCH  12  21
TORSDOF 6
