REMARK  Name = ZINC63491315
REMARK  10 active torsions:
REMARK  status: ('A' for Active; 'I' for Inactive)
REMARK    1  A    between atoms: C_1  and  C_2
REMARK    2  A    between atoms: C_3  and  O_32
REMARK    3  A    between atoms: C_11  and  C_16
REMARK    4  A    between atoms: C_13  and  C_15
REMARK    5  A    between atoms: C_16  and  C_17
REMARK    6  A    between atoms: N_19  and  C_20
REMARK    7  A    between atoms: C_20  and  C_21
REMARK    8  A    between atoms: C_21  and  C_22
REMARK    9  A    between atoms: O_32  and  C_33
REMARK   10  A    between atoms: C_33  and  C_35
REMARK                            x       y       z     vdW  Elec       q    Type
REMARK                         _______ _______ _______ _____ _____    ______ ____
ROOT
ATOM      1  C   UNL     1      -1.989  -1.918   3.554  0.00  0.00    +0.111 C 
ENDROOT
BRANCH   1  12
ATOM      2  C   UNL     1      -0.115   1.519  -0.003  0.00  0.00    +0.051 C 
ATOM      3  C   UNL     1      -0.046   0.014   0.002  0.00  0.00    +0.034 A 
ATOM      4  C   UNL     1       0.004  -0.679  -1.197  0.00  0.00    +0.138 A 
ATOM      5  C   UNL     1       0.068  -2.065  -1.189  0.00  0.00    +0.047 A 
ATOM      6  C   UNL     1       0.086  -2.747   0.010  0.00  0.00    +0.011 A 
ATOM      7  C   UNL     1       0.038  -2.058   1.212  0.00  0.00    -0.001 A 
ATOM      8  C   UNL     1      -0.028  -0.676   1.208  0.00  0.00    +0.141 A 
ATOM      9  O   UNL     1      -0.092   0.042   2.363  0.00  0.00    -0.425 OA
ATOM     10  C   UNL     1       0.135  -0.614   3.518  0.00  0.00    +0.317 C 
ATOM     11  O   UNL     1       0.785  -0.121   4.409  0.00  0.00    -0.250 OA
ATOM     12  C   UNL     1      -0.464  -2.001   3.646  0.00  0.00    +0.114 C 
ATOM     13  C   UNL     1       0.070  -2.850   2.494  0.00  0.00    +0.034 C 
ATOM     14  C   UNL     1       1.513  -3.253   2.807  0.00  0.00    +0.013 C 
BRANCH   4  15
ATOM     15  O   UNL     1      -0.011  -0.003  -2.376  0.00  0.00    -0.426 OA
BRANCH  15  16
ATOM     16  C   UNL     1       1.147   0.510  -2.823  0.00  0.00    +0.309 C 
ATOM     17  O   UNL     1       2.177   0.280  -2.235  0.00  0.00    -0.251 OA
ATOM     18  C   UNL     1       1.162   1.373  -4.059  0.00  0.00    +0.136 C 
ENDBRANCH  15  16
ENDBRANCH   4  15
ENDBRANCH   1  12
BRANCH   1  19
ATOM     19  C   UNL     1      -2.522  -1.147   4.734  0.00  0.00    +0.214 C 
ATOM     20  O   UNL     1      -1.758  -0.707   5.567  0.00  0.00    -0.276 OA
ATOM     21  N   UNL     1      -3.849  -0.946   4.864  0.00  0.00    -0.315 N 
ATOM     22  H   UNL     1      -4.460  -1.298   4.199  0.00  0.00    +0.149 HD
BRANCH  21  23
ATOM     23  C   UNL     1      -4.367  -0.197   6.011  0.00  0.00    +0.108 C 
BRANCH  23  24
ATOM     24  C   UNL     1      -5.892  -0.114   5.919  0.00  0.00    +0.052 C 
BRANCH  24  25
ATOM     25  C   UNL     1      -6.425   0.657   7.099  0.00  0.00    -0.040 C 
ATOM     26  C   UNL     1      -6.723   1.976   7.142  0.00  0.00    +0.000 A 
ATOM     27  C   UNL     1      -6.641   3.046   6.141  0.00  0.00    +0.030 A 
ATOM     28  C   UNL     1      -7.017   4.299   6.487  0.00  0.00    +0.042 A 
ATOM     29  C   UNL     1      -7.483   4.599   7.776  0.00  0.00    +0.022 A 
ATOM     30  C   UNL     1      -7.586   3.668   8.749  0.00  0.00    +0.027 A 
ATOM     31  C   UNL     1      -7.217   2.318   8.495  0.00  0.00    +0.043 A 
ATOM     32  N   UNL     1      -7.226   1.253   9.258  0.00  0.00    -0.380 N 
ATOM     33  C   UNL     1      -6.743   0.111   8.474  0.00  0.00    +0.144 C 
ATOM     34 CL   UNL     1      -6.922   5.567   5.306  0.00  0.00    -0.084 Cl
ATOM     35  H   UNL     1      -7.508   1.224  10.186  0.00  0.00    +0.160 HD
ENDBRANCH  24  25
ENDBRANCH  23  24
ENDBRANCH  21  23
ENDBRANCH   1  19
TORSDOF 7
