REMARK  Name = ZINC39653468
REMARK  12 active torsions:
REMARK  status: ('A' for Active; 'I' for Inactive)
REMARK    1  A    between atoms: C_1  and  C_2
REMARK    2  A    between atoms: C_2  and  O_3
REMARK    3  A    between atoms: O_3  and  C_4
REMARK    4  A    between atoms: C_6  and  C_12
REMARK    5  A    between atoms: C_9  and  O_10
REMARK    6  A    between atoms: O_10  and  C_11
REMARK    7  A    between atoms: C_12  and  C_13
REMARK    8  A    between atoms: C_13  and  N_14
REMARK    9  A    between atoms: C_15  and  C_17
REMARK   10  A    between atoms: C_28  and  C_30
REMARK   11  A    between atoms: C_33  and  C_37
REMARK   12  A    between atoms: C_34  and  C_36
REMARK                            x       y       z     vdW  Elec       q    Type
REMARK                         _______ _______ _______ _____ _____    ______ ____
ROOT
ATOM      1  C   UNL     1       0.856  -7.717  -4.232  0.00  0.00    +0.100 C 
ATOM      2  C   UNL     1       0.304  -9.105  -3.837  0.00  0.00    +0.121 C 
ATOM      3  N   UNL     1       0.619  -9.976  -4.994  0.00  0.00    -0.296 N 
ATOM      4  C   UNL     1       1.970  -9.542  -5.425  0.00  0.00    +0.115 C 
ATOM      5  C   UNL     1       1.950  -8.008  -5.273  0.00  0.00    -0.004 C 
ATOM      6  C   UNL     1       3.303  -7.510  -4.772  0.00  0.00    -0.010 C 
ATOM      7  C   UNL     1       4.363  -7.759  -5.848  0.00  0.00    -0.082 C 
ATOM      8  N   UNL     1       3.987  -7.056  -7.081  0.00  0.00    +0.379 N 
ATOM      9  C   UNL     1       2.731  -7.605  -7.606  0.00  0.00    -0.082 C 
ATOM     10  C   UNL     1       1.601  -7.351  -6.605  0.00  0.00    -0.010 C 
ATOM     11  C   UNL     1      -0.149 -10.943  -5.533  0.00  0.00    +0.247 C 
ATOM     12  O   UNL     1      -1.292 -11.097  -5.149  0.00  0.00    -0.270 OA
ATOM     13  H   UNL     1       3.866  -6.074  -6.883  0.00  0.00    -0.086 HD
ATOM     14  H   UNL     1       4.716  -7.171  -7.768  0.00  0.00    -0.086 HD
ENDROOT
BRANCH  11  15
ATOM     15  C   UNL     1       0.399 -11.818  -6.592  0.00  0.00    +0.037 A 
ATOM     16  C   UNL     1       1.780 -11.956  -6.743  0.00  0.00    +0.013 A 
ATOM     17  C   UNL     1       2.285 -12.773  -7.732  0.00  0.00    +0.004 A 
ATOM     18  C   UNL     1       1.425 -13.456  -8.575  0.00  0.00    -0.047 A 
ATOM     19  C   UNL     1       0.056 -13.324  -8.431  0.00  0.00    -0.047 A 
ATOM     20  C   UNL     1      -0.462 -12.514  -7.441  0.00  0.00    +0.016 A 
ATOM     21  C   UNL     1      -0.873 -14.071  -9.353  0.00  0.00    +0.044 C 
ATOM     22  C   UNL     1       1.984 -14.347  -9.654  0.00  0.00    +0.044 C 
ENDBRANCH  11  15
BRANCH   1  24
ATOM     23  N   UNL     1       1.430  -5.680  -2.950  0.00  0.00    -0.315 N 
ATOM     24  C   UNL     1       1.447  -7.026  -3.030  0.00  0.00    +0.218 C 
ATOM     25  O   UNL     1       1.937  -7.680  -2.134  0.00  0.00    -0.275 OA
ATOM     26  H   UNL     1       1.038  -5.157  -3.666  0.00  0.00    +0.149 HD
BRANCH  23  27
ATOM     27  C   UNL     1       2.004  -5.009  -1.781  0.00  0.00    +0.109 C 
BRANCH  27  28
ATOM     28  C   UNL     1       1.857  -3.494  -1.940  0.00  0.00    +0.054 C 
BRANCH  28  31
ATOM     29  C   UNL     1       4.326  -1.806   0.368  0.00  0.00    +0.162 A 
ATOM     30  C   UNL     1       3.781  -2.441  -0.737  0.00  0.00    +0.053 A 
ATOM     31  C   UNL     1       2.447  -2.803  -0.738  0.00  0.00    -0.042 A 
ATOM     32  C   UNL     1       1.653  -2.533   0.361  0.00  0.00    +0.007 A 
ATOM     33  C   UNL     1       2.190  -1.899   1.466  0.00  0.00    +0.049 A 
ATOM     34  C   UNL     1       3.528  -1.539   1.476  0.00  0.00    +0.162 A 
BRANCH  34  35
ATOM     35  O   UNL     1       4.059  -0.920   2.565  0.00  0.00    -0.491 OA
ATOM     36  C   UNL     1       3.181  -0.678   3.666  0.00  0.00    +0.277 C 
ENDBRANCH  34  35
BRANCH  29  37
ATOM     37  O   UNL     1       5.638  -1.450   0.371  0.00  0.00    -0.489 OA
BRANCH  37  39
ATOM     38  C   UNL     1       7.839  -1.283  -0.614  0.00  0.00    +0.048 C 
ATOM     39  C   UNL     1       6.396  -1.755  -0.802  0.00  0.00    +0.226 C 
ENDBRANCH  37  39
ENDBRANCH  29  37
ENDBRANCH  28  31
ENDBRANCH  27  28
ENDBRANCH  23  27
ENDBRANCH   1  24
TORSDOF 8
