REMARK  Name = ZINC40905548
REMARK  7 active torsions:
REMARK  status: ('A' for Active; 'I' for Inactive)
REMARK    1  A    between atoms: C_3  and  C_7
REMARK    2  A    between atoms: C_7  and  C_8
REMARK    3  A    between atoms: C_8  and  N_9
REMARK    4  A    between atoms: C_10  and  C_12
REMARK    5  A    between atoms: N_15  and  C_18
REMARK    6  A    between atoms: C_21  and  C_25
REMARK    7  A    between atoms: C_27  and  C_30
REMARK                            x       y       z     vdW  Elec       q    Type
REMARK                         _______ _______ _______ _____ _____    ______ ____
ROOT
ATOM      1  C   UNL     1       7.393   3.983   2.561  0.00  0.00    +0.078 C 
ATOM      2  C   UNL     1       7.251   5.329   1.846  0.00  0.00    +0.031 C 
ATOM      3  C   UNL     1       8.614   6.028   1.808  0.00  0.00    +0.106 C 
ATOM      4  N   UNL     1       9.134   6.125   3.179  0.00  0.00    -0.328 N 
ATOM      5  C   UNL     1       9.227   4.902   3.987  0.00  0.00    +0.106 C 
ATOM      6  C   UNL     1       7.857   4.215   4.001  0.00  0.00    +0.031 C 
ENDROOT
BRANCH   4   7
ATOM      7  C   UNL     1       9.533   7.356   3.703  0.00  0.00    +0.065 A 
ATOM      8  C   UNL     1       8.617   8.152   4.379  0.00  0.00    +0.027 A 
ATOM      9  C   UNL     1       9.009   9.368   4.897  0.00  0.00    +0.013 A 
ATOM     10  C   UNL     1      10.326   9.800   4.743  0.00  0.00    +0.025 A 
ATOM     11  C   UNL     1      11.245   9.000   4.065  0.00  0.00    +0.052 A 
ATOM     12  C   UNL     1      10.851   7.781   3.552  0.00  0.00    +0.145 A 
ATOM     13  F   UNL     1      11.741   7.003   2.900  0.00  0.00    -0.204 F 
BRANCH  10  14
ATOM     14  C   UNL     1      10.748  11.108   5.299  0.00  0.00    +0.202 A 
ATOM     15  N   UNL     1      11.980  11.632   5.212  0.00  0.00    -0.187 NA
ATOM     16  C   UNL     1      12.012  12.804   5.811  0.00  0.00    +0.265 A 
ATOM     17  O   UNL     1      10.785  13.058   6.302  0.00  0.00    -0.332 OA
ATOM     18  N   UNL     1       9.977  11.944   5.953  0.00  0.00    -0.056 NA
BRANCH  16  19
ATOM     19  C   UNL     1      13.184  13.681   5.925  0.00  0.00    +0.077 A 
ATOM     20  C   UNL     1      13.293  14.916   6.541  0.00  0.00    +0.021 A 
ATOM     21  C   UNL     1      14.536  15.506   6.483  0.00  0.00    +0.008 A 
ATOM     22  C   UNL     1      15.541  14.860   5.845  0.00  0.00    +0.046 A 
ATOM     23  S   UNL     1      14.839  13.431   5.311  0.00  0.00    -0.092 S 
ENDBRANCH  16  19
ENDBRANCH  10  14
ENDBRANCH   4   7
BRANCH   1  25
ATOM     24  N   UNL     1       5.455   2.967   1.407  0.00  0.00    -0.315 N 
ATOM     25  C   UNL     1       6.062   3.277   2.570  0.00  0.00    +0.216 C 
ATOM     26  O   UNL     1       5.536   2.987   3.624  0.00  0.00    -0.276 OA
ATOM     27  H   UNL     1       5.875   3.199   0.564  0.00  0.00    +0.149 HD
BRANCH  24  28
ATOM     28  C   UNL     1       4.161   2.280   1.417  0.00  0.00    +0.109 C 
BRANCH  28  29
ATOM     29  C   UNL     1       3.696   2.049  -0.023  0.00  0.00    +0.055 C 
BRANCH  29  32
ATOM     30  C   UNL     1      -0.017   1.378   0.010  0.00  0.00    +0.020 A 
ATOM     31  C   UNL     1       1.185   2.070   0.002  0.00  0.00    +0.006 A 
ATOM     32  C   UNL     1       2.365   1.343  -0.013  0.00  0.00    -0.028 A 
ATOM     33  C   UNL     1       2.305  -0.038  -0.020  0.00  0.00    +0.114 A 
ATOM     34  N   UNL     1       1.144  -0.663  -0.013  0.00  0.00    -0.263 NA
ATOM     35  C   UNL     1       0.002  -0.004   0.002  0.00  0.00    +0.111 A 
ENDBRANCH  29  32
ENDBRANCH  28  29
ENDBRANCH  24  28
ENDBRANCH   1  25
TORSDOF 7
