REMARK  Name = ZINC36597611
REMARK  10 active torsions:
REMARK  status: ('A' for Active; 'I' for Inactive)
REMARK    1  A    between atoms: C_1  and  C_2
REMARK    2  A    between atoms: C_5  and  C_7
REMARK    3  A    between atoms: C_7  and  N_8
REMARK    4  A    between atoms: N_8  and  C_9
REMARK    5  A    between atoms: C_9  and  C_11
REMARK    6  A    between atoms: C_9  and  C_18
REMARK    7  A    between atoms: N_20  and  C_21
REMARK    8  A    between atoms: C_27  and  C_29
REMARK    9  A    between atoms: C_30  and  O_36
REMARK   10  A    between atoms: C_34  and  O_35
REMARK                            x       y       z     vdW  Elec       q    Type
REMARK                         _______ _______ _______ _____ _____    ______ ____
ROOT
ATOM      1  N   UNL     1       1.946  -3.479  -1.242  0.00  0.00    -0.274 N 
ATOM      2  C   UNL     1       0.994  -4.364  -1.597  0.00  0.00    +0.255 C 
ATOM      3  O   UNL     1       1.069  -4.942  -2.665  0.00  0.00    -0.270 OA
ENDROOT
BRANCH   2   4
ATOM      4  C   UNL     1      -0.137  -4.632  -0.693  0.00  0.00    +0.119 A 
ATOM      5  C   UNL     1      -1.313  -3.874  -0.790  0.00  0.00    +0.133 A 
ATOM      6  C   UNL     1      -2.371  -4.134   0.065  0.00  0.00    +0.046 A 
ATOM      7  C   UNL     1      -2.271  -5.137   1.011  0.00  0.00    +0.007 A 
ATOM      8  C   UNL     1      -1.116  -5.890   1.115  0.00  0.00    +0.046 A 
ATOM      9  C   UNL     1      -0.048  -5.650   0.267  0.00  0.00    +0.133 A 
BRANCH   9  10
ATOM     10  O   UNL     1       1.082  -6.395   0.367  0.00  0.00    -0.506 OA
ATOM     11  H   UNL     1       1.738  -6.033   0.978  0.00  0.00    +0.292 HD
ENDBRANCH   9  10
BRANCH   5  12
ATOM     12  O   UNL     1      -1.414  -2.889  -1.717  0.00  0.00    -0.506 OA
ATOM     13  H   UNL     1      -1.769  -3.183  -2.567  0.00  0.00    +0.292 HD
ENDBRANCH   5  12
ENDBRANCH   2   4
BRANCH   1  14
ATOM     14  C   UNL     1       1.918  -2.868   0.090  0.00  0.00    +0.183 C 
BRANCH  14  19
ATOM     15  C   UNL     1       0.713   2.003  -0.418  0.00  0.00    +0.086 C 
ATOM     16  C   UNL     1       0.585   0.521  -0.178  0.00  0.00    +0.102 A 
ATOM     17  C   UNL     1      -0.553  -0.134   0.116  0.00  0.00    +0.045 A 
ATOM     18  C   UNL     1      -0.215  -1.499   0.258  0.00  0.00    +0.046 A 
ATOM     19  C   UNL     1       1.109  -1.597   0.042  0.00  0.00    +0.122 A 
ATOM     20  O   UNL     1       1.588  -0.372  -0.227  0.00  0.00    -0.463 OA
ENDBRANCH  14  19
ENDBRANCH   1  14
BRANCH   1  21
ATOM     21  C   UNL     1       3.009  -3.127  -2.187  0.00  0.00    +0.193 C 
BRANCH  21  22
ATOM     22  C   UNL     1       2.396  -2.653  -3.479  0.00  0.00    -0.018 A 
ATOM     23  C   UNL     1       2.058  -1.321  -3.636  0.00  0.00    +0.007 A 
ATOM     24  C   UNL     1       1.496  -0.886  -4.821  0.00  0.00    +0.020 A 
ATOM     25  C   UNL     1       1.270  -1.783  -5.850  0.00  0.00    +0.041 A 
ATOM     26  C   UNL     1       1.608  -3.115  -5.692  0.00  0.00    +0.020 A 
ATOM     27  C   UNL     1       2.175  -3.548  -4.509  0.00  0.00    +0.007 A 
ATOM     28 CL   UNL     1       0.563  -1.236  -7.338  0.00  0.00    -0.084 Cl
ENDBRANCH  21  22
BRANCH  21  29
ATOM     29  C   UNL     1       3.866  -4.338  -2.452  0.00  0.00    +0.238 C 
ATOM     30  O   UNL     1       3.614  -5.391  -1.906  0.00  0.00    -0.273 OA
ATOM     31  N   UNL     1       4.913  -4.250  -3.297  0.00  0.00    -0.311 N 
ATOM     32  H   UNL     1       5.114  -3.408  -3.734  0.00  0.00    +0.149 HD
BRANCH  31  33
ATOM     33  C   UNL     1       5.746  -5.428  -3.555  0.00  0.00    +0.073 C 
ATOM     34  C   UNL     1       6.819  -5.541  -2.470  0.00  0.00    +0.022 C 
ATOM     35  C   UNL     1       7.689  -6.770  -2.739  0.00  0.00    +0.002 C 
ATOM     36  C   UNL     1       8.360  -6.630  -4.107  0.00  0.00    +0.000 C 
ATOM     37  C   UNL     1       7.287  -6.517  -5.192  0.00  0.00    +0.002 C 
ATOM     38  C   UNL     1       6.417  -5.288  -4.923  0.00  0.00    +0.022 C 
ENDBRANCH  31  33
ENDBRANCH  21  29
ENDBRANCH   1  21
TORSDOF 9
