REMARK  Name = ZINC03157379
REMARK  0 active torsions:
REMARK  status: ('A' for Active; 'I' for Inactive)
REMARK                            x       y       z     vdW  Elec       q    Type
REMARK                         _______ _______ _______ _____ _____    ______ ____
ROOT
ATOM      1  C   UNL     1      -9.678   1.937  -0.402  0.00  0.00    +0.000 C 
ATOM      2  C   UNL     1      -8.375   2.669  -0.728  0.00  0.00    +0.004 C 
ATOM      3  C   UNL     1      -7.371   2.452   0.405  0.00  0.00    +0.045 C 
ATOM      4  C   UNL     1      -7.088   0.955   0.556  0.00  0.00    +0.099 C 
ATOM      5  C   UNL     1      -8.393   0.226   0.888  0.00  0.00    +0.045 C 
ATOM      6  C   UNL     1      -9.398   0.441  -0.245  0.00  0.00    +0.004 C 
ATOM      7  N   UNL     1      -6.141   0.761   1.671  0.00  0.00    -0.317 N 
ATOM      8  C   UNL     1      -4.811   0.926   1.386  0.00  0.00    +0.080 A 
ATOM      9  C   UNL     1      -4.285   0.773   0.094  0.00  0.00    +0.068 A 
ATOM     10  C   UNL     1      -2.854   0.992  -0.038  0.00  0.00    -0.023 A 
ATOM     11  C   UNL     1      -2.204   1.311   1.103  0.00  0.00    -0.005 A 
ATOM     12  S   UNL     1      -3.460   1.331   2.356  0.00  0.00    -0.078 S 
ATOM     13  C   UNL     1      -0.737   1.584   1.267  0.00  0.00    +0.043 C 
ATOM     14  C   UNL     1      -0.013   1.086   0.008  0.00  0.00    +0.005 C 
ATOM     15  C   UNL     1      -0.759   1.596  -1.228  0.00  0.00    +0.005 C 
ATOM     16  C   UNL     1      -2.102   0.875  -1.359  0.00  0.00    +0.037 C 
ATOM     17  C   UNL     1      -5.228   0.404  -0.987  0.00  0.00    +0.248 C 
ATOM     18  O   UNL     1      -4.831   0.088  -2.093  0.00  0.00    -0.270 OA
ATOM     19  N   UNL     1      -6.545   0.432  -0.695  0.00  0.00    -0.290 N 
ATOM     20  H   UNL     1      -6.446   0.528   2.562  0.00  0.00    +0.149 HD
ATOM     21  H   UNL     1      -7.167   0.086  -1.353  0.00  0.00    +0.151 HD
ENDROOT
TORSDOF 0
