REMARK  Name = ZINC29555143
REMARK  13 active torsions:
REMARK  status: ('A' for Active; 'I' for Inactive)
REMARK    1  A    between atoms: C_1  and  C_2
REMARK    2  A    between atoms: C_2  and  C_3
REMARK    3  A    between atoms: C_3  and  C_4
REMARK    4  A    between atoms: C_4  and  C_5
REMARK    5  A    between atoms: C_7  and  C_18
REMARK    6  A    between atoms: C_8  and  C_17
REMARK    7  A    between atoms: C_10  and  C_16
REMARK    8  A    between atoms: C_12  and  O_14
REMARK    9  A    between atoms: O_14  and  C_15
REMARK   10  A    between atoms: C_18  and  O_20
REMARK   11  A    between atoms: O_20  and  C_21
REMARK   12  A    between atoms: C_21  and  C_22
REMARK   13  A    between atoms: C_22  and  N_23
REMARK                            x       y       z     vdW  Elec       q    Type
REMARK                         _______ _______ _______ _____ _____    ______ ____
ROOT
ATOM      1  C   UNL     1      -2.095  -4.538   1.214  0.00  0.00    +0.338 C 
ATOM      2  O   UNL     1      -2.099  -5.744   1.383  0.00  0.00    -0.245 OA
ENDROOT
BRANCH   1   4
ATOM      3  C   UNL     1      -2.922  -2.477  -0.036  0.00  0.00    +0.066 C 
ATOM      4  C   UNL     1      -2.774  -3.980   0.117  0.00  0.00    +0.065 C 
ATOM      5  C   UNL     1      -3.325  -4.770  -0.851  0.00  0.00    +0.049 C 
ATOM      6  N   UNL     1      -3.970  -4.270  -1.894  0.00  0.00    -0.256 NA
ATOM      7  C   UNL     1      -4.159  -2.992  -2.131  0.00  0.00    +0.049 C 
ATOM      8  C   UNL     1      -3.676  -2.011  -1.268  0.00  0.00    +0.065 C 
ATOM      9  C   UNL     1      -3.878  -0.672  -1.525  0.00  0.00    +0.337 C 
ATOM     10  O   UNL     1      -4.440  -0.286  -2.687  0.00  0.00    -0.245 OA
ATOM     11  C   UNL     1      -4.916  -2.578  -3.366  0.00  0.00    +0.066 C 
ATOM     12  C   UNL     1      -3.195  -6.266  -0.727  0.00  0.00    +0.066 C 
BRANCH   9  13
ATOM     13  O   UNL     1      -3.513   0.251  -0.613  0.00  0.00    -0.465 OA
ATOM     14  C   UNL     1      -3.752   1.620  -0.945  0.00  0.00    +0.280 C 
ENDBRANCH   9  13
BRANCH   3  15
ATOM     15  C   UNL     1      -1.522  -1.860  -0.070  0.00  0.00    +0.013 C 
BRANCH  15  16
ATOM     16  C   UNL     1      -0.748  -2.418  -1.266  0.00  0.00    +0.001 C 
BRANCH  16  18
ATOM     17  C   UNL     1       1.421  -2.350  -2.504  0.00  0.00    +0.004 C 
ATOM     18  C   UNL     1       0.647  -1.792  -1.308  0.00  0.00    -0.003 C 
ENDBRANCH  16  18
ENDBRANCH  15  16
ENDBRANCH   3  15
ENDBRANCH   1   4
BRANCH   1  19
ATOM     19  O   UNL     1      -1.438  -3.736   2.080  0.00  0.00    -0.460 OA
BRANCH  19  20
ATOM     20  C   UNL     1      -0.769  -4.371   3.171  0.00  0.00    +0.253 C 
BRANCH  20  21
ATOM     21  C   UNL     1      -0.086  -3.310   4.038  0.00  0.00    +0.176 C 
BRANCH  21  22
ATOM     22  N   UNL     1      -1.103  -2.453   4.652  0.00  0.00    -0.164 N 
ATOM     23  C   UNL     1      -1.692  -1.376   4.110  0.00  0.00    +0.268 C 
ATOM     24  O   UNL     1      -1.404  -1.005   2.989  0.00  0.00    -0.268 OA
ATOM     25  C   UNL     1      -2.694  -0.657   4.909  0.00  0.00    +0.065 A 
ATOM     26  C   UNL     1      -3.452   0.483   4.594  0.00  0.00    +0.015 A 
ATOM     27  C   UNL     1      -4.346   0.997   5.505  0.00  0.00    +0.001 A 
ATOM     28  C   UNL     1      -4.518   0.406   6.745  0.00  0.00    +0.002 A 
ATOM     29  C   UNL     1      -3.778  -0.721   7.073  0.00  0.00    +0.029 A 
ATOM     30  C   UNL     1      -2.889  -1.234   6.171  0.00  0.00    +0.121 A 
ATOM     31  S   UNL     1      -1.780  -2.615   6.173  0.00  0.00    +0.078 S 
ATOM     32  O   UNL     1      -2.563  -3.801   6.173  0.00  0.00    -0.150 OA
ATOM     33  O   UNL     1      -0.763  -2.349   7.129  0.00  0.00    -0.150 OA
ENDBRANCH  21  22
ENDBRANCH  20  21
ENDBRANCH  19  20
ENDBRANCH   1  19
TORSDOF 9
