REMARK  Name = ZINC20820128
REMARK  9 active torsions:
REMARK  status: ('A' for Active; 'I' for Inactive)
REMARK    1  A    between atoms: C_4  and  C_7
REMARK    2  A    between atoms: C_7  and  N_8
REMARK    3  A    between atoms: C_9  and  C_30
REMARK    4  A    between atoms: C_12  and  S_13
REMARK    5  A    between atoms: S_13  and  C_14
REMARK    6  A    between atoms: C_14  and  C_15
REMARK    7  A    between atoms: N_17  and  N_18
REMARK    8  A    between atoms: C_19  and  C_21
REMARK    9  A    between atoms: C_25  and  N_27
REMARK                            x       y       z     vdW  Elec       q    Type
REMARK                         _______ _______ _______ _____ _____    ______ ____
ROOT
ATOM      1  S   UNL     1       5.061   0.653   0.120  0.00  0.00    -0.077 S 
ENDROOT
BRANCH   1   6
ATOM      2  N   UNL     1       7.736   1.473   0.062  0.00  0.00    -0.297 N 
ATOM      3  C   UNL     1       8.404   2.671  -0.065  0.00  0.00    +0.172 A 
ATOM      4  N   UNL     1       7.491   3.611  -0.174  0.00  0.00    -0.128 NA
ATOM      5  N   UNL     1       6.317   3.089  -0.129  0.00  0.00    -0.122 NA
ATOM      6  C   UNL     1       6.406   1.786   0.011  0.00  0.00    +0.193 A 
BRANCH   3   7
ATOM      7  C   UNL     1       9.863   2.863  -0.072  0.00  0.00    +0.056 A 
ATOM      8  C   UNL     1      10.585   4.015   0.114  0.00  0.00    +0.019 A 
ATOM      9  C   UNL     1      11.959   3.950   0.064  0.00  0.00    +0.008 A 
ATOM     10  C   UNL     1      12.557   2.752  -0.168  0.00  0.00    +0.046 A 
ATOM     11  S   UNL     1      11.156   1.656  -0.317  0.00  0.00    -0.094 S 
ENDBRANCH   3   7
BRANCH   2  12
ATOM     12  C   UNL     1       8.327   0.142   0.218  0.00  0.00    +0.161 C 
BRANCH  12  16
ATOM     13  C   UNL     1       8.512  -0.860   4.366  0.00  0.00    +0.000 A 
ATOM     14  C   UNL     1       7.441  -1.283   3.600  0.00  0.00    +0.000 A 
ATOM     15  C   UNL     1       7.382  -0.959   2.257  0.00  0.00    +0.005 A 
ATOM     16  C   UNL     1       8.392  -0.211   1.681  0.00  0.00    -0.028 A 
ATOM     17  C   UNL     1       9.465   0.207   2.446  0.00  0.00    +0.005 A 
ATOM     18  C   UNL     1       9.522  -0.113   3.790  0.00  0.00    +0.000 A 
ENDBRANCH  12  16
ENDBRANCH   2  12
ENDBRANCH   1   6
BRANCH   1  19
ATOM     19  C   UNL     1       3.670   1.803  -0.016  0.00  0.00    +0.174 C 
BRANCH  19  20
ATOM     20  C   UNL     1       2.375   1.035   0.054  0.00  0.00    +0.239 C 
ATOM     21  O   UNL     1       2.391  -0.171   0.184  0.00  0.00    -0.273 OA
ATOM     22  N   UNL     1       1.199   1.688  -0.027  0.00  0.00    -0.233 N 
ATOM     23  H   UNL     1       1.184   2.782  -0.144  0.00  0.00    +0.173 HD
BRANCH  22  24
ATOM     24  N   UNL     1      -0.005   0.975   0.039  0.00  0.00    -0.230 N 
ATOM     25  C   UNL     1      -1.181   1.627  -0.048  0.00  0.00    +0.260 C 
ATOM     26  O   UNL     1      -1.197   2.836  -0.178  0.00  0.00    -0.269 OA
ATOM     27  H   UNL     1       0.010  -0.118   0.161  0.00  0.00    +0.173 HD
BRANCH  25  28
ATOM     28  C   UNL     1      -2.451   0.874   0.015  0.00  0.00    +0.040 A 
ATOM     29  C   UNL     1      -2.436  -0.515   0.158  0.00  0.00    +0.013 A 
ATOM     30  C   UNL     1      -3.624  -1.212   0.221  0.00  0.00    +0.003 A 
ATOM     31  C   UNL     1      -4.830  -0.538   0.132  0.00  0.00    +0.033 A 
ATOM     32  C   UNL     1      -4.852   0.837  -0.015  0.00  0.00    +0.127 A 
ATOM     33  C   UNL     1      -3.670   1.546  -0.074  0.00  0.00    +0.045 A 
BRANCH  32  34
ATOM     34  N   UNL     1      -6.146   1.549  -0.110  0.00  0.00    +0.056 N 
ATOM     35  O   UNL     1      -6.168   2.760  -0.240  0.00  0.00    -0.126 OA
ATOM     36  O   UNL     1      -7.191   0.924  -0.059  0.00  0.00    -0.126 OA
ENDBRANCH  32  34
ENDBRANCH  25  28
ENDBRANCH  22  24
ENDBRANCH  19  20
ENDBRANCH   1  19
TORSDOF 9
