REMARK  Name = ZINC39522872
REMARK  5 active torsions:
REMARK  status: ('A' for Active; 'I' for Inactive)
REMARK    1  A    between atoms: C_1  and  S_2
REMARK    2  A    between atoms: S_2  and  C_3
REMARK    3  A    between atoms: C_13  and  C_17
REMARK    4  A    between atoms: N_15  and  O_16
REMARK    5  A    between atoms: C_22  and  O_23
REMARK                            x       y       z     vdW  Elec       q    Type
REMARK                         _______ _______ _______ _____ _____    ______ ____
ROOT
ATOM      1  C   UNL     1       0.902  -0.439   1.516  0.00  0.00    +0.048 C 
ATOM      2  C   UNL     1       0.097   0.012   2.736  0.00  0.00    +0.014 C 
ATOM      3  C   UNL     1       0.857  -0.355   4.012  0.00  0.00    +0.003 C 
ATOM      4  C   UNL     1       1.060  -1.871   4.066  0.00  0.00    +0.025 C 
ATOM      5  C   UNL     1       1.865  -2.322   2.846  0.00  0.00    +0.048 C 
ATOM      6  C   UNL     1       1.106  -1.954   1.570  0.00  0.00    +0.038 C 
ATOM      7  C   UNL     1       2.065  -3.838   2.902  0.00  0.00    +0.025 C 
ATOM      8  C   UNL     1       2.890  -4.285   1.691  0.00  0.00    +0.004 C 
ATOM      9  C   UNL     1       4.227  -3.540   1.692  0.00  0.00    +0.026 C 
ATOM     10  C   UNL     1       3.965  -2.032   1.671  0.00  0.00    +0.118 C 
ATOM     11  N   UNL     1       3.174  -1.655   2.849  0.00  0.00    -0.177 NA
ENDROOT
BRANCH  10  12
ATOM     12  C   UNL     1       5.278  -1.293   1.691  0.00  0.00    +0.013 A 
ATOM     13  C   UNL     1       5.807  -0.856   2.890  0.00  0.00    +0.009 A 
ATOM     14  C   UNL     1       7.012  -0.178   2.909  0.00  0.00    +0.001 A 
ATOM     15  C   UNL     1       7.691   0.064   1.729  0.00  0.00    +0.004 A 
ATOM     16  C   UNL     1       7.166  -0.372   0.528  0.00  0.00    +0.046 A 
ATOM     17  C   UNL     1       5.960  -1.057   0.506  0.00  0.00    +0.122 A 
BRANCH  17  18
ATOM     18  O   UNL     1       5.445  -1.491  -0.674  0.00  0.00    -0.506 OA
ATOM     19  H   UNL     1       4.866  -0.851  -1.110  0.00  0.00    +0.292 HD
ENDBRANCH  17  18
ENDBRANCH  10  12
BRANCH   1  21
ATOM     20  C   UNL     1      -0.022   1.810   0.012  0.00  0.00    +0.084 C 
ATOM     21  S   UNL     1       0.002  -0.004   0.002  0.00  0.00    -0.161 S 
ENDBRANCH   1  21
BRANCH  11  22
ATOM     22  O   UNL     1       3.021  -0.202   2.934  0.00  0.00    -0.311 OA
ATOM     23  H   UNL     1       3.858   0.282   2.939  0.00  0.00    +0.237 HD
ENDBRANCH  11  22
TORSDOF 4
