REMARK  Name = ZINC39689510
REMARK  8 active torsions:
REMARK  status: ('A' for Active; 'I' for Inactive)
REMARK    1  A    between atoms: C_1  and  C_2
REMARK    2  A    between atoms: C_6  and  C_8
REMARK    3  A    between atoms: C_8  and  C_9
REMARK    4  A    between atoms: C_9  and  N_10
REMARK    5  A    between atoms: C_11  and  C_13
REMARK    6  A    between atoms: C_24  and  C_26
REMARK    7  A    between atoms: C_33  and  C_37
REMARK    8  A    between atoms: N_35  and  C_36
REMARK                            x       y       z     vdW  Elec       q    Type
REMARK                         _______ _______ _______ _____ _____    ______ ____
ROOT
ATOM      1  C   UNL     1       2.698  -5.524   6.183  0.00  0.00    +0.100 C 
ATOM      2  C   UNL     1       2.123  -4.479   7.165  0.00  0.00    +0.121 C 
ATOM      3  N   UNL     1       2.979  -4.587   8.370  0.00  0.00    -0.296 N 
ATOM      4  C   UNL     1       4.348  -4.782   7.834  0.00  0.00    +0.115 C 
ATOM      5  C   UNL     1       4.158  -5.720   6.625  0.00  0.00    -0.004 C 
ATOM      6  C   UNL     1       4.395  -7.169   7.039  0.00  0.00    -0.010 C 
ATOM      7  C   UNL     1       5.867  -7.352   7.420  0.00  0.00    -0.082 C 
ATOM      8  N   UNL     1       6.717  -7.004   6.275  0.00  0.00    +0.379 N 
ATOM      9  C   UNL     1       6.551  -5.585   5.941  0.00  0.00    -0.082 C 
ATOM     10  C   UNL     1       5.109  -5.327   5.499  0.00  0.00    -0.010 C 
ATOM     11  C   UNL     1       2.600  -4.521   9.662  0.00  0.00    +0.250 C 
ATOM     12  O   UNL     1       3.438  -4.532  10.543  0.00  0.00    -0.270 OA
ATOM     13  H   UNL     1       7.682  -7.184   6.508  0.00  0.00    -0.086 HD
ATOM     14  H   UNL     1       6.455  -7.568   5.480  0.00  0.00    -0.086 HD
ENDROOT
BRANCH  11  15
ATOM     15  C   UNL     1       1.167  -4.436  10.007  0.00  0.00    +0.074 A 
ATOM     16  C   UNL     1       0.282  -3.719   9.190  0.00  0.00    +0.127 A 
ATOM     17  N   UNL     1      -0.995  -3.632   9.479  0.00  0.00    -0.235 NA
ATOM     18  C   UNL     1      -1.514  -4.216  10.555  0.00  0.00    +0.160 A 
ATOM     19  C   UNL     1      -0.690  -4.956  11.428  0.00  0.00    +0.060 A 
ATOM     20  C   UNL     1       0.676  -5.074  11.148  0.00  0.00    +0.067 A 
ATOM     21 CL   UNL     1       1.727  -5.981  12.190  0.00  0.00    -0.082 Cl
ATOM     22  C   UNL     1      -1.556  -5.456  12.490  0.00  0.00    +0.071 A 
ATOM     23  N   UNL     1      -2.764  -5.037  12.242  0.00  0.00    -0.174 NA
ATOM     24  N   UNL     1      -2.778  -4.276  11.069  0.00  0.00    -0.249 N 
ATOM     25  C   UNL     1      -3.962  -3.643  10.484  0.00  0.00    +0.174 C 
ATOM     26  C   UNL     1      -1.131  -6.304  13.661  0.00  0.00    +0.068 C 
ENDBRANCH  11  15
BRANCH   1  28
ATOM     27  N   UNL     1       2.523  -5.862   3.739  0.00  0.00    -0.315 N 
ATOM     28  C   UNL     1       2.643  -5.003   4.771  0.00  0.00    +0.218 C 
ATOM     29  O   UNL     1       2.705  -3.810   4.561  0.00  0.00    -0.275 OA
ATOM     30  H   UNL     1       2.473  -6.816   3.906  0.00  0.00    +0.149 HD
BRANCH  27  31
ATOM     31  C   UNL     1       2.469  -5.356   2.366  0.00  0.00    +0.109 C 
BRANCH  31  32
ATOM     32  C   UNL     1       2.334  -6.529   1.394  0.00  0.00    +0.054 C 
BRANCH  32  38
ATOM     33  C   UNL     1      -0.318  -4.875  -2.514  0.00  0.00    +0.044 C 
ATOM     34  C   UNL     1       1.010  -5.217  -1.889  0.00  0.00    -0.050 A 
ATOM     35  C   UNL     1       2.177  -5.053  -2.611  0.00  0.00    +0.003 A 
ATOM     36  C   UNL     1       3.394  -5.367  -2.038  0.00  0.00    +0.001 A 
ATOM     37  C   UNL     1       3.445  -5.845  -0.742  0.00  0.00    +0.004 A 
ATOM     38  C   UNL     1       2.279  -6.008  -0.019  0.00  0.00    -0.046 A 
ATOM     39  C   UNL     1       1.061  -5.690  -0.591  0.00  0.00    +0.007 A 
ENDBRANCH  32  38
ENDBRANCH  31  32
ENDBRANCH  27  31
ENDBRANCH   1  28
TORSDOF 5
