REMARK  Name = ZINC12105440
REMARK  9 active torsions:
REMARK  status: ('A' for Active; 'I' for Inactive)
REMARK    1  A    between atoms: C_4  and  C_7
REMARK    2  A    between atoms: C_7  and  C_8
REMARK    3  A    between atoms: C_11  and  S_19
REMARK    4  A    between atoms: N_12  and  C_13
REMARK    5  A    between atoms: S_19  and  C_20
REMARK    6  A    between atoms: C_20  and  C_21
REMARK    7  A    between atoms: N_23  and  N_24
REMARK    8  A    between atoms: C_25  and  C_27
REMARK    9  A    between atoms: C_31  and  N_33
REMARK                            x       y       z     vdW  Elec       q    Type
REMARK                         _______ _______ _______ _____ _____    ______ ____
ROOT
ATOM      1  S   UNL     1       3.107  10.349  -0.052  0.00  0.00    -0.076 S 
ENDROOT
BRANCH   1   5
ATOM      2  C   UNL     1       3.553  14.226   0.060  0.00  0.00    +0.143 A 
ATOM      3  N   UNL     1       2.269  14.093  -0.119  0.00  0.00    -0.133 NA
ATOM      4  N   UNL     1       1.957  12.848  -0.178  0.00  0.00    -0.122 NA
ATOM      5  C   UNL     1       3.034  12.110  -0.039  0.00  0.00    +0.197 A 
ATOM      6  N   UNL     1       4.088  12.967   0.124  0.00  0.00    -0.274 N 
BRANCH   6   7
ATOM      7  C   UNL     1       5.435  12.627   0.313  0.00  0.00    +0.050 A 
ATOM      8  C   UNL     1       6.061  12.908   1.520  0.00  0.00    +0.026 A 
ATOM      9  C   UNL     1       7.386  12.567   1.705  0.00  0.00    +0.002 A 
ATOM     10  C   UNL     1       8.094  11.957   0.685  0.00  0.00    +0.000 A 
ATOM     11  C   UNL     1       7.475  11.681  -0.520  0.00  0.00    +0.002 A 
ATOM     12  C   UNL     1       6.148  12.014  -0.709  0.00  0.00    +0.026 A 
ENDBRANCH   6   7
BRANCH   2  13
ATOM     13  C   UNL     1       4.308  15.525   0.182  0.00  0.00    +0.111 C 
BRANCH  13  17
ATOM     14  C   UNL     1       5.260  16.989  -3.716  0.00  0.00    +0.000 A 
ATOM     15  C   UNL     1       4.028  17.270  -3.154  0.00  0.00    +0.000 A 
ATOM     16  C   UNL     1       3.720  16.796  -1.893  0.00  0.00    +0.004 A 
ATOM     17  C   UNL     1       4.643  16.041  -1.194  0.00  0.00    -0.040 A 
ATOM     18  C   UNL     1       5.877  15.765  -1.754  0.00  0.00    +0.004 A 
ATOM     19  C   UNL     1       6.183  16.235  -3.017  0.00  0.00    +0.000 A 
ENDBRANCH  13  17
ENDBRANCH   2  13
ENDBRANCH   1   5
BRANCH   1  20
ATOM     20  C   UNL     1       1.356   9.964  -0.299  0.00  0.00    +0.174 C 
BRANCH  20  21
ATOM     21  C   UNL     1       1.173   8.469  -0.344  0.00  0.00    +0.239 C 
ATOM     22  O   UNL     1       2.131   7.736  -0.221  0.00  0.00    -0.273 OA
ATOM     23  N   UNL     1      -0.057   7.946  -0.521  0.00  0.00    -0.233 N 
ATOM     24  H   UNL     1      -0.823   8.531  -0.620  0.00  0.00    +0.173 HD
BRANCH  23  25
ATOM     25  N   UNL     1      -0.227   6.556  -0.563  0.00  0.00    -0.230 N 
ATOM     26  C   UNL     1      -1.457   6.033  -0.740  0.00  0.00    +0.260 C 
ATOM     27  O   UNL     1      -2.418   6.767  -0.863  0.00  0.00    -0.269 OA
ATOM     28  H   UNL     1       0.539   5.970  -0.464  0.00  0.00    +0.173 HD
BRANCH  26  29
ATOM     29  C   UNL     1      -1.637   4.566  -0.784  0.00  0.00    +0.040 A 
ATOM     30  C   UNL     1      -0.536   3.720  -0.642  0.00  0.00    +0.013 A 
ATOM     31  C   UNL     1      -0.711   2.352  -0.685  0.00  0.00    +0.003 A 
ATOM     32  C   UNL     1      -1.974   1.819  -0.868  0.00  0.00    +0.033 A 
ATOM     33  C   UNL     1      -3.069   2.651  -1.014  0.00  0.00    +0.127 A 
ATOM     34  C   UNL     1      -2.909   4.021  -0.968  0.00  0.00    +0.045 A 
BRANCH  33  35
ATOM     35  N   UNL     1      -4.416   2.072  -1.216  0.00  0.00    +0.056 N 
ATOM     36  O   UNL     1      -4.560   0.863  -1.252  0.00  0.00    -0.126 OA
ATOM     37  O   UNL     1      -5.381   2.804  -1.345  0.00  0.00    -0.126 OA
ENDBRANCH  33  35
ENDBRANCH  26  29
ENDBRANCH  23  25
ENDBRANCH  20  21
ENDBRANCH   1  20
TORSDOF 9
