REMARK  Name = ZINC61338591
REMARK  3 active torsions:
REMARK  status: ('A' for Active; 'I' for Inactive)
REMARK    1  A    between atoms: C_3  and  C_6
REMARK    2  A    between atoms: C_8  and  C_11
REMARK    3  A    between atoms: C_16  and  C_19
REMARK                            x       y       z     vdW  Elec       q    Type
REMARK                         _______ _______ _______ _____ _____    ______ ____
ROOT
ATOM      1  C   UNL     1       6.628  -1.344  -0.080  0.00  0.00    +0.269 C 
ATOM      2  O   UNL     1       7.827  -1.137  -0.089  0.00  0.00    -0.268 OA
ATOM      3  N   UNL     1       6.163  -2.609  -0.088  0.00  0.00    -0.259 N 
ATOM      4  C   UNL     1       7.051  -3.675  -0.107  0.00  0.00    +0.165 A 
ATOM      5  N   UNL     1       6.800  -4.971  -0.123  0.00  0.00    -0.225 NA
ATOM      6  C   UNL     1       7.781  -5.862  -0.141  0.00  0.00    +0.080 A 
ATOM      7  C   UNL     1       9.078  -5.430  -0.142  0.00  0.00    +0.076 A 
ATOM      8  S   UNL     1       8.838  -3.659  -0.125  0.00  0.00    -0.060 S 
ATOM      9  H   UNL     1       5.207  -2.774  -0.080  0.00  0.00    +0.157 HD
ENDROOT
BRANCH   6  10
ATOM     10  C   UNL     1       7.475  -7.313  -0.158  0.00  0.00    +0.001 A 
ATOM     11  C   UNL     1       8.510  -8.246  -0.170  0.00  0.00    +0.010 A 
ATOM     12  C   UNL     1       8.220  -9.596  -0.185  0.00  0.00    +0.007 A 
ATOM     13  C   UNL     1       6.907 -10.022  -0.189  0.00  0.00    -0.017 A 
ATOM     14  C   UNL     1       5.872  -9.097  -0.177  0.00  0.00    -0.016 A 
ATOM     15  C   UNL     1       6.150  -7.748  -0.156  0.00  0.00    +0.016 A 
ATOM     16  C   UNL     1       4.576  -9.874  -0.185  0.00  0.00    +0.195 C 
ATOM     17  O   UNL     1       4.915 -11.203  -0.623  0.00  0.00    -0.371 OA
ATOM     18  C   UNL     1       6.278 -11.396  -0.205  0.00  0.00    +0.195 C 
ENDBRANCH   6  10
BRANCH   1  21
ATOM     19  C   UNL     1       3.568   0.618  -0.029  0.00  0.00    +0.144 A 
ATOM     20  N   UNL     1       4.377  -0.428  -0.048  0.00  0.00    -0.231 NA
ATOM     21  C   UNL     1       5.686  -0.213  -0.059  0.00  0.00    +0.134 A 
ATOM     22  C   UNL     1       6.149   1.076  -0.051  0.00  0.00    +0.080 A 
ATOM     23  S   UNL     1       4.726   1.975  -0.034  0.00  0.00    -0.072 S 
BRANCH  19  26
ATOM     24  C   UNL     1      -0.016   1.344   0.009  0.00  0.00    +0.042 A 
ATOM     25  C   UNL     1       1.324   1.776  -0.001  0.00  0.00    +0.052 A 
ATOM     26  C   UNL     1       2.097   0.654  -0.014  0.00  0.00    +0.160 A 
ATOM     27  O   UNL     1       1.279  -0.418  -0.012  0.00  0.00    -0.461 OA
ATOM     28  C   UNL     1       0.002  -0.004   0.002  0.00  0.00    +0.196 A 
ENDBRANCH  19  26
ENDBRANCH   1  21
TORSDOF 3
