REMARK  Name = ZINC01594600
REMARK  15 active torsions:
REMARK  status: ('A' for Active; 'I' for Inactive)
REMARK    1  A    between atoms: C_1  and  C_2
REMARK    2  A    between atoms: C_2  and  C_3
REMARK    3  A    between atoms: C_2  and  C_4
REMARK    4  A    between atoms: C_2  and  C_5
REMARK    5  A    between atoms: C_7  and  C_13
REMARK    6  A    between atoms: C_8  and  O_12
REMARK    7  A    between atoms: C_13  and  N_72
REMARK    8  A    between atoms: C_14  and  C_15
REMARK    9  A    between atoms: C_14  and  N_72
REMARK   10  A    between atoms: C_17  and  C_23
REMARK   11  A    between atoms: C_20  and  O_21
REMARK   12  A    between atoms: C_23  and  C_24
REMARK   13  A    between atoms: C_23  and  C_25
REMARK   14  A    between atoms: C_23  and  C_26
REMARK   15  A    between atoms: C_27  and  N_72
REMARK                            x       y       z     vdW  Elec       q    Type
REMARK                         _______ _______ _______ _____ _____    ______ ____
ROOT
ATOM      1  N   UNL     1      -0.447   1.805  -1.300  0.00  0.00    +0.387 N 
ATOM      2  H   UNL     1      -1.460   1.689  -1.177  0.00  0.00    -0.080 HD
ENDROOT
BRANCH   1   3
ATOM      3  C   UNL     1      -0.158   3.227  -1.584  0.00  0.00    -0.068 C 
ATOM      4  C   UNL     1       1.344   3.499  -1.480  0.00  0.00    -0.015 C 
ATOM      5  C   UNL     1       1.617   4.976  -1.772  0.00  0.00    -0.002 C 
ATOM      6  C   UNL     1       0.870   5.843  -0.756  0.00  0.00    -0.000 C 
ATOM      7  C   UNL     1      -0.632   5.571  -0.860  0.00  0.00    -0.002 C 
ATOM      8  C   UNL     1      -0.904   4.093  -0.568  0.00  0.00    -0.015 C 
ENDBRANCH   1   3
BRANCH   1   9
ATOM      9  C   UNL     1       0.238   1.389  -0.058  0.00  0.00    -0.038 C 
BRANCH   9  12
ATOM     10  C   UNL     1      -0.200  -2.298   0.632  0.00  0.00    -0.040 A 
ATOM     11  C   UNL     1       0.338  -1.099   0.204  0.00  0.00    +0.009 A 
ATOM     12  C   UNL     1      -0.352   0.081   0.405  0.00  0.00    -0.021 A 
ATOM     13  C   UNL     1      -1.591   0.061   1.027  0.00  0.00    +0.136 A 
ATOM     14  C   UNL     1      -2.133  -1.144   1.452  0.00  0.00    +0.083 A 
ATOM     15  C   UNL     1      -1.435  -2.321   1.253  0.00  0.00    +0.027 A 
ATOM     16 CL   UNL     1      -3.683  -1.174   2.233  0.00  0.00    -0.080 Cl
BRANCH  10  18
ATOM     17  C   UNL     1      -0.255  -4.753   0.973  0.00  0.00    +0.015 C 
ATOM     18  C   UNL     1       0.558  -3.582   0.417  0.00  0.00    -0.013 C 
ATOM     19  C   UNL     1       0.793  -3.790  -1.081  0.00  0.00    +0.015 C 
ATOM     20  C   UNL     1       1.905  -3.507   1.139  0.00  0.00    +0.015 C 
ENDBRANCH  10  18
BRANCH  13  21
ATOM     21  O   UNL     1      -2.275   1.220   1.222  0.00  0.00    -0.505 OA
ATOM     22  H   UNL     1      -2.921   1.417   0.530  0.00  0.00    +0.292 HD
ENDBRANCH  13  21
ENDBRANCH   9  12
ENDBRANCH   1   9
BRANCH   1  23
ATOM     23  C   UNL     1      -0.001   0.964  -2.430  0.00  0.00    -0.038 C 
BRANCH  23  24
ATOM     24  C   UNL     1      -0.951   1.159  -3.584  0.00  0.00    -0.021 A 
ATOM     25  C   UNL     1      -0.578   1.940  -4.661  0.00  0.00    +0.009 A 
ATOM     26  C   UNL     1      -1.446   2.117  -5.722  0.00  0.00    -0.040 A 
ATOM     27  C   UNL     1      -2.694   1.521  -5.705  0.00  0.00    +0.027 A 
ATOM     28  C   UNL     1      -3.074   0.743  -4.627  0.00  0.00    +0.083 A 
ATOM     29  C   UNL     1      -2.201   0.560  -3.563  0.00  0.00    +0.136 A 
ATOM     30 CL   UNL     1      -4.640  -0.005  -4.605  0.00  0.00    -0.080 Cl
BRANCH  26  31
ATOM     31  C   UNL     1      -1.034   2.965  -6.898  0.00  0.00    -0.013 C 
ATOM     32  C   UNL     1      -2.170   3.002  -7.923  0.00  0.00    +0.015 C 
ATOM     33  C   UNL     1      -0.731   4.387  -6.420  0.00  0.00    +0.015 C 
ATOM     34  C   UNL     1       0.217   2.367  -7.545  0.00  0.00    +0.015 C 
ENDBRANCH  26  31
BRANCH  29  35
ATOM     35  O   UNL     1      -2.572  -0.205  -2.502  0.00  0.00    -0.505 OA
ATOM     36  H   UNL     1      -3.014   0.288  -1.798  0.00  0.00    +0.292 HD
ENDBRANCH  29  35
ENDBRANCH  23  24
ENDBRANCH   1  23
TORSDOF 9
