REMARK  Name = ZINC29192659
REMARK  12 active torsions:
REMARK  status: ('A' for Active; 'I' for Inactive)
REMARK    1  A    between atoms: C_1  and  C_2
REMARK    2  A    between atoms: C_2  and  N_3
REMARK    3  A    between atoms: N_3  and  C_4
REMARK    4  A    between atoms: N_3  and  C_6
REMARK    5  A    between atoms: C_4  and  C_5
REMARK    6  A    between atoms: C_6  and  C_8
REMARK    7  A    between atoms: C_6  and  C_28
REMARK    8  A    between atoms: C_8  and  N_9
REMARK    9  A    between atoms: C_10  and  C_12
REMARK   10  A    between atoms: C_12  and  N_13
REMARK   11  A    between atoms: C_16  and  C_20
REMARK   12  A    between atoms: C_16  and  C_21
REMARK                            x       y       z     vdW  Elec       q    Type
REMARK                         _______ _______ _______ _____ _____    ______ ____
ROOT
ATOM      1  N   UNL     1       2.199  -3.823  -2.389  0.00  0.00    -0.315 N 
ATOM      2  C   UNL     1       1.295  -2.829  -2.496  0.00  0.00    +0.231 C 
ATOM      3  O   UNL     1       0.753  -2.615  -3.560  0.00  0.00    -0.274 OA
ATOM      4  H   UNL     1       2.630  -4.071  -1.408  0.00  0.00    +0.149 HD
ENDROOT
BRANCH   1   5
ATOM      5  C   UNL     1       2.608  -4.572  -3.579  0.00  0.00    +0.093 C 
BRANCH   5   6
ATOM      6  C   UNL     1       3.539  -5.715  -3.168  0.00  0.00    -0.020 C 
BRANCH   6   7
ATOM      7  C   UNL     1       3.828  -6.584  -4.364  0.00  0.00    -0.059 A 
ATOM      8  C   UNL     1       2.798  -6.973  -5.200  0.00  0.00    +0.002 A 
ATOM      9  C   UNL     1       3.063  -7.766  -6.301  0.00  0.00    +0.000 A 
ATOM     10  C   UNL     1       4.357  -8.179  -6.559  0.00  0.00    +0.000 A 
ATOM     11  C   UNL     1       5.386  -7.795  -5.721  0.00  0.00    +0.000 A 
ATOM     12  C   UNL     1       5.121  -6.997  -4.623  0.00  0.00    +0.002 A 
ENDBRANCH   6   7
BRANCH   6  13
ATOM     13  N   UNL     1       2.894  -6.520  -2.122  0.00  0.00    +0.385 N 
ATOM     14  H   UNL     1       2.245  -5.853  -1.534  0.00  0.00    -0.081 HD
BRANCH  13  16
ATOM     15  C   UNL     1       0.684  -6.979  -3.072  0.00  0.00    -0.017 C 
ATOM     16  C   UNL     1       2.049  -7.568  -2.711  0.00  0.00    -0.081 C 
ENDBRANCH  13  16
BRANCH  13  17
ATOM     17  C   UNL     1       3.891  -7.097  -1.211  0.00  0.00    -0.081 C 
ATOM     18  C   UNL     1       4.439  -6.002  -0.294  0.00  0.00    -0.017 C 
ENDBRANCH  13  17
ENDBRANCH   6  13
ENDBRANCH   5   6
ENDBRANCH   1   5
BRANCH   2  19
ATOM     19  C   UNL     1       0.958  -1.984  -1.295  0.00  0.00    +0.213 C 
BRANCH  19  20
ATOM     20  N   UNL     1       0.050  -0.906  -1.695  0.00  0.00    -0.215 N 
ATOM     21  C   UNL     1      -1.294  -1.006  -1.686  0.00  0.00    +0.251 C 
ATOM     22  O   UNL     1      -1.955  -1.968  -1.357  0.00  0.00    -0.272 OA
ATOM     23  C   UNL     1      -1.808   0.335  -2.171  0.00  0.00    +0.135 C 
ATOM     24  N   UNL     1      -0.579   1.107  -2.421  0.00  0.00    -0.281 N 
ATOM     25  C   UNL     1       0.452   0.299  -2.115  0.00  0.00    +0.310 C 
ATOM     26  O   UNL     1       1.619   0.626  -2.208  0.00  0.00    -0.252 OA
ATOM     27  C   UNL     1      -2.611   0.168  -3.463  0.00  0.00    +0.047 C 
ATOM     28  H   UNL     1      -0.644   2.142  -2.789  0.00  0.00    +0.152 HD
BRANCH  23  29
ATOM     29  C   UNL     1      -2.644   0.999  -1.107  0.00  0.00    -0.015 A 
ATOM     30  C   UNL     1      -3.362   0.228  -0.212  0.00  0.00    +0.009 A 
ATOM     31  C   UNL     1      -4.125   0.836   0.767  0.00  0.00    +0.039 A 
ATOM     32  C   UNL     1      -4.178   2.217   0.844  0.00  0.00    +0.123 A 
ATOM     33  C   UNL     1      -3.463   2.988  -0.056  0.00  0.00    +0.039 A 
ATOM     34  C   UNL     1      -2.697   2.378  -1.031  0.00  0.00    +0.009 A 
ATOM     35  F   UNL     1      -4.928   2.812   1.798  0.00  0.00    -0.205 F 
ENDBRANCH  23  29
ENDBRANCH  19  20
ENDBRANCH   2  19
TORSDOF 9
