REMARK  Name = ZINC63425849
REMARK  10 active torsions:
REMARK  status: ('A' for Active; 'I' for Inactive)
REMARK    1  A    between atoms: C_1  and  O_2
REMARK    2  A    between atoms: O_2  and  C_3
REMARK    3  A    between atoms: C_7  and  N_9
REMARK    4  A    between atoms: C_13  and  N_14
REMARK    5  A    between atoms: N_14  and  C_15
REMARK    6  A    between atoms: C_15  and  C_17
REMARK    7  A    between atoms: C_15  and  C_27
REMARK    8  A    between atoms: C_17  and  C_18
REMARK    9  A    between atoms: C_27  and  O_29
REMARK   10  A    between atoms: O_29  and  C_30
REMARK                            x       y       z     vdW  Elec       q    Type
REMARK                         _______ _______ _______ _____ _____    ______ ____
ROOT
ATOM      1  N   UNL     1      -2.555  -4.048   0.271  0.00  0.00    -0.190 N 
ATOM      2  C   UNL     1      -3.743  -4.674   0.141  0.00  0.00    +0.265 C 
ATOM      3  O   UNL     1      -4.751  -4.051  -0.136  0.00  0.00    -0.269 OA
ATOM      4  C   UNL     1      -3.787  -6.133   0.343  0.00  0.00    +0.113 C 
ATOM      5  C   UNL     1      -4.968  -6.842   0.226  0.00  0.00    +0.086 C 
ATOM      6  C   UNL     1      -2.517  -6.803   0.674  0.00  0.00    +0.258 C 
ATOM      7  O   UNL     1      -2.474  -8.006   0.855  0.00  0.00    -0.270 OA
ATOM      8  N   UNL     1      -1.404  -6.048   0.771  0.00  0.00    -0.235 N 
ATOM      9  C   UNL     1      -1.436  -4.723   0.569  0.00  0.00    +0.320 C 
ATOM     10  O   UNL     1      -0.397  -4.100   0.666  0.00  0.00    -0.251 OA
ATOM     11  H   UNL     1      -0.560  -6.473   0.989  0.00  0.00    +0.159 HD
ENDROOT
BRANCH   1  16
ATOM     12  C   UNL     1      -2.105  -0.459   0.960  0.00  0.00    +0.122 A 
ATOM     13  C   UNL     1      -2.359   0.081  -0.294  0.00  0.00    +0.046 A 
ATOM     14  C   UNL     1      -2.676  -0.747  -1.353  0.00  0.00    +0.005 A 
ATOM     15  C   UNL     1      -2.741  -2.115  -1.169  0.00  0.00    +0.024 A 
ATOM     16  C   UNL     1      -2.488  -2.661   0.083  0.00  0.00    +0.049 A 
ATOM     17  C   UNL     1      -2.164  -1.831   1.147  0.00  0.00    +0.069 A 
BRANCH  12  19
ATOM     18  C   UNL     1      -1.752   1.760   1.735  0.00  0.00    +0.277 C 
ATOM     19  O   UNL     1      -1.794   0.357   2.001  0.00  0.00    -0.495 OA
ENDBRANCH  12  19
ENDBRANCH   1  16
BRANCH   5  20
ATOM     20  N   UNL     1      -4.960  -8.187   0.322  0.00  0.00    -0.336 N 
ATOM     21  H   UNL     1      -4.117  -8.662   0.391  0.00  0.00    +0.146 HD
BRANCH  20  22
ATOM     22  C   UNL     1      -6.222  -8.929   0.322  0.00  0.00    +0.184 C 
BRANCH  22  23
ATOM     23  C   UNL     1      -6.776  -8.977   1.723  0.00  0.00    +0.328 C 
ATOM     24  O   UNL     1      -6.178  -8.445   2.628  0.00  0.00    -0.249 OA
BRANCH  23  25
ATOM     25  O   UNL     1      -7.935  -9.610   1.965  0.00  0.00    -0.467 OA
ATOM     26  C   UNL     1      -8.401  -9.616   3.316  0.00  0.00    +0.280 C 
ENDBRANCH  23  25
ENDBRANCH  22  23
BRANCH  22  27
ATOM     27  C   UNL     1      -5.976 -10.354  -0.178  0.00  0.00    +0.066 C 
BRANCH  27  28
ATOM     28  C   UNL     1      -5.539 -10.312  -1.619  0.00  0.00    -0.039 C 
ATOM     29  C   UNL     1      -4.269 -10.321  -2.084  0.00  0.00    -0.001 A 
ATOM     30  C   UNL     1      -2.965 -10.370  -1.413  0.00  0.00    +0.010 A 
ATOM     31  C   UNL     1      -1.840 -10.366  -2.164  0.00  0.00    +0.001 A 
ATOM     32  C   UNL     1      -1.889 -10.316  -3.564  0.00  0.00    +0.002 A 
ATOM     33  C   UNL     1      -3.049 -10.269  -4.252  0.00  0.00    +0.026 A 
ATOM     34  C   UNL     1      -4.293 -10.269  -3.564  0.00  0.00    +0.043 A 
ATOM     35  N   UNL     1      -5.530 -10.229  -3.996  0.00  0.00    -0.380 N 
ATOM     36  C   UNL     1      -6.432 -10.258  -2.839  0.00  0.00    +0.144 C 
ATOM     37  H   UNL     1      -5.804 -10.191  -4.926  0.00  0.00    +0.160 HD
ENDBRANCH  27  28
ENDBRANCH  22  27
ENDBRANCH  20  22
ENDBRANCH   5  20
TORSDOF 8
