REMARK  Name = ZINC19940032
REMARK  9 active torsions:
REMARK  status: ('A' for Active; 'I' for Inactive)
REMARK    1  A    between atoms: C_1  and  C_2
REMARK    2  A    between atoms: C_2  and  C_3
REMARK    3  A    between atoms: C_2  and  C_4
REMARK    4  A    between atoms: C_7  and  C_10
REMARK    5  A    between atoms: C_10  and  N_11
REMARK    6  A    between atoms: C_13  and  N_27
REMARK    7  A    between atoms: C_16  and  C_18
REMARK    8  A    between atoms: N_20  and  C_21
REMARK    9  A    between atoms: C_21  and  C_22
REMARK                            x       y       z     vdW  Elec       q    Type
REMARK                         _______ _______ _______ _____ _____    ______ ____
ROOT
ATOM      1  N   UNL     1       0.002  -0.004   0.002  0.00  0.00    +0.391 N 
ATOM      2  C   UNL     1      -1.353  -0.551  -0.225  0.00  0.00    -0.050 C 
ATOM      3  C   UNL     1      -1.455  -1.857   0.586  0.00  0.00    +0.093 C 
ATOM      4  C   UNL     1      -0.092  -1.993   1.304  0.00  0.00    +0.019 C 
ATOM      5  C   UNL     1       0.439  -0.538   1.317  0.00  0.00    +0.022 C 
ATOM      6  H   UNL     1       0.693  -0.290  -0.805  0.00  0.00    -0.080 HD
ENDROOT
BRANCH   3   7
ATOM      7  N   UNL     1      -1.674  -2.995  -0.309  0.00  0.00    -0.231 N 
ATOM      8  C   UNL     1      -1.189  -3.137  -1.556  0.00  0.00    +0.245 A 
ATOM      9  N   UNL     1      -1.621  -4.292  -1.999  0.00  0.00    -0.117 NA
ATOM     10  N   UNL     1      -2.335  -4.832  -1.073  0.00  0.00    -0.023 NA
ATOM     11  N   UNL     1      -2.364  -4.054  -0.048  0.00  0.00    -0.044 NA
ENDBRANCH   3   7
BRANCH   5  12
ATOM     12  C   UNL     1       1.942  -0.522   1.425  0.00  0.00    +0.200 C 
ATOM     13  O   UNL     1       2.612  -0.108   0.502  0.00  0.00    -0.278 OA
ATOM     14  N   UNL     1       2.543  -0.968   2.546  0.00  0.00    -0.312 N 
ATOM     15  H   UNL     1       1.935  -1.343   3.383  0.00  0.00    +0.149 HD
BRANCH  14  16
ATOM     16  C   UNL     1       4.004  -0.952   2.651  0.00  0.00    +0.146 C 
BRANCH  16  17
ATOM     17  C   UNL     1       4.417  -1.498   3.993  0.00  0.00    +0.007 A 
ATOM     18  C   UNL     1       4.691  -2.778   4.346  0.00  0.00    +0.013 A 
ATOM     19  C   UNL     1       5.056  -3.049   5.652  0.00  0.00    +0.008 A 
ATOM     20  C   UNL     1       5.130  -2.027   6.540  0.00  0.00    +0.045 A 
ATOM     21  S   UNL     1       4.682  -0.626   5.528  0.00  0.00    -0.100 S 
ENDBRANCH  16  17
ENDBRANCH  14  16
ENDBRANCH   5  12
BRANCH   1  22
ATOM     22  C   UNL     1      -0.018   1.465   0.010  0.00  0.00    -0.042 C 
BRANCH  22  26
ATOM     23  C   UNL     1      -2.017   2.843   3.524  0.00  0.00    -0.045 A 
ATOM     24  C   UNL     1      -0.651   2.630   3.545  0.00  0.00    +0.004 A 
ATOM     25  C   UNL     1      -0.004   2.185   2.407  0.00  0.00    +0.002 A 
ATOM     26  C   UNL     1      -0.723   1.951   1.250  0.00  0.00    -0.064 A 
ATOM     27  C   UNL     1      -2.088   2.168   1.228  0.00  0.00    +0.002 A 
ATOM     28  C   UNL     1      -2.736   2.610   2.367  0.00  0.00    +0.004 A 
BRANCH  23  30
ATOM     29  C   UNL     1      -3.400   4.670   4.473  0.00  0.00    +0.012 C 
ATOM     30  C   UNL     1      -2.723   3.329   4.764  0.00  0.00    +0.013 C 
ATOM     31  C   UNL     1      -3.779   2.305   5.185  0.00  0.00    +0.012 C 
ENDBRANCH  23  30
ENDBRANCH  22  26
ENDBRANCH   1  22
TORSDOF 7
