REMARK  Name = ZINC14574900
REMARK  9 active torsions:
REMARK  status: ('A' for Active; 'I' for Inactive)
REMARK    1  A    between atoms: C_1  and  C_2
REMARK    2  A    between atoms: C_4  and  C_32
REMARK    3  A    between atoms: C_5  and  S_9
REMARK    4  A    between atoms: C_6  and  C_8
REMARK    5  A    between atoms: S_9  and  N_12
REMARK    6  A    between atoms: C_15  and  C_18
REMARK    7  A    between atoms: N_20  and  C_21
REMARK    8  A    between atoms: C_21  and  C_23
REMARK    9  A    between atoms: C_21  and  C_24
REMARK                            x       y       z     vdW  Elec       q    Type
REMARK                         _______ _______ _______ _____ _____    ______ ____
ROOT
ATOM      1  N   UNL     1      -3.620   3.854  -0.877  0.00  0.00    -0.177 NA
ATOM      2  C   UNL     1      -3.589   5.214  -1.432  0.00  0.00    +0.110 C 
ATOM      3  C   UNL     1      -3.001   5.149  -2.850  0.00  0.00    +0.030 C 
ATOM      4  C   UNL     1      -3.803   4.149  -3.684  0.00  0.00    +0.077 C 
ATOM      5  C   UNL     1      -3.697   2.757  -3.055  0.00  0.00    +0.030 C 
ATOM      6  C   UNL     1      -4.288   2.793  -1.643  0.00  0.00    +0.110 C 
ENDROOT
BRANCH   4   7
ATOM      7  C   UNL     1      -3.253   4.109  -5.087  0.00  0.00    +0.217 C 
ATOM      8  O   UNL     1      -2.820   3.071  -5.539  0.00  0.00    -0.275 OA
ATOM      9  N   UNL     1      -3.244   5.228  -5.838  0.00  0.00    -0.309 N 
ATOM     10  H   UNL     1      -3.591   6.058  -5.477  0.00  0.00    +0.149 HD
BRANCH   9  11
ATOM     11  C   UNL     1      -2.709   5.189  -7.202  0.00  0.00    +0.100 C 
ATOM     12  C   UNL     1      -1.192   5.380  -7.160  0.00  0.00    +0.033 C 
BRANCH  11  13
ATOM     13  C   UNL     1      -3.332   6.293  -8.017  0.00  0.00    -0.025 A 
ATOM     14  C   UNL     1      -3.697   6.060  -9.330  0.00  0.00    +0.008 A 
ATOM     15  C   UNL     1      -4.269   7.071 -10.079  0.00  0.00    +0.041 A 
ATOM     16  C   UNL     1      -4.478   8.318  -9.515  0.00  0.00    +0.158 A 
ATOM     17  C   UNL     1      -4.112   8.551  -8.198  0.00  0.00    +0.159 A 
ATOM     18  C   UNL     1      -3.544   7.535  -7.449  0.00  0.00    +0.046 A 
ATOM     19  F   UNL     1      -4.314   9.767  -7.646  0.00  0.00    -0.202 F 
ATOM     20  F   UNL     1      -5.037   9.306 -10.247  0.00  0.00    -0.202 F 
ENDBRANCH  11  13
ENDBRANCH   9  11
ENDBRANCH   4   7
BRANCH   1  21
ATOM     21  S   UNL     1      -2.920   3.524   0.587  0.00  0.00    +0.061 S 
ATOM     22  O   UNL     1      -3.626   2.420   1.136  0.00  0.00    -0.153 OA
ATOM     23  O   UNL     1      -2.799   4.765   1.268  0.00  0.00    -0.153 OA
BRANCH  21  28
ATOM     24  C   UNL     1       2.695   1.605  -0.509  0.00  0.00    +0.044 C 
ATOM     25  C   UNL     1       1.292   2.084  -0.236  0.00  0.00    -0.050 A 
ATOM     26  C   UNL     1       1.017   3.439  -0.214  0.00  0.00    +0.008 A 
ATOM     27  C   UNL     1      -0.269   3.878   0.042  0.00  0.00    -0.024 A 
ATOM     28  C   UNL     1      -1.280   2.964   0.267  0.00  0.00    +0.111 A 
ATOM     29  C   UNL     1      -1.005   1.609   0.244  0.00  0.00    -0.024 A 
ATOM     30  C   UNL     1       0.281   1.169  -0.007  0.00  0.00    +0.008 A 
ATOM     31  C   UNL     1      -2.107   0.612   0.494  0.00  0.00    +0.046 C 
ATOM     32  C   UNL     1      -0.568   5.355   0.071  0.00  0.00    +0.046 C 
ENDBRANCH  21  28
ENDBRANCH   1  21
TORSDOF 5
