REMARK  Name = ZINC34892454
REMARK  8 active torsions:
REMARK  status: ('A' for Active; 'I' for Inactive)
REMARK    1  A    between atoms: C_1  and  C_2
REMARK    2  A    between atoms: C_11  and  S_15
REMARK    3  A    between atoms: S_15  and  C_16
REMARK    4  A    between atoms: C_16  and  C_17
REMARK    5  A    between atoms: C_21  and  C_24
REMARK    6  A    between atoms: C_27  and  N_30
REMARK    7  A    between atoms: N_30  and  C_31
REMARK    8  A    between atoms: N_30  and  C_32
REMARK                            x       y       z     vdW  Elec       q    Type
REMARK                         _______ _______ _______ _____ _____    ______ ____
ROOT
ATOM      1  C   UNL     1      -3.502  -6.239  -1.001  0.00  0.00    +0.105 C 
ENDROOT
BRANCH   1   2
ATOM      2  C   UNL     1      -4.622  -6.007  -2.017  0.00  0.00    +0.110 C 
ATOM      3  C   UNL     1      -5.399  -7.320  -2.289  0.00  0.00    -0.046 C 
ATOM      4  N   UNL     1      -5.943  -7.101  -3.652  0.00  0.00    +0.401 N 
ATOM      5  C   UNL     1      -5.098  -6.056  -4.264  0.00  0.00    +0.094 C 
ATOM      6  O   UNL     1      -4.078  -5.687  -3.318  0.00  0.00    -0.388 OA
ATOM      7  H   UNL     1      -5.886  -7.952  -4.190  0.00  0.00    -0.081 HD
ATOM      8  H   UNL     1      -6.900  -6.785  -3.598  0.00  0.00    -0.081 HD
BRANCH   5   9
ATOM      9  C   UNL     1      -4.459  -6.591  -5.520  0.00  0.00    -0.036 A 
ATOM     10  C   UNL     1      -4.176  -7.940  -5.630  0.00  0.00    +0.006 A 
ATOM     11  C   UNL     1      -3.591  -8.433  -6.780  0.00  0.00    +0.023 A 
ATOM     12  C   UNL     1      -3.286  -7.572  -7.826  0.00  0.00    +0.029 A 
ATOM     13  C   UNL     1      -3.571  -6.217  -7.712  0.00  0.00    +0.023 A 
ATOM     14  C   UNL     1      -4.162  -5.731  -6.562  0.00  0.00    +0.006 A 
BRANCH  12  15
ATOM     15  N   UNL     1      -2.693  -8.067  -8.990  0.00  0.00    -0.336 N 
ATOM     16  C   UNL     1      -2.393  -9.496  -9.108  0.00  0.00    +0.129 C 
ATOM     17  C   UNL     1      -2.372  -7.157 -10.092  0.00  0.00    +0.129 C 
ENDBRANCH  12  15
ENDBRANCH   5   9
ENDBRANCH   1   2
BRANCH   1  18
ATOM     18  S   UNL     1      -2.661  -4.669  -0.658  0.00  0.00    -0.103 S 
BRANCH  18  28
ATOM     19  C   UNL     1      -0.019   1.526   0.010  0.00  0.00    +0.008 C 
ATOM     20  C   UNL     1       0.002  -0.004   0.002  0.00  0.00    -0.009 C 
ATOM     21  C   UNL     1      -1.433  -0.538   0.021  0.00  0.00    +0.008 C 
ATOM     22  C   UNL     1      -1.430  -2.045  -0.236  0.00  0.00    +0.037 C 
ATOM     23  C   UNL     1      -0.471  -2.712   0.747  0.00  0.00    -0.025 A 
ATOM     24  C   UNL     1       0.475  -1.986   1.384  0.00  0.00    -0.004 A 
ATOM     25  S   UNL     1       1.345  -3.146   2.408  0.00  0.00    -0.073 S 
ATOM     26  C   UNL     1       0.441  -4.600   1.984  0.00  0.00    +0.113 A 
ATOM     27  C   UNL     1      -0.517  -4.132   1.050  0.00  0.00    +0.043 A 
ATOM     28  C   UNL     1      -1.416  -5.098   0.512  0.00  0.00    +0.109 A 
ATOM     29  N   UNL     1      -1.256  -6.347   0.950  0.00  0.00    -0.229 NA
ATOM     30  C   UNL     1      -0.339  -6.709   1.824  0.00  0.00    +0.223 A 
ATOM     31  N   UNL     1       0.528  -5.860   2.364  0.00  0.00    -0.228 NA
ATOM     32  C   UNL     1       0.737  -0.516   1.249  0.00  0.00    +0.046 C 
ENDBRANCH  18  28
ENDBRANCH   1  18
TORSDOF 5
