REMARK  Name = ZINC09315445
REMARK  8 active torsions:
REMARK  status: ('A' for Active; 'I' for Inactive)
REMARK    1  A    between atoms: C_1  and  C_2
REMARK    2  A    between atoms: C_7  and  C_8
REMARK    3  A    between atoms: C_7  and  N_59
REMARK    4  A    between atoms: C_12  and  C_15
REMARK    5  A    between atoms: N_22  and  C_23
REMARK    6  A    between atoms: C_23  and  C_24
REMARK    7  A    between atoms: N_26  and  C_27
REMARK    8  A    between atoms: C_27  and  C_28
REMARK                            x       y       z     vdW  Elec       q    Type
REMARK                         _______ _______ _______ _____ _____    ______ ____
ROOT
ATOM      1  C   UNL     1       1.979  -2.463  -2.817  0.00  0.00    +0.097 A 
ATOM      2  N   UNL     1       1.069  -2.987  -2.040  0.00  0.00    -0.228 NA
ATOM      3  C   UNL     1       0.198  -2.219  -1.391  0.00  0.00    +0.116 A 
ATOM      4  C   UNL     1       0.208  -0.820  -1.512  0.00  0.00    +0.080 A 
ATOM      5  C   UNL     1      -0.810  -0.124  -0.732  0.00  0.00    +0.010 A 
ATOM      6  C   UNL     1      -1.669  -0.858   0.019  0.00  0.00    +0.057 A 
ATOM      7  S   UNL     1      -1.147  -2.536  -0.278  0.00  0.00    -0.076 S 
ATOM      8  C   UNL     1       1.221  -0.278  -2.366  0.00  0.00    +0.263 A 
ATOM      9  O   UNL     1       1.313   0.926  -2.530  0.00  0.00    -0.267 OA
ATOM     10  N   UNL     1       2.067  -1.119  -2.989  0.00  0.00    -0.289 N 
ENDROOT
BRANCH   5  11
ATOM     11  C   UNL     1      -0.907   1.350  -0.764  0.00  0.00    +0.021 A 
ATOM     12  C   UNL     1      -2.005   2.138  -0.989  0.00  0.00    +0.016 A 
ATOM     13  C   UNL     1      -1.852   3.508  -0.967  0.00  0.00    +0.008 A 
ATOM     14  C   UNL     1      -0.623   4.033  -0.735  0.00  0.00    +0.046 A 
ATOM     15  S   UNL     1       0.377   2.568  -0.529  0.00  0.00    -0.097 S 
ENDBRANCH   5  11
BRANCH   1  16
ATOM     16  C   UNL     1       2.949  -3.367  -3.534  0.00  0.00    -0.003 C 
BRANCH  16  23
ATOM     17  C   UNL     1       3.118  -8.758  -1.643  0.00  0.00    +0.007 C 
ATOM     18  C   UNL     1       3.516  -7.343  -2.068  0.00  0.00    -0.018 C 
ATOM     19  C   UNL     1       2.768  -6.321  -1.207  0.00  0.00    -0.016 C 
ATOM     20  C   UNL     1       3.123  -4.908  -1.676  0.00  0.00    -0.078 C 
ATOM     21  C   UNL     1       3.491  -5.691  -3.940  0.00  0.00    -0.078 C 
ATOM     22  C   UNL     1       3.147  -7.127  -3.538  0.00  0.00    -0.016 C 
ATOM     23  N   UNL     1       2.721  -4.757  -3.091  0.00  0.00    +0.384 N 
ATOM     24  H   UNL     1       1.721  -4.975  -3.177  0.00  0.00    -0.081 HD
ENDBRANCH  16  23
ENDBRANCH   1  16
BRANCH  10  25
ATOM     25  C   UNL     1       3.103  -0.574  -3.870  0.00  0.00    +0.222 C 
BRANCH  25  26
ATOM     26  C   UNL     1       2.564  -0.470  -5.274  0.00  0.00    +0.233 C 
ATOM     27  O   UNL     1       1.428  -0.817  -5.515  0.00  0.00    -0.274 OA
ATOM     28  N   UNL     1       3.347   0.009  -6.261  0.00  0.00    -0.307 N 
ATOM     29  H   UNL     1       4.256   0.286  -6.069  0.00  0.00    +0.149 HD
BRANCH  28  30
ATOM     30  C   UNL     1       2.824   0.110  -7.626  0.00  0.00    +0.178 C 
BRANCH  30  31
ATOM     31  C   UNL     1       3.889   0.671  -8.532  0.00  0.00    +0.122 A 
ATOM     32  C   UNL     1       4.799  -0.047  -9.215  0.00  0.00    +0.046 A 
ATOM     33  C   UNL     1       5.596   0.876  -9.931  0.00  0.00    +0.041 A 
ATOM     34  C   UNL     1       5.125   2.103  -9.642  0.00  0.00    +0.195 A 
ATOM     35  O   UNL     1       4.088   1.972  -8.799  0.00  0.00    -0.466 OA
ENDBRANCH  30  31
ENDBRANCH  28  30
ENDBRANCH  25  26
ENDBRANCH  10  25
TORSDOF 7
