REMARK  Name = ZINC58864321
REMARK  8 active torsions:
REMARK  status: ('A' for Active; 'I' for Inactive)
REMARK    1  A    between atoms: C_1  and  C_2
REMARK    2  A    between atoms: C_2  and  C_4
REMARK    3  A    between atoms: C_2  and  N_14
REMARK    4  A    between atoms: C_6  and  O_12
REMARK    5  A    between atoms: C_9  and  O_10
REMARK    6  A    between atoms: O_10  and  C_11
REMARK    7  A    between atoms: O_12  and  C_13
REMARK    8  A    between atoms: N_17  and  C_18
REMARK                            x       y       z     vdW  Elec       q    Type
REMARK                         _______ _______ _______ _____ _____    ______ ____
ROOT
ATOM      1  N   UNL     1       0.658  -0.512   1.059  0.00  0.00    -0.292 N 
ATOM      2  C   UNL     1       0.042  -0.762   2.231  0.00  0.00    +0.304 C 
ATOM      3  O   UNL     1      -1.151  -0.556   2.348  0.00  0.00    -0.252 OA
ATOM      4  N   UNL     1       0.747  -1.241   3.275  0.00  0.00    -0.268 N 
ATOM      5  H   UNL     1       1.609  -0.677   0.967  0.00  0.00    +0.151 HD
ATOM      6  H   UNL     1       1.711  -1.328   3.210  0.00  0.00    +0.156 HD
ENDROOT
BRANCH   4   7
ATOM      7  C   UNL     1       0.088  -1.614   4.455  0.00  0.00    +0.052 A 
ATOM      8  C   UNL     1      -1.248  -1.987   4.415  0.00  0.00    +0.073 A 
ATOM      9  C   UNL     1      -1.900  -2.356   5.582  0.00  0.00    +0.164 A 
ATOM     10  C   UNL     1      -1.212  -2.354   6.790  0.00  0.00    +0.163 A 
ATOM     11  C   UNL     1       0.122  -1.980   6.827  0.00  0.00    +0.066 A 
ATOM     12  C   UNL     1       0.773  -1.616   5.662  0.00  0.00    +0.043 A 
ATOM     13 BR   UNL     1       2.596  -1.114   5.716  0.00  0.00    -0.048 Br
ATOM     14  O   UNL     1      -1.834  -2.721   7.945  0.00  0.00    -0.485 OA
ATOM     15  C   UNL     1      -3.265  -2.731   7.931  0.00  0.00    +0.270 C 
ATOM     16  C   UNL     1      -3.728  -3.439   6.650  0.00  0.00    +0.270 C 
ATOM     17  O   UNL     1      -3.212  -2.716   5.527  0.00  0.00    -0.485 OA
ENDBRANCH   4   7
BRANCH   1  19
ATOM     18  C   UNL     1      -0.103   1.538  -0.036  0.00  0.00    +0.033 C 
ATOM     19  C   UNL     1      -0.110   0.008  -0.075  0.00  0.00    +0.105 C 
BRANCH  19  20
ATOM     20  C   UNL     1       0.515  -0.464  -1.363  0.00  0.00    +0.018 A 
ATOM     21  C   UNL     1       1.856  -0.792  -1.401  0.00  0.00    +0.054 A 
ATOM     22  C   UNL     1       2.431  -1.227  -2.586  0.00  0.00    +0.121 A 
ATOM     23  C   UNL     1       1.658  -1.334  -3.733  0.00  0.00    +0.049 A 
ATOM     24  C   UNL     1       0.317  -1.007  -3.695  0.00  0.00    +0.049 A 
ATOM     25  C   UNL     1      -0.259  -0.576  -2.508  0.00  0.00    +0.125 A 
BRANCH  25  26
ATOM     26  O   UNL     1      -1.581  -0.260  -2.470  0.00  0.00    -0.495 OA
ATOM     27  C   UNL     1      -2.317  -0.398  -3.687  0.00  0.00    +0.277 C 
ENDBRANCH  25  26
BRANCH  22  28
ATOM     28  O   UNL     1       3.752  -1.548  -2.623  0.00  0.00    -0.495 OA
ATOM     29  C   UNL     1       4.277  -1.990  -3.877  0.00  0.00    +0.277 C 
ENDBRANCH  22  28
ENDBRANCH  19  20
ENDBRANCH   1  19
TORSDOF 5
