REMARK  Name = ZINC23197200
REMARK  14 active torsions:
REMARK  status: ('A' for Active; 'I' for Inactive)
REMARK    1  A    between atoms: C_1  and  C_2
REMARK    2  A    between atoms: C_2  and  N_3
REMARK    3  A    between atoms: N_3  and  C_4
REMARK    4  A    between atoms: N_3  and  C_6
REMARK    5  A    between atoms: C_4  and  C_5
REMARK    6  A    between atoms: C_6  and  C_8
REMARK    7  A    between atoms: C_6  and  C_15
REMARK    8  A    between atoms: C_8  and  C_9
REMARK    9  A    between atoms: C_15  and  N_16
REMARK   10  A    between atoms: C_17  and  C_19
REMARK   11  A    between atoms: C_23  and  S_25
REMARK   12  A    between atoms: S_25  and  N_28
REMARK   13  A    between atoms: C_30  and  C_37
REMARK   14  A    between atoms: C_33  and  C_36
REMARK                            x       y       z     vdW  Elec       q    Type
REMARK                         _______ _______ _______ _____ _____    ______ ____
ROOT
ATOM      1  N   UNL     1      -4.869   0.580   2.906  0.00  0.00    -0.313 N 
ATOM      2  C   UNL     1      -5.971  -0.110   3.262  0.00  0.00    +0.244 C 
ATOM      3  O   UNL     1      -6.459  -0.915   2.494  0.00  0.00    -0.270 OA
ATOM      4  H   UNL     1      -4.377   1.244   3.632  0.00  0.00    +0.149 HD
ENDROOT
BRANCH   2   5
ATOM      5  C   UNL     1      -6.586   0.114   4.588  0.00  0.00    +0.039 A 
ATOM      6  C   UNL     1      -6.098   1.116   5.427  0.00  0.00    +0.013 A 
ATOM      7  C   UNL     1      -6.677   1.320   6.663  0.00  0.00    +0.003 A 
ATOM      8  C   UNL     1      -7.740   0.533   7.070  0.00  0.00    +0.028 A 
ATOM      9  C   UNL     1      -8.229  -0.462   6.243  0.00  0.00    +0.106 A 
ATOM     10  C   UNL     1      -7.662  -0.673   5.003  0.00  0.00    +0.041 A 
BRANCH   9  11
ATOM     11  S   UNL     1      -9.582  -1.459   6.771  0.00  0.00    +0.061 S 
ATOM     12  O   UNL     1      -9.499  -2.676   6.043  0.00  0.00    -0.153 OA
ATOM     13  O   UNL     1      -9.586  -1.419   8.192  0.00  0.00    -0.153 OA
BRANCH  11  14
ATOM     14  N   UNL     1     -10.970  -0.704   6.274  0.00  0.00    -0.172 NA
ATOM     15  C   UNL     1     -11.652   0.274   7.136  0.00  0.00    +0.140 C 
ATOM     16  C   UNL     1     -11.908   1.545   6.311  0.00  0.00    +0.131 C 
ATOM     17  O   UNL     1     -12.579   1.190   5.100  0.00  0.00    -0.371 OA
ATOM     18  C   UNL     1     -11.824   0.333   4.241  0.00  0.00    +0.131 C 
ATOM     19  C   UNL     1     -11.560  -0.996   4.958  0.00  0.00    +0.140 C 
ATOM     20  C   UNL     1     -12.612   0.073   2.955  0.00  0.00    +0.039 C 
ATOM     21  C   UNL     1     -12.781   2.509   7.117  0.00  0.00    +0.039 C 
ENDBRANCH  11  14
ENDBRANCH   9  11
ENDBRANCH   2   5
BRANCH   1  22
ATOM     22  C   UNL     1      -4.326   0.445   1.552  0.00  0.00    +0.089 C 
BRANCH  22  23
ATOM     23  C   UNL     1      -3.040   1.265   1.434  0.00  0.00    -0.047 C 
BRANCH  23  24
ATOM     24  N   UNL     1      -3.341   2.684   1.665  0.00  0.00    +0.382 N 
ATOM     25  H   UNL     1      -2.676   3.280   1.022  0.00  0.00    -0.081 HD
BRANCH  24  27
ATOM     26  C   UNL     1      -4.847   3.049  -0.231  0.00  0.00    -0.017 C 
ATOM     27  C   UNL     1      -4.727   2.995   1.294  0.00  0.00    -0.082 C 
ENDBRANCH  24  27
BRANCH  24  28
ATOM     28  C   UNL     1      -3.073   3.058   3.061  0.00  0.00    -0.082 C 
ATOM     29  C   UNL     1      -1.565   3.211   3.267  0.00  0.00    -0.017 C 
ENDBRANCH  24  28
ENDBRANCH  23  24
BRANCH  23  30
ATOM     30  C   UNL     1      -2.450   1.090   0.033  0.00  0.00    +0.021 C 
BRANCH  30  31
ATOM     31  C   UNL     1      -1.132   1.815  -0.051  0.00  0.00    -0.049 A 
ATOM     32  C   UNL     1       0.027   1.194   0.376  0.00  0.00    +0.003 A 
ATOM     33  C   UNL     1       1.237   1.856   0.293  0.00  0.00    +0.000 A 
ATOM     34  C   UNL     1       1.288   3.142  -0.211  0.00  0.00    +0.000 A 
ATOM     35  C   UNL     1       0.129   3.766  -0.633  0.00  0.00    +0.000 A 
ATOM     36  C   UNL     1      -1.081   3.103  -0.550  0.00  0.00    +0.003 A 
ENDBRANCH  30  31
ENDBRANCH  23  30
ENDBRANCH  22  23
ENDBRANCH   1  22
TORSDOF 10
