REMARK  Name = ZINC20257588
REMARK  6 active torsions:
REMARK  status: ('A' for Active; 'I' for Inactive)
REMARK    1  A    between atoms: C_1  and  C_2
REMARK    2  A    between atoms: C_5  and  N_20
REMARK    3  A    between atoms: C_7  and  N_8
REMARK    4  A    between atoms: N_8  and  S_9
REMARK    5  A    between atoms: S_9  and  N_12
REMARK    6  A    between atoms: C_17  and  C_19
REMARK                            x       y       z     vdW  Elec       q    Type
REMARK                         _______ _______ _______ _____ _____    ______ ____
ROOT
ATOM      1  N   UNL     1       3.469  -1.270  -0.669  0.00  0.00    -0.206 N 
ATOM      2  H   UNL     1       3.202  -2.287  -0.992  0.00  0.00    +0.175 HD
ENDROOT
BRANCH   1   9
ATOM      3  C   UNL     1       2.097  -1.316  -3.158  0.00  0.00    +0.046 C 
ATOM      4  C   UNL     1       3.150  -0.284  -2.848  0.00  0.00    -0.028 A 
ATOM      5  C   UNL     1       3.469   0.680  -3.785  0.00  0.00    +0.007 A 
ATOM      6  C   UNL     1       4.439   1.625  -3.507  0.00  0.00    +0.023 A 
ATOM      7  C   UNL     1       5.092   1.611  -2.281  0.00  0.00    +0.026 A 
ATOM      8  C   UNL     1       4.770   0.648  -1.335  0.00  0.00    +0.047 A 
ATOM      9  C   UNL     1       3.796  -0.299  -1.618  0.00  0.00    +0.054 A 
BRANCH   7  10
ATOM     10  N   UNL     1       6.072   2.566  -2.000  0.00  0.00    -0.358 N 
ATOM     11  H   UNL     1       6.589   2.555  -1.029  0.00  0.00    +0.142 HD
ATOM     12  H   UNL     1       6.327   3.329  -2.751  0.00  0.00    +0.142 HD
ENDBRANCH   7  10
ENDBRANCH   1   9
BRANCH   1  13
ATOM     13  S   UNL     1       3.482  -0.890   0.943  0.00  0.00    +0.112 S 
ATOM     14  O   UNL     1       4.767  -0.353   1.224  0.00  0.00    -0.138 OA
ATOM     15  O   UNL     1       2.962  -2.019   1.631  0.00  0.00    -0.138 OA
BRANCH  13  16
ATOM     16  N   UNL     1       2.396   0.341   1.165  0.00  0.00    -0.161 NA
ATOM     17  C   UNL     1       2.859   1.717   1.387  0.00  0.00    +0.111 C 
ATOM     18  C   UNL     1       2.216   2.253   2.670  0.00  0.00    +0.017 C 
ATOM     19  C   UNL     1       0.696   2.110   2.573  0.00  0.00    +0.003 C 
ATOM     20  C   UNL     1       0.329   0.630   2.430  0.00  0.00    +0.020 C 
ATOM     21  C   UNL     1       0.951   0.076   1.144  0.00  0.00    +0.078 C 
ATOM     22  C   UNL     1       0.706  -1.432   1.065  0.00  0.00    +0.026 C 
ENDBRANCH  13  16
ENDBRANCH   1  13
TORSDOF 4
