REMARK  Name = ZINC61311010
REMARK  9 active torsions:
REMARK  status: ('A' for Active; 'I' for Inactive)
REMARK    1  A    between atoms: C_1  and  C_2
REMARK    2  A    between atoms: C_5  and  S_10
REMARK    3  A    between atoms: N_6  and  C_7
REMARK    4  A    between atoms: C_7  and  C_8
REMARK    5  A    between atoms: S_10  and  C_11
REMARK    6  A    between atoms: C_11  and  C_12
REMARK    7  A    between atoms: C_12  and  C_13
REMARK    8  A    between atoms: C_13  and  C_14
REMARK    9  A    between atoms: C_16  and  C_19
REMARK                            x       y       z     vdW  Elec       q    Type
REMARK                         _______ _______ _______ _____ _____    ______ ____
ROOT
ATOM      1  C   UNL     1       0.096  -6.259   1.010  0.00  0.00    +0.020 C 
ENDROOT
BRANCH   1   2
ATOM      2  C   UNL     1       0.073  -4.897   0.313  0.00  0.00    +0.078 C 
BRANCH   2   3
ATOM      3  S   UNL     1       0.059  -3.580   1.560  0.00  0.00    -0.086 S 
BRANCH   3   8
ATOM      4  C   UNL     1      -0.018   1.503   0.010  0.00  0.00    +0.088 C 
ATOM      5  C   UNL     1       0.002  -0.004   0.002  0.00  0.00    +0.131 A 
ATOM      6  N   UNL     1       0.008  -0.770  -1.052  0.00  0.00    -0.134 NA
ATOM      7  N   UNL     1       0.027  -2.006  -0.699  0.00  0.00    -0.123 NA
ATOM      8  C   UNL     1       0.034  -2.095   0.611  0.00  0.00    +0.192 A 
ATOM      9  N   UNL     1       0.024  -0.820   1.099  0.00  0.00    -0.302 N 
BRANCH   9  10
ATOM     10  C   UNL     1       0.031  -0.411   2.506  0.00  0.00    +0.152 C 
BRANCH  10  11
ATOM     11  C   UNL     1      -1.388  -0.291   3.001  0.00  0.00    -0.013 C 
ATOM     12  C   UNL     1      -1.769  -0.957   4.063  0.00  0.00    +0.005 C 
ENDBRANCH  10  11
ENDBRANCH   9  10
ENDBRANCH   3   8
ENDBRANCH   2   3
ENDBRANCH   1   2
BRANCH   1  13
ATOM     13  C   UNL     1       0.107  -7.370  -0.042  0.00  0.00    +0.099 C 
BRANCH  13  14
ATOM     14  C   UNL     1       0.129  -8.712   0.645  0.00  0.00    +0.228 A 
ATOM     15  N   UNL     1      -0.917  -9.407   0.991  0.00  0.00    -0.191 NA
ATOM     16  C   UNL     1      -0.533 -10.553   1.581  0.00  0.00    +0.202 A 
ATOM     17  N   UNL     1       0.776 -10.591   1.611  0.00  0.00    -0.056 NA
ATOM     18  O   UNL     1       1.227  -9.393   0.997  0.00  0.00    -0.338 OA
BRANCH  16  19
ATOM     19  C   UNL     1      -1.442 -11.601   2.110  0.00  0.00    +0.022 A 
ATOM     20  C   UNL     1      -2.822 -11.443   2.011  0.00  0.00    +0.012 A 
ATOM     21  C   UNL     1      -3.663 -12.421   2.505  0.00  0.00    +0.001 A 
ATOM     22  C   UNL     1      -3.136 -13.555   3.096  0.00  0.00    +0.000 A 
ATOM     23  C   UNL     1      -1.766 -13.716   3.196  0.00  0.00    +0.001 A 
ATOM     24  C   UNL     1      -0.917 -12.748   2.701  0.00  0.00    +0.012 A 
ENDBRANCH  16  19
ENDBRANCH  13  14
ENDBRANCH   1  13
TORSDOF 8
