REMARK  Name = ZINC38719471
REMARK  10 active torsions:
REMARK  status: ('A' for Active; 'I' for Inactive)
REMARK    1  A    between atoms: C_1  and  C_2
REMARK    2  A    between atoms: C_3  and  C_14
REMARK    3  A    between atoms: C_5  and  C_7
REMARK    4  A    between atoms: C_17  and  S_20
REMARK    5  A    between atoms: S_20  and  C_21
REMARK    6  A    between atoms: C_21  and  C_22
REMARK    7  A    between atoms: N_24  and  C_25
REMARK    8  A    between atoms: C_25  and  C_26
REMARK    9  A    between atoms: C_25  and  C_27
REMARK   10  A    between atoms: C_25  and  C_28
REMARK                            x       y       z     vdW  Elec       q    Type
REMARK                         _______ _______ _______ _____ _____    ______ ____
ROOT
ATOM      1  C   UNL     1      -0.009  -0.175  -2.573  0.00  0.00    +0.102 A 
ATOM      2  C   UNL     1      -0.008  -1.067  -3.655  0.00  0.00    +0.033 A 
ATOM      3  C   UNL     1      -0.022  -0.544  -4.923  0.00  0.00    +0.039 A 
ATOM      4  C   UNL     1      -0.036   0.846  -5.062  0.00  0.00    +0.120 A 
ATOM      5  N   UNL     1      -0.035   1.619  -3.986  0.00  0.00    -0.142 NA
ATOM      6  N   UNL     1      -0.028   1.134  -2.797  0.00  0.00    -0.148 NA
ENDROOT
BRANCH   1   9
ATOM      7  C   UNL     1      -0.018   1.503   0.010  0.00  0.00    +0.067 C 
ATOM      8  C   UNL     1       0.002  -0.004   0.002  0.00  0.00    +0.055 A 
ATOM      9  C   UNL     1       0.005  -0.689  -1.189  0.00  0.00    +0.062 A 
ATOM     10  S   UNL     1       0.031  -2.377  -0.597  0.00  0.00    -0.065 S 
ATOM     11  C   UNL     1       0.035  -1.996   1.150  0.00  0.00    +0.109 A 
ATOM     12  N   UNL     1       0.022  -0.669   1.129  0.00  0.00    -0.244 NA
BRANCH  11  13
ATOM     13  C   UNL     1       0.053  -2.913   2.308  0.00  0.00    +0.007 A 
ATOM     14  C   UNL     1       0.076  -4.295   2.107  0.00  0.00    +0.013 A 
ATOM     15  C   UNL     1       0.092  -5.146   3.192  0.00  0.00    +0.039 A 
ATOM     16  C   UNL     1       0.086  -4.633   4.479  0.00  0.00    +0.123 A 
ATOM     17  C   UNL     1       0.063  -3.263   4.684  0.00  0.00    +0.039 A 
ATOM     18  C   UNL     1       0.053  -2.402   3.607  0.00  0.00    +0.013 A 
ATOM     19  F   UNL     1       0.103  -5.472   5.538  0.00  0.00    -0.205 F 
ENDBRANCH  11  13
ENDBRANCH   1   9
BRANCH   4  20
ATOM     20  S   UNL     1      -0.053   1.570  -6.668  0.00  0.00    -0.095 S 
BRANCH  20  21
ATOM     21  C   UNL     1      -0.068   3.355  -6.345  0.00  0.00    +0.171 C 
BRANCH  21  22
ATOM     22  C   UNL     1      -0.084   4.103  -7.653  0.00  0.00    +0.224 C 
ATOM     23  O   UNL     1      -0.085   3.492  -8.701  0.00  0.00    -0.275 OA
ATOM     24  N   UNL     1      -0.096   5.451  -7.659  0.00  0.00    -0.310 N 
ATOM     25  H   UNL     1      -0.095   5.939  -6.821  0.00  0.00    +0.149 HD
BRANCH  24  26
ATOM     26  C   UNL     1      -0.112   6.178  -8.931  0.00  0.00    +0.026 C 
ATOM     27  C   UNL     1      -1.363   5.793  -9.723  0.00  0.00    +0.031 C 
ATOM     28  C   UNL     1      -0.124   7.683  -8.658  0.00  0.00    +0.031 C 
ATOM     29  C   UNL     1       1.136   5.816  -9.740  0.00  0.00    +0.031 C 
ENDBRANCH  24  26
ENDBRANCH  21  22
ENDBRANCH  20  21
ENDBRANCH   4  20
TORSDOF 6
