REMARK  Name = ZINC12631659
REMARK  13 active torsions:
REMARK  status: ('A' for Active; 'I' for Inactive)
REMARK    1  A    between atoms: C_1  and  C_2
REMARK    2  A    between atoms: C_2  and  O_3
REMARK    3  A    between atoms: O_3  and  C_4
REMARK    4  A    between atoms: C_4  and  C_6
REMARK    5  A    between atoms: C_6  and  N_7
REMARK    6  A    between atoms: C_11  and  S_29
REMARK    7  A    between atoms: N_16  and  C_17
REMARK    8  A    between atoms: C_17  and  C_19
REMARK    9  A    between atoms: C_19  and  S_20
REMARK   10  A    between atoms: S_20  and  C_21
REMARK   11  A    between atoms: C_24  and  O_27
REMARK   12  A    between atoms: O_27  and  C_28
REMARK   13  A    between atoms: S_29  and  N_32
REMARK                            x       y       z     vdW  Elec       q    Type
REMARK                         _______ _______ _______ _____ _____    ______ ____
ROOT
ATOM      1  N   UNL     1       1.157  -1.786  -0.175  0.00  0.00    -0.310 N 
ATOM      2  C   UNL     1       2.431  -1.993  -0.669  0.00  0.00    +0.058 A 
ATOM      3  C   UNL     1       3.024  -3.200  -1.071  0.00  0.00    +0.029 A 
ATOM      4  C   UNL     1       4.314  -3.226  -1.544  0.00  0.00    +0.030 A 
ATOM      5  C   UNL     1       5.067  -2.067  -1.639  0.00  0.00    +0.106 A 
ATOM      6  C   UNL     1       4.507  -0.863  -1.251  0.00  0.00    +0.045 A 
ATOM      7  C   UNL     1       3.217  -0.837  -0.777  0.00  0.00    +0.041 A 
ATOM      8  S   UNL     1       2.136   0.446  -0.196  0.00  0.00    -0.052 S 
ATOM      9  C   UNL     1       0.752  -0.534   0.165  0.00  0.00    +0.167 A 
ATOM     10  N   UNL     1      -0.427  -0.151   0.652  0.00  0.00    -0.156 NA
ENDROOT
BRANCH   5  11
ATOM     11  S   UNL     1       6.720  -2.126  -2.248  0.00  0.00    +0.056 S 
ATOM     12  O   UNL     1       7.387  -0.987  -1.724  0.00  0.00    -0.153 OA
ATOM     13  O   UNL     1       7.187  -3.450  -2.029  0.00  0.00    -0.153 OA
BRANCH  11  14
ATOM     14  N   UNL     1       6.645  -1.917  -3.889  0.00  0.00    -0.204 NA
ATOM     15  H   UNL     1       7.381  -1.494  -4.358  0.00  0.00    +0.144 HD
ATOM     16  H   UNL     1       5.865  -2.217  -4.381  0.00  0.00    +0.144 HD
ENDBRANCH  11  14
ENDBRANCH   5  11
BRANCH  10  17
ATOM     17  C   UNL     1      -0.646   1.130   0.928  0.00  0.00    +0.249 C 
ATOM     18  O   UNL     1       0.229   1.952   0.737  0.00  0.00    -0.273 OA
BRANCH  17  19
ATOM     19  C   UNL     1      -1.982   1.565   1.474  0.00  0.00    +0.172 C 
BRANCH  19  20
ATOM     20  S   UNL     1      -1.970   3.358   1.746  0.00  0.00    -0.116 S 
BRANCH  20  21
ATOM     21  C   UNL     1      -3.579   3.705   2.376  0.00  0.00    +0.009 A 
ATOM     22  C   UNL     1      -4.498   2.676   2.540  0.00  0.00    +0.018 A 
ATOM     23  C   UNL     1      -5.756   2.948   3.038  0.00  0.00    +0.047 A 
ATOM     24  C   UNL     1      -6.107   4.250   3.364  0.00  0.00    +0.120 A 
ATOM     25  C   UNL     1      -5.192   5.279   3.196  0.00  0.00    +0.047 A 
ATOM     26  C   UNL     1      -3.931   5.008   2.703  0.00  0.00    +0.018 A 
BRANCH  24  27
ATOM     27  O   UNL     1      -7.349   4.518   3.850  0.00  0.00    -0.495 OA
ATOM     28  C   UNL     1      -8.240   3.410   3.998  0.00  0.00    +0.277 C 
ENDBRANCH  24  27
ENDBRANCH  20  21
ENDBRANCH  19  20
ENDBRANCH  17  19
ENDBRANCH  10  17
BRANCH   1  29
ATOM     29  C   UNL     1       0.241  -2.919  -0.015  0.00  0.00    +0.244 C 
BRANCH  29  30
ATOM     30  C   UNL     1      -0.514  -2.776   1.281  0.00  0.00    +0.327 C 
ATOM     31  O   UNL     1      -0.196  -1.923   2.075  0.00  0.00    -0.249 OA
BRANCH  30  32
ATOM     32  O   UNL     1      -1.541  -3.596   1.553  0.00  0.00    -0.464 OA
BRANCH  32  34
ATOM     33  C   UNL     1      -3.356  -4.421   2.952  0.00  0.00    +0.048 C 
ATOM     34  C   UNL     1      -2.223  -3.401   2.820  0.00  0.00    +0.229 C 
ENDBRANCH  32  34
ENDBRANCH  30  32
ENDBRANCH  29  30
ENDBRANCH   1  29
TORSDOF 11
