REMARK  Name = ZINC38671704
REMARK  12 active torsions:
REMARK  status: ('A' for Active; 'I' for Inactive)
REMARK    1  A    between atoms: C_1  and  C_2
REMARK    2  A    between atoms: C_3  and  C_34
REMARK    3  A    between atoms: C_4  and  C_33
REMARK    4  A    between atoms: C_5  and  S_10
REMARK    5  A    between atoms: C_6  and  C_9
REMARK    6  A    between atoms: C_7  and  C_8
REMARK    7  A    between atoms: S_10  and  N_13
REMARK    8  A    between atoms: N_13  and  C_14
REMARK    9  A    between atoms: C_14  and  C_15
REMARK   10  A    between atoms: C_15  and  C_17
REMARK   11  A    between atoms: C_15  and  N_27
REMARK   12  A    between atoms: N_25  and  C_26
REMARK                            x       y       z     vdW  Elec       q    Type
REMARK                         _______ _______ _______ _____ _____    ______ ____
ROOT
ATOM      1  C   UNL     1       3.885  -3.920   2.499  0.00  0.00    -0.022 C 
ENDROOT
BRANCH   1   2
ATOM      2  C   UNL     1       4.282  -3.358   3.839  0.00  0.00    -0.059 A 
ATOM      3  C   UNL     1       4.746  -2.059   3.937  0.00  0.00    +0.004 A 
ATOM      4  C   UNL     1       5.111  -1.542   5.161  0.00  0.00    +0.023 A 
ATOM      5  C   UNL     1       5.015  -2.326   6.313  0.00  0.00    +0.033 A 
ATOM      6  C   UNL     1       4.549  -3.627   6.205  0.00  0.00    -0.025 A 
ATOM      7  C   UNL     1       4.179  -4.138   4.976  0.00  0.00    +0.007 A 
ATOM      8  C   UNL     1       4.541  -4.251   7.582  0.00  0.00    +0.056 C 
ATOM      9  C   UNL     1       5.065  -3.143   8.511  0.00  0.00    +0.109 C 
ATOM     10  N   UNL     1       5.328  -1.999   7.634  0.00  0.00    -0.332 N 
ATOM     11  C   UNL     1       5.844  -0.702   8.078  0.00  0.00    +0.129 C 
ENDBRANCH   1   2
BRANCH   1  12
ATOM     12  N   UNL     1       4.841  -3.473   1.477  0.00  0.00    +0.385 N 
ATOM     13  C   UNL     1       4.431  -3.988   0.166  0.00  0.00    -0.078 C 
ATOM     14  C   UNL     1       5.377  -3.458  -0.914  0.00  0.00    -0.019 C 
ATOM     15  C   UNL     1       6.804  -3.921  -0.606  0.00  0.00    -0.004 C 
ATOM     16  C   UNL     1       7.195  -3.441   0.795  0.00  0.00    -0.019 C 
ATOM     17  C   UNL     1       6.181  -3.971   1.811  0.00  0.00    -0.078 C 
ATOM     18  H   UNL     1       4.856  -2.464   1.451  0.00  0.00    -0.081 HD
ENDBRANCH   1  12
BRANCH   1  19
ATOM     19  C   UNL     1       2.483  -3.428   2.135  0.00  0.00    +0.095 C 
BRANCH  19  20
ATOM     20  N   UNL     1       1.516  -3.947   3.105  0.00  0.00    -0.191 NA
ATOM     21  H   UNL     1       1.768  -4.668   3.703  0.00  0.00    +0.148 HD
BRANCH  20  22
ATOM     22  S   UNL     1      -0.008  -3.303   3.182  0.00  0.00    +0.059 S 
ATOM     23  O   UNL     1       0.150  -1.891   3.229  0.00  0.00    -0.153 OA
ATOM     24  O   UNL     1      -0.704  -4.025   4.188  0.00  0.00    -0.153 OA
BRANCH  22  29
ATOM     25  C   UNL     1      -2.737  -4.559  -2.050  0.00  0.00    +0.044 C 
ATOM     26  C   UNL     1      -2.056  -4.245  -0.744  0.00  0.00    -0.044 A 
ATOM     27  C   UNL     1      -1.363  -3.058  -0.593  0.00  0.00    -0.043 A 
ATOM     28  C   UNL     1      -0.738  -2.770   0.606  0.00  0.00    -0.021 A 
ATOM     29  C   UNL     1      -0.806  -3.669   1.654  0.00  0.00    +0.112 A 
ATOM     30  C   UNL     1      -1.499  -4.855   1.504  0.00  0.00    -0.021 A 
ATOM     31  C   UNL     1      -2.128  -5.141   0.306  0.00  0.00    -0.043 A 
ATOM     32  C   UNL     1      -2.888  -6.432   0.144  0.00  0.00    +0.044 C 
ATOM     33  C   UNL     1      -1.572  -5.835   2.646  0.00  0.00    +0.046 C 
ATOM     34  C   UNL     1       0.018  -1.477   0.770  0.00  0.00    +0.046 C 
ATOM     35  C   UNL     1      -1.289  -2.079  -1.735  0.00  0.00    +0.044 C 
ENDBRANCH  22  29
ENDBRANCH  20  22
ENDBRANCH  19  20
ENDBRANCH   1  19
TORSDOF 6
