REMARK  Name = ZINC26942356
REMARK  8 active torsions:
REMARK  status: ('A' for Active; 'I' for Inactive)
REMARK    1  A    between atoms: C_1  and  C_2
REMARK    2  A    between atoms: C_5  and  C_25
REMARK    3  A    between atoms: N_8  and  C_10
REMARK    4  A    between atoms: C_13  and  C_19
REMARK    5  A    between atoms: C_15  and  N_16
REMARK    6  A    between atoms: N_21  and  C_22
REMARK    7  A    between atoms: C_22  and  C_23
REMARK    8  A    between atoms: C_22  and  C_24
REMARK                            x       y       z     vdW  Elec       q    Type
REMARK                         _______ _______ _______ _____ _____    ______ ____
ROOT
ATOM      1  C   UNL     1       0.630  -1.863  -1.303  0.00  0.00    +0.060 A 
ATOM      2  C   UNL     1       1.151  -2.668  -0.293  0.00  0.00    +0.026 A 
ATOM      3  C   UNL     1       1.077  -4.038  -0.396  0.00  0.00    +0.015 A 
ATOM      4  C   UNL     1       0.478  -4.622  -1.516  0.00  0.00    +0.039 A 
ATOM      5  C   UNL     1      -0.044  -3.811  -2.528  0.00  0.00    +0.047 A 
ATOM      6  C   UNL     1       0.029  -2.441  -2.417  0.00  0.00    +0.148 A 
ENDROOT
BRANCH   1  12
ATOM      7  C   UNL     1       3.601   1.975  -1.220  0.00  0.00    +0.009 C 
ATOM      8  C   UNL     1       2.145   1.503  -1.232  0.00  0.00    +0.003 C 
ATOM      9  C   UNL     1       1.420   2.051  -0.001  0.00  0.00    +0.009 C 
ATOM     10  C   UNL     1      -0.019   1.526   0.010  0.00  0.00    +0.003 C 
ATOM     11  C   UNL     1       0.002  -0.004   0.002  0.00  0.00    +0.108 C 
ATOM     12  N   UNL     1       0.706  -0.479  -1.196  0.00  0.00    -0.328 N 
ATOM     13  C   UNL     1       2.103  -0.026  -1.205  0.00  0.00    +0.108 C 
ATOM     14  C   UNL     1      -0.733   2.020   1.270  0.00  0.00    +0.009 C 
ENDBRANCH   1  12
BRANCH   4  15
ATOM     15  C   UNL     1       0.397  -6.090  -1.630  0.00  0.00    +0.244 C 
ATOM     16  O   UNL     1      -0.124  -6.597  -2.604  0.00  0.00    -0.270 OA
ATOM     17  N   UNL     1       0.901  -6.870  -0.653  0.00  0.00    -0.309 N 
ATOM     18  H   UNL     1       1.372  -6.412   0.229  0.00  0.00    +0.149 HD
BRANCH  17  19
ATOM     19  C   UNL     1       0.821  -8.329  -0.766  0.00  0.00    +0.067 C 
ATOM     20  C   UNL     1       1.938  -8.967   0.063  0.00  0.00    +0.027 C 
ATOM     21  C   UNL     1      -0.536  -8.807  -0.246  0.00  0.00    +0.027 C 
ENDBRANCH  17  19
ENDBRANCH   4  15
BRANCH   6  22
ATOM     22  N   UNL     1      -0.528  -1.582  -3.486  0.00  0.00    +0.058 N 
ATOM     23  O   UNL     1      -1.055  -2.088  -4.461  0.00  0.00    -0.126 OA
ATOM     24  O   UNL     1      -0.460  -0.370  -3.390  0.00  0.00    -0.126 OA
ENDBRANCH   6  22
TORSDOF 4
