REMARK  Name = ZINC04453377
REMARK  9 active torsions:
REMARK  status: ('A' for Active; 'I' for Inactive)
REMARK    1  A    between atoms: C_1  and  C_2
REMARK    2  A    between atoms: C_2  and  C_3
REMARK    3  A    between atoms: C_2  and  C_4
REMARK    4  A    between atoms: C_7  and  C_10
REMARK    5  A    between atoms: N_15  and  C_29
REMARK    6  A    between atoms: C_19  and  C_25
REMARK    7  A    between atoms: C_19  and  C_27
REMARK    8  A    between atoms: C_20  and  N_24
REMARK    9  A    between atoms: C_21  and  C_22
REMARK                            x       y       z     vdW  Elec       q    Type
REMARK                         _______ _______ _______ _____ _____    ______ ____
ROOT
ATOM      1  C   UNL     1      -5.419  -2.005   0.043  0.00  0.00    +0.069 C 
ATOM      2  C   UNL     1      -5.390  -3.537   0.059  0.00  0.00    +0.044 C 
ATOM      3  C   UNL     1      -4.388  -4.008   1.104  0.00  0.00    +0.093 C 
ATOM      4  N   UNL     1      -3.826  -5.315   0.753  0.00  0.00    -0.301 NA
ATOM      5  C   UNL     1      -3.066  -5.218  -0.503  0.00  0.00    +0.111 C 
ATOM      6  C   UNL     1      -4.002  -4.757  -1.588  0.00  0.00    -0.009 C 
ATOM      7  C   UNL     1      -5.019  -4.017  -1.319  0.00  0.00    -0.028 C 
ATOM      8  C   UNL     1      -5.935  -3.622  -2.462  0.00  0.00    +0.202 C 
ATOM      9  C   UNL     1      -6.358  -2.192  -2.278  0.00  0.00    +0.054 C 
ATOM     10  C   UNL     1      -6.141  -1.496  -1.165  0.00  0.00    +0.057 C 
ATOM     11  C   UNL     1      -2.985  -5.835   1.839  0.00  0.00    +0.105 C 
ENDROOT
BRANCH   1  15
ATOM     12  C   UNL     1      -1.412  -0.526   0.013  0.00  0.00    -0.045 A 
ATOM     13  C   UNL     1      -2.259  -0.204   1.056  0.00  0.00    +0.004 A 
ATOM     14  C   UNL     1      -3.556  -0.683   1.066  0.00  0.00    +0.004 A 
ATOM     15  C   UNL     1      -4.006  -1.482   0.032  0.00  0.00    -0.039 A 
ATOM     16  C   UNL     1      -3.159  -1.803  -1.012  0.00  0.00    +0.004 A 
ATOM     17  C   UNL     1      -1.863  -1.321  -1.024  0.00  0.00    +0.004 A 
BRANCH  12  19
ATOM     18  C   UNL     1      -0.019   1.526   0.010  0.00  0.00    +0.012 C 
ATOM     19  C   UNL     1       0.002  -0.004   0.002  0.00  0.00    +0.013 C 
ATOM     20  C   UNL     1       0.742  -0.511   1.242  0.00  0.00    +0.012 C 
ENDBRANCH  12  19
ENDBRANCH   1  15
BRANCH   9  21
ATOM     21  N   UNL     1      -7.003  -1.570  -3.315  0.00  0.00    -0.358 N 
ATOM     22  H   UNL     1      -7.174  -2.053  -4.139  0.00  0.00    +0.142 HD
ATOM     23  H   UNL     1      -7.287  -0.647  -3.226  0.00  0.00    +0.142 HD
ENDBRANCH   9  21
BRANCH  10  24
ATOM     24  C   UNL     1      -6.638  -0.154  -1.121  0.00  0.00    +0.097 C 
ATOM     25  N   UNL     1      -7.032   0.911  -1.086  0.00  0.00    -0.191 NA
ENDBRANCH  10  24
BRANCH   8  26
ATOM     26  C   UNL     1      -5.218  -3.764  -3.740  0.00  0.00    +0.095 C 
ATOM     27  N   UNL     1      -4.665  -3.873  -4.726  0.00  0.00    -0.194 NA
ENDBRANCH   8  26
BRANCH   8  28
ATOM     28  C   UNL     1      -7.124  -4.491  -2.462  0.00  0.00    +0.095 C 
ATOM     29  N   UNL     1      -8.041  -5.161  -2.463  0.00  0.00    -0.194 NA
ENDBRANCH   8  28
TORSDOF 6
