REMARK  Name = ZINC36783981
REMARK  11 active torsions:
REMARK  status: ('A' for Active; 'I' for Inactive)
REMARK    1  A    between atoms: C_1  and  C_2
REMARK    2  A    between atoms: C_2  and  C_3
REMARK    3  A    between atoms: C_3  and  C_5
REMARK    4  A    between atoms: C_3  and  C_6
REMARK    5  A    between atoms: C_9  and  C_12
REMARK    6  A    between atoms: C_12  and  C_14
REMARK    7  A    between atoms: C_12  and  N_17
REMARK    8  A    between atoms: C_14  and  C_15
REMARK    9  A    between atoms: C_14  and  C_16
REMARK   10  A    between atoms: C_18  and  C_20
REMARK   11  A    between atoms: C_20  and  N_21
REMARK                            x       y       z     vdW  Elec       q    Type
REMARK                         _______ _______ _______ _____ _____    ______ ____
ROOT
ATOM      1  N   UNL     1       0.632  -6.699  -2.905  0.00  0.00    -0.307 N 
ATOM      2  C   UNL     1       1.101  -7.939  -3.143  0.00  0.00    +0.231 C 
ATOM      3  O   UNL     1       1.320  -8.693  -2.219  0.00  0.00    -0.274 OA
ATOM      4  H   UNL     1       0.456  -6.096  -3.644  0.00  0.00    +0.149 HD
ENDROOT
BRANCH   1   5
ATOM      5  C   UNL     1       0.387  -6.260  -1.528  0.00  0.00    +0.106 C 
BRANCH   5   9
ATOM      6  C   UNL     1       0.632  -2.000  -1.327  0.00  0.00    -0.045 A 
ATOM      7  C   UNL     1       1.163  -2.772  -0.311  0.00  0.00    +0.004 A 
ATOM      8  C   UNL     1       1.084  -4.150  -0.376  0.00  0.00    +0.006 A 
ATOM      9  C   UNL     1       0.472  -4.757  -1.457  0.00  0.00    -0.027 A 
ATOM     10  C   UNL     1      -0.060  -3.986  -2.473  0.00  0.00    +0.006 A 
ATOM     11  C   UNL     1       0.016  -2.607  -2.406  0.00  0.00    +0.004 A 
BRANCH   6  12
ATOM     12  C   UNL     1       0.718  -0.497  -1.257  0.00  0.00    +0.016 C 
ATOM     13  C   UNL     1       2.187  -0.073  -1.207  0.00  0.00    +0.012 C 
BRANCH  12  15
ATOM     14  C   UNL     1      -0.019   1.526   0.010  0.00  0.00    +0.004 C 
ATOM     15  C   UNL     1       0.002  -0.004   0.002  0.00  0.00    +0.004 C 
ENDBRANCH  12  15
ENDBRANCH   6  12
ENDBRANCH   5   9
BRANCH   5  16
ATOM     16  C   UNL     1      -1.007  -6.713  -1.089  0.00  0.00    +0.008 C 
ATOM     17  C   UNL     1      -2.048  -6.200  -2.087  0.00  0.00    +0.009 C 
ATOM     18  C   UNL     1      -1.056  -8.242  -1.042  0.00  0.00    +0.009 C 
ENDBRANCH   5  16
ENDBRANCH   1   5
BRANCH   2  19
ATOM     19  C   UNL     1       1.353  -8.390  -4.559  0.00  0.00    +0.213 C 
BRANCH  19  20
ATOM     20  N   UNL     1       1.856  -9.766  -4.551  0.00  0.00    -0.215 N 
ATOM     21  C   UNL     1       3.164 -10.096  -4.477  0.00  0.00    +0.251 C 
ATOM     22  O   UNL     1       4.110  -9.341  -4.407  0.00  0.00    -0.272 OA
ATOM     23  C   UNL     1       3.195 -11.602  -4.500  0.00  0.00    +0.138 C 
ATOM     24  C   UNL     1       3.854 -12.163  -3.233  0.00  0.00    +0.045 C 
ATOM     25  C   UNL     1       5.310 -12.390  -3.698  0.00  0.00    +0.038 C 
ATOM     26  C   UNL     1       5.224 -12.580  -5.198  0.00  0.00    -0.042 A 
ATOM     27  C   UNL     1       4.000 -12.123  -5.659  0.00  0.00    -0.012 A 
ATOM     28  C   UNL     1       3.704 -12.200  -7.010  0.00  0.00    +0.006 A 
ATOM     29  C   UNL     1       4.621 -12.728  -7.896  0.00  0.00    +0.000 A 
ATOM     30  C   UNL     1       5.842 -13.184  -7.436  0.00  0.00    +0.000 A 
ATOM     31  C   UNL     1       6.141 -13.109  -6.089  0.00  0.00    +0.004 A 
ATOM     32  N   UNL     1       1.789 -11.998  -4.591  0.00  0.00    -0.281 N 
ATOM     33  C   UNL     1       1.076 -10.854  -4.610  0.00  0.00    +0.310 C 
ATOM     34  O   UNL     1      -0.137 -10.814  -4.676  0.00  0.00    -0.252 OA
ATOM     35  H   UNL     1       1.440 -12.903  -4.627  0.00  0.00    +0.152 HD
ENDBRANCH  19  20
ENDBRANCH   2  19
TORSDOF 7
