REMARK  Name = ZINC06385943
REMARK  8 active torsions:
REMARK  status: ('A' for Active; 'I' for Inactive)
REMARK    1  A    between atoms: C_1  and  C_2
REMARK    2  A    between atoms: C_2  and  O_3
REMARK    3  A    between atoms: O_3  and  C_4
REMARK    4  A    between atoms: C_4  and  C_6
REMARK    5  A    between atoms: C_10  and  N_11
REMARK    6  A    between atoms: C_12  and  C_14
REMARK    7  A    between atoms: C_15  and  N_27
REMARK    8  A    between atoms: C_26  and  N_58
REMARK                            x       y       z     vdW  Elec       q    Type
REMARK                         _______ _______ _______ _____ _____    ______ ____
ROOT
ATOM      1  N   UNL     1      -1.193   2.070   0.019  0.00  0.00    -0.275 N 
ATOM      2  C   UNL     1      -0.017   1.412   0.010  0.00  0.00    +0.257 C 
ATOM      3  O   UNL     1       1.029   2.036   0.003  0.00  0.00    -0.269 OA
ATOM      4  H   UNL     1      -2.027   1.574   0.020  0.00  0.00    +0.156 HD
ENDROOT
BRANCH   2   5
ATOM      5  C   UNL     1       0.002  -0.004   0.002  0.00  0.00    +0.097 A 
ATOM      6  C   UNL     1       1.095  -0.843  -0.018  0.00  0.00    +0.053 A 
ATOM      7  C   UNL     1       0.862  -2.279  -0.018  0.00  0.00    +0.029 A 
ATOM      8  C   UNL     1       1.809  -3.331  -0.034  0.00  0.00    +0.016 A 
ATOM      9  C   UNL     1       1.370  -4.639  -0.038  0.00  0.00    -0.042 A 
ATOM     10  C   UNL     1       0.014  -4.916  -0.024  0.00  0.00    +0.042 A 
ATOM     11  N   UNL     1      -0.867  -3.928  -0.011  0.00  0.00    -0.244 NA
ATOM     12  C   UNL     1      -0.497  -2.667  -0.008  0.00  0.00    +0.111 A 
ATOM     13  S   UNL     1      -1.381  -1.127   0.009  0.00  0.00    -0.062 S 
ATOM     14  C   UNL     1      -0.504  -6.332  -0.022  0.00  0.00    +0.037 C 
ATOM     15  C   UNL     1       0.603  -7.293  -0.458  0.00  0.00    -0.073 C 
ATOM     16  C   UNL     1       2.402  -5.737  -0.066  0.00  0.00    -0.042 C 
ATOM     17  C   UNL     1       2.779  -8.108   0.231  0.00  0.00    -0.096 C 
ATOM     18  N   UNL     1       1.798  -7.009   0.365  0.00  0.00    +0.381 N 
ATOM     19  H   UNL     1       1.516  -6.930   1.349  0.00  0.00    -0.082 HD
BRANCH   6  20
ATOM     20  N   UNL     1       2.385  -0.332  -0.035  0.00  0.00    -0.356 N 
ATOM     21  H   UNL     1       2.526   0.628  -0.032  0.00  0.00    +0.142 HD
ATOM     22  H   UNL     1       3.145  -0.934  -0.050  0.00  0.00    +0.142 HD
ENDBRANCH   6  20
ENDBRANCH   2   5
BRANCH   1  27
ATOM     23  C   UNL     1      -2.312   4.303   0.031  0.00  0.00    +0.091 A 
ATOM     24  C   UNL     1      -2.056   5.734   0.043  0.00  0.00    -0.021 A 
ATOM     25  C   UNL     1      -0.752   6.085   0.038  0.00  0.00    -0.004 A 
ATOM     26  S   UNL     1       0.131   4.550   0.026  0.00  0.00    -0.077 S 
ATOM     27  C   UNL     1      -1.212   3.455   0.027  0.00  0.00    +0.087 A 
ATOM     28  C   UNL     1      -0.190   7.473   0.043  0.00  0.00    +0.043 C 
ATOM     29  C   UNL     1      -1.315   8.451  -0.324  0.00  0.00    +0.005 C 
ATOM     30  C   UNL     1      -2.551   8.120   0.517  0.00  0.00    +0.005 C 
ATOM     31  C   UNL     1      -3.153   6.791   0.056  0.00  0.00    +0.037 C 
BRANCH  23  32
ATOM     32  C   UNL     1      -3.678   3.776   0.027  0.00  0.00    +0.342 C 
ATOM     33  O   UNL     1      -4.246   3.552   1.079  0.00  0.00    -0.245 OA
BRANCH  32  34
ATOM     34  O   UNL     1      -4.306   3.540  -1.143  0.00  0.00    -0.461 OA
BRANCH  34  36
ATOM     35  C   UNL     1      -6.204   2.815  -2.487  0.00  0.00    +0.048 C 
ATOM     36  C   UNL     1      -5.659   3.018  -1.071  0.00  0.00    +0.229 C 
ENDBRANCH  34  36
ENDBRANCH  32  34
ENDBRANCH  23  32
ENDBRANCH   1  27
TORSDOF 6
