REMARK  Name = ZINC22708033
REMARK  6 active torsions:
REMARK  status: ('A' for Active; 'I' for Inactive)
REMARK    1  A    between atoms: C_1  and  C_2
REMARK    2  A    between atoms: C_2  and  C_3
REMARK    3  A    between atoms: C_3  and  C_23
REMARK    4  A    between atoms: N_6  and  C_10
REMARK    5  A    between atoms: C_10  and  C_11
REMARK    6  A    between atoms: C_13  and  C_16
REMARK                            x       y       z     vdW  Elec       q    Type
REMARK                         _______ _______ _______ _____ _____    ______ ____
ROOT
ATOM      1  C   UNL     1      -0.074   5.619   0.032  0.00  0.00    +0.138 C 
ATOM      2  C   UNL     1      -0.025   6.160  -1.383  0.00  0.00    +0.251 C 
ATOM      3  O   UNL     1      -0.836   5.979  -2.266  0.00  0.00    -0.272 OA
ATOM      4  N   UNL     1       1.110   6.884  -1.457  0.00  0.00    -0.215 N 
ATOM      5  C   UNL     1       1.777   6.876  -0.297  0.00  0.00    +0.310 C 
ATOM      6  O   UNL     1       2.828   7.458  -0.119  0.00  0.00    -0.252 OA
ATOM      7  N   UNL     1       1.151   6.151   0.652  0.00  0.00    -0.281 N 
ATOM      8  H   UNL     1       1.382   5.917   1.702  0.00  0.00    +0.152 HD
ENDROOT
BRANCH   1   9
ATOM      9  C   UNL     1      -0.054   4.112   0.024  0.00  0.00    -0.015 A 
ATOM     10  C   UNL     1       1.153   3.438   0.009  0.00  0.00    +0.009 A 
ATOM     11  C   UNL     1       1.173   2.056   0.002  0.00  0.00    +0.039 A 
ATOM     12  C   UNL     1      -0.016   1.347   0.009  0.00  0.00    +0.123 A 
ATOM     13  C   UNL     1      -1.224   2.023   0.019  0.00  0.00    +0.039 A 
ATOM     14  C   UNL     1      -1.242   3.405   0.031  0.00  0.00    +0.009 A 
ATOM     15  F   UNL     1       0.002  -0.004   0.002  0.00  0.00    -0.205 F 
ENDBRANCH   1   9
BRANCH   1  17
ATOM     16  C   UNL     1      -1.312   7.665   0.755  0.00  0.00    +0.007 C 
ATOM     17  C   UNL     1      -1.315   6.135   0.762  0.00  0.00    +0.037 C 
ENDBRANCH   1  17
BRANCH   4  18
ATOM     18  C   UNL     1       1.557   7.593  -2.659  0.00  0.00    +0.216 C 
BRANCH  18  19
ATOM     19  C   UNL     1       0.999   8.992  -2.654  0.00  0.00    +0.246 A 
ATOM     20  N   UNL     1       1.562  10.052  -2.130  0.00  0.00    -0.190 NA
ATOM     21  C   UNL     1       0.706  11.072  -2.366  0.00  0.00    +0.202 A 
ATOM     22  N   UNL     1      -0.319  10.575  -3.007  0.00  0.00    -0.056 NA
ATOM     23  O   UNL     1      -0.166   9.384  -3.179  0.00  0.00    -0.336 OA
BRANCH  21  24
ATOM     24  C   UNL     1       0.894  12.490  -1.968  0.00  0.00    +0.023 A 
ATOM     25  C   UNL     1       2.042  12.877  -1.280  0.00  0.00    +0.013 A 
ATOM     26  C   UNL     1       2.215  14.197  -0.918  0.00  0.00    +0.021 A 
ATOM     27  C   UNL     1       1.244  15.134  -1.226  0.00  0.00    +0.041 A 
ATOM     28  C   UNL     1       0.098  14.754  -1.904  0.00  0.00    +0.021 A 
ATOM     29  C   UNL     1      -0.081  13.437  -2.276  0.00  0.00    +0.013 A 
ATOM     30 CL   UNL     1       1.464  16.792  -0.762  0.00  0.00    -0.084 Cl
ENDBRANCH  21  24
ENDBRANCH  18  19
ENDBRANCH   4  18
TORSDOF 5
