REMARK  Name = ZINC11267531
REMARK  6 active torsions:
REMARK  status: ('A' for Active; 'I' for Inactive)
REMARK    1  A    between atoms: C_1  and  C_2
REMARK    2  A    between atoms: N_10  and  N_14
REMARK    3  A    between atoms: C_15  and  C_17
REMARK    4  A    between atoms: C_17  and  N_18
REMARK    5  A    between atoms: C_21  and  C_25
REMARK    6  A    between atoms: C_21  and  C_26
REMARK                            x       y       z     vdW  Elec       q    Type
REMARK                         _______ _______ _______ _____ _____    ______ ____
ROOT
ATOM      1  C   UNL     1       3.374  -4.092  -3.204  0.00  0.00    +0.215 C 
ENDROOT
BRANCH   1   2
ATOM      2  N   UNL     1       3.734  -3.392  -1.969  0.00  0.00    -0.215 N 
ATOM      3  C   UNL     1       2.859  -2.712  -1.202  0.00  0.00    +0.251 C 
ATOM      4  O   UNL     1       1.671  -2.569  -1.397  0.00  0.00    -0.272 OA
ATOM      5  C   UNL     1       3.669  -2.162  -0.045  0.00  0.00    +0.136 C 
ATOM      6  N   UNL     1       5.035  -2.641  -0.321  0.00  0.00    -0.281 N 
ATOM      7  C   UNL     1       4.971  -3.348  -1.463  0.00  0.00    +0.310 C 
ATOM      8  O   UNL     1       5.931  -3.888  -1.978  0.00  0.00    -0.252 OA
ATOM      9  C   UNL     1       3.157  -2.720   1.284  0.00  0.00    +0.047 C 
ATOM     10  H   UNL     1       5.826  -2.478   0.217  0.00  0.00    +0.152 HD
BRANCH   5  11
ATOM     11  C   UNL     1       3.627  -0.655  -0.037  0.00  0.00    -0.008 A 
ATOM     12  C   UNL     1       4.771   0.062  -0.210  0.00  0.00    +0.007 A 
ATOM     13  C   UNL     1       4.752   1.455  -0.205  0.00  0.00    +0.001 A 
ATOM     14  C   UNL     1       3.589   2.139  -0.027  0.00  0.00    +0.008 A 
ATOM     15  C   UNL     1       2.388   1.433   0.155  0.00  0.00    -0.018 A 
ATOM     16  C   UNL     1       2.407   0.016   0.150  0.00  0.00    -0.012 A 
ATOM     17  C   UNL     1       1.206  -0.690   0.332  0.00  0.00    +0.009 A 
ATOM     18  C   UNL     1       0.043  -0.006   0.509  0.00  0.00    +0.001 A 
ATOM     19  C   UNL     1       0.024   1.388   0.514  0.00  0.00    +0.001 A 
ATOM     20  C   UNL     1       1.167   2.105   0.341  0.00  0.00    +0.008 A 
ENDBRANCH   5  11
ENDBRANCH   1   2
BRANCH   1  22
ATOM     21  N   UNL     1       3.233  -3.582  -5.620  0.00  0.00    -0.222 N 
ATOM     22  C   UNL     1       3.513  -3.152  -4.374  0.00  0.00    +0.248 C 
ATOM     23  O   UNL     1       3.878  -2.010  -4.194  0.00  0.00    -0.273 OA
ATOM     24  H   UNL     1       2.942  -4.496  -5.765  0.00  0.00    +0.174 HD
BRANCH  21  34
ATOM     25  C   UNL     1       3.411   1.399 -11.792  0.00  0.00    +0.007 C 
ATOM     26  C   UNL     1       2.759   0.548 -10.700  0.00  0.00    -0.014 C 
ATOM     27  C   UNL     1       3.239   1.024  -9.328  0.00  0.00    +0.006 C 
ATOM     28  C   UNL     1       2.577   0.179  -8.236  0.00  0.00    +0.035 C 
ATOM     29  C   UNL     1       2.938  -1.288  -8.439  0.00  0.00    +0.114 C 
ATOM     30  C   UNL     1       2.484  -1.771  -9.812  0.00  0.00    +0.035 C 
ATOM     31  C   UNL     1       3.146  -0.918 -10.898  0.00  0.00    +0.006 C 
ATOM     32  C   UNL     1       2.323  -2.142  -7.354  0.00  0.00    +0.263 C 
ATOM     33  O   UNL     1       1.143  -2.287  -7.114  0.00  0.00    -0.271 OA
ATOM     34  N   UNL     1       3.363  -2.708  -6.708  0.00  0.00    -0.137 N 
ATOM     35  C   UNL     1       4.534  -2.336  -7.238  0.00  0.00    +0.326 C 
ATOM     36  O   UNL     1       5.613  -2.717  -6.829  0.00  0.00    -0.251 OA
ATOM     37  N   UNL     1       4.383  -1.490  -8.275  0.00  0.00    -0.284 N 
ATOM     38  H   UNL     1       5.089  -1.092  -8.809  0.00  0.00    +0.151 HD
ENDBRANCH  21  34
ENDBRANCH   1  22
TORSDOF 4
