REMARK  Name = ZINC05005785
REMARK  7 active torsions:
REMARK  status: ('A' for Active; 'I' for Inactive)
REMARK    1  A    between atoms: C_1  and  C_2
REMARK    2  A    between atoms: C_2  and  N_3
REMARK    3  A    between atoms: C_10  and  C_22
REMARK    4  A    between atoms: C_12  and  O_21
REMARK    5  A    between atoms: C_22  and  C_23
REMARK    6  A    between atoms: C_22  and  C_24
REMARK    7  A    between atoms: C_22  and  C_25
REMARK                            x       y       z     vdW  Elec       q    Type
REMARK                         _______ _______ _______ _____ _____    ______ ____
ROOT
ATOM      1  N   UNL     1      -1.372  -0.511   0.012  0.00  0.00    -0.273 N 
ATOM      2  C   UNL     1      -2.032  -0.759   1.194  0.00  0.00    +0.145 C 
ATOM      3  N   UNL     1      -3.235  -1.390   1.256  0.00  0.00    -0.360 N 
ATOM      4  C   UNL     1      -3.945  -1.829   0.030  0.00  0.00    +0.123 C 
ATOM      5  C   UNL     1      -4.795  -0.653  -0.396  0.00  0.00    +0.021 A 
ATOM      6  C   UNL     1      -6.118  -0.584  -0.003  0.00  0.00    +0.013 A 
ATOM      7  C   UNL     1      -6.895   0.498  -0.374  0.00  0.00    -0.038 A 
ATOM      8  C   UNL     1      -6.346   1.511  -1.137  0.00  0.00    +0.053 A 
ATOM      9  C   UNL     1      -5.023   1.442  -1.537  0.00  0.00    +0.159 A 
ATOM     10  C   UNL     1      -4.239   0.346  -1.171  0.00  0.00    +0.170 A 
ATOM     11  O   UNL     1      -2.961   0.276  -1.607  0.00  0.00    -0.464 OA
ATOM     12  C   UNL     1      -2.090  -0.765  -1.223  0.00  0.00    +0.185 C 
ATOM     13  C   UNL     1      -2.875  -2.114  -0.999  0.00  0.00    +0.079 C 
ATOM     14  C   UNL     1      -3.317  -2.460  -2.418  0.00  0.00    +0.012 C 
ATOM     15  C   UNL     1      -2.026  -2.195  -3.242  0.00  0.00    +0.006 C 
ATOM     16  C   UNL     1      -1.209  -1.118  -2.433  0.00  0.00    +0.069 C 
ATOM     17  S   UNL     1      -1.326  -0.264   2.612  0.00  0.00    -0.016 SA
ATOM     18  H   UNL     1      -3.638  -1.558   2.122  0.00  0.00    +0.162 HD
ENDROOT
BRANCH   7  19
ATOM     19  C   UNL     1      -8.338   0.572   0.053  0.00  0.00    -0.013 C 
ATOM     20  C   UNL     1      -8.419   0.566   1.581  0.00  0.00    +0.015 C 
ATOM     21  C   UNL     1      -8.964   1.860  -0.486  0.00  0.00    +0.015 C 
ATOM     22  C   UNL     1      -9.097  -0.635  -0.502  0.00  0.00    +0.015 C 
ENDBRANCH   7  19
BRANCH   1  24
ATOM     23  C   UNL     1      -0.019   1.526   0.010  0.00  0.00    +0.024 C 
ATOM     24  C   UNL     1       0.002  -0.004   0.002  0.00  0.00    +0.107 C 
ENDBRANCH   1  24
BRANCH   9  25
ATOM     25  O   UNL     1      -4.487   2.442  -2.287  0.00  0.00    -0.503 OA
ATOM     26  H   UNL     1      -4.087   3.152  -1.768  0.00  0.00    +0.292 HD
ENDBRANCH   9  25
TORSDOF 3
