REMARK  Name = ZINC12487886
REMARK  12 active torsions:
REMARK  status: ('A' for Active; 'I' for Inactive)
REMARK    1  A    between atoms: C_1  and  C_2
REMARK    2  A    between atoms: C_2  and  C_3
REMARK    3  A    between atoms: C_6  and  N_9
REMARK    4  A    between atoms: N_9  and  C_10
REMARK    5  A    between atoms: C_10  and  C_12
REMARK    6  A    between atoms: C_10  and  C_19
REMARK    7  A    between atoms: C_15  and  C_18
REMARK    8  A    between atoms: N_21  and  C_22
REMARK    9  A    between atoms: C_22  and  C_23
REMARK   10  A    between atoms: C_28  and  C_30
REMARK   11  A    between atoms: C_30  and  N_31
REMARK   12  A    between atoms: C_32  and  C_34
REMARK                            x       y       z     vdW  Elec       q    Type
REMARK                         _______ _______ _______ _____ _____    ______ ____
ROOT
ATOM      1  N   UNL     1      -3.039   3.201   4.452  0.00  0.00    -0.254 N 
ATOM      2  C   UNL     1      -4.097   2.507   4.915  0.00  0.00    +0.238 C 
ATOM      3  O   UNL     1      -4.486   2.679   6.051  0.00  0.00    -0.274 OA
ENDROOT
BRANCH   1   7
ATOM      4  C   UNL     1      -1.897   2.841   0.462  0.00  0.00    -0.048 A 
ATOM      5  C   UNL     1      -1.728   1.775   1.326  0.00  0.00    +0.005 A 
ATOM      6  C   UNL     1      -2.101   1.893   2.651  0.00  0.00    +0.024 A 
ATOM      7  C   UNL     1      -2.655   3.080   3.112  0.00  0.00    +0.037 A 
ATOM      8  C   UNL     1      -2.828   4.147   2.239  0.00  0.00    +0.024 A 
ATOM      9  C   UNL     1      -2.449   4.024   0.917  0.00  0.00    +0.005 A 
BRANCH   4  11
ATOM     10  C   UNL     1      -0.028   3.152  -1.138  0.00  0.00    +0.009 C 
ATOM     11  C   UNL     1      -1.485   2.711  -0.982  0.00  0.00    +0.032 C 
ENDBRANCH   4  11
ENDBRANCH   1   7
BRANCH   1  12
ATOM     12  C   UNL     1      -2.291   4.083   5.351  0.00  0.00    +0.197 C 
BRANCH  12  13
ATOM     13  C   UNL     1      -1.253   4.840   4.564  0.00  0.00    -0.018 A 
ATOM     14  C   UNL     1      -0.323   4.154   3.807  0.00  0.00    +0.006 A 
ATOM     15  C   UNL     1       0.626   4.849   3.080  0.00  0.00    +0.004 A 
ATOM     16  C   UNL     1       0.651   6.230   3.120  0.00  0.00    -0.050 A 
ATOM     17  C   UNL     1      -0.276   6.917   3.881  0.00  0.00    +0.004 A 
ATOM     18  C   UNL     1      -1.228   6.222   4.604  0.00  0.00    +0.006 A 
ATOM     19  C   UNL     1       1.689   6.988   2.332  0.00  0.00    +0.044 C 
ENDBRANCH  12  13
BRANCH  12  20
ATOM     20  C   UNL     1      -1.612   3.257   6.414  0.00  0.00    +0.239 C 
ATOM     21  O   UNL     1      -1.740   2.051   6.419  0.00  0.00    -0.273 OA
ATOM     22  N   UNL     1      -0.862   3.859   7.358  0.00  0.00    -0.306 N 
ATOM     23  H   UNL     1      -0.759   4.823   7.354  0.00  0.00    +0.149 HD
BRANCH  22  24
ATOM     24  C   UNL     1      -0.202   3.056   8.390  0.00  0.00    +0.178 C 
BRANCH  24  25
ATOM     25  C   UNL     1       0.568   3.963   9.316  0.00  0.00    +0.122 A 
ATOM     26  C   UNL     1       0.090   4.533  10.437  0.00  0.00    +0.046 A 
ATOM     27  C   UNL     1       1.143   5.297  10.989  0.00  0.00    +0.041 A 
ATOM     28  C   UNL     1       2.202   5.148  10.174  0.00  0.00    +0.195 A 
ATOM     29  O   UNL     1       1.850   4.335   9.165  0.00  0.00    -0.466 OA
ENDBRANCH  24  25
ENDBRANCH  22  24
ENDBRANCH  12  20
ENDBRANCH   1  12
BRANCH   2  30
ATOM     30  C   UNL     1      -4.797   1.515   4.022  0.00  0.00    +0.201 C 
BRANCH  30  31
ATOM     31  N   UNL     1      -5.834   0.817   4.785  0.00  0.00    -0.302 N 
ATOM     32  C   UNL     1      -6.594  -0.122   4.188  0.00  0.00    +0.251 C 
ATOM     33  O   UNL     1      -6.419  -0.390   3.014  0.00  0.00    -0.270 OA
ATOM     34  H   UNL     1      -5.974   1.030   5.721  0.00  0.00    +0.150 HD
BRANCH  32  35
ATOM     35  C   UNL     1      -7.631  -0.821   4.952  0.00  0.00    +0.074 A 
ATOM     36  C   UNL     1      -8.515  -1.803   4.531  0.00  0.00    +0.021 A 
ATOM     37  C   UNL     1      -9.393  -2.296   5.464  0.00  0.00    +0.008 A 
ATOM     38  C   UNL     1      -9.363  -1.801   6.729  0.00  0.00    +0.046 A 
ATOM     39  S   UNL     1      -8.092  -0.624   6.664  0.00  0.00    -0.092 S 
ENDBRANCH  32  35
ENDBRANCH  30  31
ENDBRANCH   2  30
TORSDOF 10
