REMARK  Name = ZINC43220786
REMARK  13 active torsions:
REMARK  status: ('A' for Active; 'I' for Inactive)
REMARK    1  A    between atoms: C_1  and  C_2
REMARK    2  A    between atoms: C_2  and  C_3
REMARK    3  A    between atoms: C_5  and  C_16
REMARK    4  A    between atoms: C_6  and  N_8
REMARK    5  A    between atoms: C_9  and  C_11
REMARK    6  A    between atoms: C_16  and  C_18
REMARK    7  A    between atoms: C_16  and  N_28
REMARK    8  A    between atoms: C_21  and  O_26
REMARK    9  A    between atoms: C_23  and  O_24
REMARK   10  A    between atoms: O_24  and  C_25
REMARK   11  A    between atoms: O_26  and  C_27
REMARK   12  A    between atoms: C_31  and  C_36
REMARK   13  A    between atoms: C_33  and  C_35
REMARK                            x       y       z     vdW  Elec       q    Type
REMARK                         _______ _______ _______ _____ _____    ______ ____
ROOT
ATOM      1  C   UNL     1       0.508  -1.639   4.787  0.00  0.00    +0.140 C 
ENDROOT
BRANCH   1   2
ATOM      2  N   UNL     1      -0.690  -0.796   4.798  0.00  0.00    -0.302 N 
ATOM      3  C   UNL     1      -1.681  -0.987   3.851  0.00  0.00    +0.216 A 
ATOM      4  N   UNL     1      -1.565  -1.985   2.987  0.00  0.00    -0.220 NA
ATOM      5  C   UNL     1      -2.494  -2.195   2.069  0.00  0.00    +0.044 A 
ATOM      6  C   UNL     1      -3.596  -1.357   2.018  0.00  0.00    +0.046 A 
ATOM      7  C   UNL     1      -3.686  -0.323   2.936  0.00  0.00    +0.044 A 
ATOM      8  N   UNL     1      -2.724  -0.171   3.832  0.00  0.00    -0.220 NA
ATOM      9  C   UNL     1      -4.866   0.614   2.918  0.00  0.00    +0.066 C 
ATOM     10  C   UNL     1      -2.354  -3.333   1.090  0.00  0.00    +0.066 C 
ATOM     11  H   UNL     1      -0.789  -0.104   5.471  0.00  0.00    +0.150 HD
ENDBRANCH   1   2
BRANCH   1  12
ATOM     12  C   UNL     1       0.103  -3.088   4.873  0.00  0.00    +0.019 A 
ATOM     13  C   UNL     1       0.107  -3.875   3.737  0.00  0.00    +0.013 A 
ATOM     14  C   UNL     1      -0.263  -5.204   3.813  0.00  0.00    +0.046 A 
ATOM     15  C   UNL     1      -0.641  -5.752   5.031  0.00  0.00    +0.124 A 
ATOM     16  C   UNL     1      -0.646  -4.965   6.171  0.00  0.00    +0.091 A 
ATOM     17  C   UNL     1      -0.269  -3.633   6.094  0.00  0.00    +0.129 A 
BRANCH  17  18
ATOM     18  O   UNL     1      -0.267  -2.860   7.212  0.00  0.00    -0.495 OA
ATOM     19  C   UNL     1      -0.560  -3.510   8.450  0.00  0.00    +0.277 C 
ENDBRANCH  17  18
BRANCH  15  20
ATOM     20  O   UNL     1      -1.006  -7.059   5.104  0.00  0.00    -0.495 OA
ATOM     21  C   UNL     1      -0.977  -7.810   3.889  0.00  0.00    +0.277 C 
ENDBRANCH  15  20
ENDBRANCH   1  12
BRANCH   1  24
ATOM     22  C   UNL     1       1.658  -0.170   1.536  0.00  0.00    -0.008 A 
ATOM     23  C   UNL     1       0.949  -0.351   2.677  0.00  0.00    +0.019 A 
ATOM     24  C   UNL     1       1.273  -1.407   3.509  0.00  0.00    +0.006 A 
ATOM     25  C   UNL     1       2.297  -2.233   3.154  0.00  0.00    +0.078 A 
ATOM     26  S   UNL     1       2.823  -1.521   1.603  0.00  0.00    -0.078 S 
BRANCH  25  27
ATOM     27  N   UNL     1       2.800  -3.349   3.825  0.00  0.00    -0.273 N 
ATOM     28  C   UNL     1       3.890  -3.985   3.352  0.00  0.00    +0.284 C 
ATOM     29  O   UNL     1       4.485  -3.538   2.388  0.00  0.00    -0.266 OA
ATOM     30  H   UNL     1       2.364  -3.668   4.631  0.00  0.00    +0.156 HD
BRANCH  28  31
ATOM     31  C   UNL     1       4.361  -5.213   3.999  0.00  0.00    +0.189 A 
ATOM     32  C   UNL     1       5.390  -6.002   3.571  0.00  0.00    +0.054 A 
ATOM     33  C   UNL     1       5.492  -7.063   4.485  0.00  0.00    +0.042 A 
ATOM     34  C   UNL     1       4.533  -6.877   5.419  0.00  0.00    +0.196 A 
ATOM     35  O   UNL     1       3.857  -5.759   5.126  0.00  0.00    -0.458 OA
ENDBRANCH  28  31
ENDBRANCH  25  27
BRANCH  22  37
ATOM     36  C   UNL     1       2.379   2.095   0.830  0.00  0.00    +0.009 C 
ATOM     37  C   UNL     1       1.499   0.893   0.480  0.00  0.00    +0.039 C 
ENDBRANCH  22  37
ENDBRANCH   1  24
TORSDOF 8
