REMARK  Name = ZINC06882813
REMARK  5 active torsions:
REMARK  status: ('A' for Active; 'I' for Inactive)
REMARK    1  A    between atoms: C_3  and  C_10
REMARK    2  A    between atoms: C_5  and  N_7
REMARK    3  A    between atoms: C_13  and  C_15
REMARK    4  A    between atoms: N_17  and  C_18
REMARK    5  A    between atoms: C_19  and  C_26
REMARK                            x       y       z     vdW  Elec       q    Type
REMARK                         _______ _______ _______ _____ _____    ______ ____
ROOT
ATOM      1  C   UNL     1       1.495   8.580   0.035  0.00  0.00    +0.284 C 
ATOM      2  O   UNL     1       1.019   9.700   0.046  0.00  0.00    -0.266 OA
ATOM      3  N   UNL     1       2.833   8.416   0.022  0.00  0.00    -0.273 N 
ATOM      4  H   UNL     1       3.212   7.524   0.014  0.00  0.00    +0.156 HD
ENDROOT
BRANCH   3   5
ATOM      5  C   UNL     1       3.666   9.523   0.021  0.00  0.00    +0.085 A 
ATOM      6  C   UNL     1       5.050   9.558   0.015  0.00  0.00    +0.068 A 
ATOM      7  C   UNL     1       5.694  10.871   0.013  0.00  0.00    -0.023 A 
ATOM      8  C   UNL     1       4.852  11.920   0.026  0.00  0.00    -0.004 A 
ATOM      9  S   UNL     1       3.229  11.198   0.036  0.00  0.00    -0.077 S 
ATOM     10  C   UNL     1       5.587  13.234   0.025  0.00  0.00    +0.043 C 
ATOM     11  C   UNL     1       7.020  12.877  -0.428  0.00  0.00    +0.010 C 
ATOM     12  C   UNL     1       7.128  11.402   0.006  0.00  0.00    +0.037 C 
BRANCH   6  13
ATOM     13  C   UNL     1       5.842   8.324   0.007  0.00  0.00    +0.244 C 
ATOM     14  O   UNL     1       6.165   7.816  -1.050  0.00  0.00    -0.270 OA
ATOM     15  N   UNL     1       6.211   7.753   1.171  0.00  0.00    -0.325 N 
ATOM     16  H   UNL     1       5.952   8.158   2.013  0.00  0.00    +0.145 HD
ATOM     17  H   UNL     1       6.734   6.936   1.165  0.00  0.00    +0.145 HD
ENDBRANCH   6  13
ENDBRANCH   3   5
BRANCH   1  21
ATOM     18  C   UNL     1      -0.070   5.322   0.031  0.00  0.00    +0.136 A 
ATOM     19  C   UNL     1      -1.190   6.103   0.040  0.00  0.00    +0.050 A 
ATOM     20  C   UNL     1      -0.763   7.434   0.049  0.00  0.00    +0.055 A 
ATOM     21  C   UNL     1       0.615   7.410   0.036  0.00  0.00    +0.190 A 
ATOM     22  O   UNL     1       1.011   6.120   0.026  0.00  0.00    -0.450 OA
BRANCH  18  25
ATOM     23  C   UNL     1      -1.222   1.748   0.017  0.00  0.00    +0.003 A 
ATOM     24  C   UNL     1      -1.248   3.127   0.030  0.00  0.00    +0.012 A 
ATOM     25  C   UNL     1      -0.050   3.845   0.023  0.00  0.00    +0.019 A 
ATOM     26  C   UNL     1       1.167   3.160   0.008  0.00  0.00    +0.044 A 
ATOM     27  C   UNL     1       1.178   1.781   0.000  0.00  0.00    +0.127 A 
ATOM     28  C   UNL     1      -0.013   1.076   0.008  0.00  0.00    +0.033 A 
BRANCH  27  29
ATOM     29  N   UNL     1       2.467   1.053  -0.015  0.00  0.00    +0.056 N 
ATOM     30  O   UNL     1       2.479  -0.165  -0.022  0.00  0.00    -0.126 OA
ATOM     31  O   UNL     1       3.516   1.672  -0.022  0.00  0.00    -0.126 OA
ENDBRANCH  27  29
ENDBRANCH  18  25
ENDBRANCH   1  21
TORSDOF 5
