REMARK  Name = ZINC09234622
REMARK  10 active torsions:
REMARK  status: ('A' for Active; 'I' for Inactive)
REMARK    1  A    between atoms: C_1  and  C_2
REMARK    2  A    between atoms: C_2  and  N_68
REMARK    3  A    between atoms: C_14  and  C_18
REMARK    4  A    between atoms: C_18  and  C_19
REMARK    5  A    between atoms: C_19  and  C_20
REMARK    6  A    between atoms: C_19  and  C_21
REMARK    7  A    between atoms: C_24  and  C_26
REMARK    8  A    between atoms: C_24  and  C_27
REMARK    9  A    between atoms: C_29  and  S_31
REMARK   10  A    between atoms: S_31  and  C_32
REMARK                            x       y       z     vdW  Elec       q    Type
REMARK                         _______ _______ _______ _____ _____    ______ ____
ROOT
ATOM      1  C   UNL     1       3.974  -4.633   0.028  0.00  0.00    -0.060 C 
ATOM      2  C   UNL     1       2.570  -4.029  -0.038  0.00  0.00    +0.088 C 
ATOM      3  N   UNL     1       2.669  -2.563  -0.032  0.00  0.00    -0.318 N 
ATOM      4  C   UNL     1       3.458  -2.087  -1.176  0.00  0.00    +0.088 C 
ATOM      5  C   UNL     1       4.863  -2.691  -1.110  0.00  0.00    -0.060 C 
ATOM      6  C   UNL     1       1.411  -1.980  -0.019  0.00  0.00    +0.140 A 
ATOM      7  C   UNL     1       1.268  -0.599  -0.011  0.00  0.00    +0.080 A 
ATOM      8  C   UNL     1       0.002  -0.004   0.002  0.00  0.00    +0.094 A 
ATOM      9  C   UNL     1      -0.018   1.471   0.010  0.00  0.00    +0.037 A 
ATOM     10  C   UNL     1      -1.148   2.320   0.020  0.00  0.00    -0.026 A 
ATOM     11  C   UNL     1      -0.968   3.681   0.034  0.00  0.00    +0.003 A 
ATOM     12  C   UNL     1       0.318   4.208   0.024  0.00  0.00    +0.048 A 
ATOM     13  N   UNL     1       1.369   3.413   0.007  0.00  0.00    -0.244 NA
ATOM     14  C   UNL     1       1.238   2.103   0.002  0.00  0.00    +0.111 A 
ATOM     15  S   UNL     1       2.403   0.762  -0.015  0.00  0.00    -0.064 S 
ATOM     16  C   UNL     1      -2.141   4.627   0.059  0.00  0.00    +0.197 C 
ATOM     17  O   UNL     1      -3.336   3.937  -0.307  0.00  0.00    -0.369 OA
ATOM     18  C   UNL     1      -3.555   2.742   0.450  0.00  0.00    +0.068 C 
ATOM     19  C   UNL     1      -2.519   1.700   0.022  0.00  0.00    +0.070 C 
ATOM     20  C   UNL     1      -3.397   3.042   1.942  0.00  0.00    +0.041 C 
ATOM     21  C   UNL     1      -4.963   2.210   0.175  0.00  0.00    +0.041 C 
ATOM     22  N   UNL     1      -1.053  -0.851   0.006  0.00  0.00    -0.221 NA
ATOM     23  C   UNL     1      -0.884  -2.156  -0.003  0.00  0.00    +0.190 A 
ATOM     24  N   UNL     1       0.312  -2.731  -0.015  0.00  0.00    -0.206 NA
ATOM     25  N   UNL     1       4.750  -4.164  -1.139  0.00  0.00    +0.382 N 
ATOM     26  H   UNL     1       4.263  -4.444  -1.999  0.00  0.00    -0.082 HD
ENDROOT
BRANCH  25  28
ATOM     27  C   UNL     1       6.794  -4.455  -2.454  0.00  0.00    -0.017 C 
ATOM     28  C   UNL     1       6.097  -4.775  -1.130  0.00  0.00    -0.082 C 
ENDBRANCH  25  28
BRANCH  23  29
ATOM     29  S   UNL     1      -2.312  -3.188   0.002  0.00  0.00    -0.089 S 
ATOM     30  C   UNL     1      -3.611  -1.927   0.018  0.00  0.00    +0.093 C 
ENDBRANCH  23  29
BRANCH  12  31
ATOM     31  C   UNL     1       0.513   5.702   0.031  0.00  0.00    +0.058 C 
BRANCH  31  32
ATOM     32  C   UNL     1       0.564   6.218  -1.409  0.00  0.00    -0.011 C 
ATOM     33  C   UNL     1       0.636   7.746  -1.401  0.00  0.00    +0.007 C 
ATOM     34  C   UNL     1       1.800   5.652  -2.110  0.00  0.00    +0.007 C 
ENDBRANCH  31  32
ENDBRANCH  12  31
TORSDOF 4
