REMARK  Name = ZINC22468754
REMARK  5 active torsions:
REMARK  status: ('A' for Active; 'I' for Inactive)
REMARK    1  A    between atoms: C_1  and  C_2
REMARK    2  A    between atoms: C_5  and  C_8
REMARK    3  A    between atoms: C_13  and  C_26
REMARK    4  A    between atoms: N_18  and  C_19
REMARK    5  A    between atoms: C_22  and  C_25
REMARK                            x       y       z     vdW  Elec       q    Type
REMARK                         _______ _______ _______ _____ _____    ______ ____
ROOT
ATOM      1  C   UNL     1       0.229  -4.196   0.794  0.00  0.00    +0.032 C 
ATOM      2  C   UNL     1      -1.133  -4.758   1.205  0.00  0.00    +0.060 C 
ATOM      3  C   UNL     1      -1.060  -6.265   1.268  0.00  0.00    +0.020 C 
ATOM      4  C   UNL     1       0.085  -6.889   1.615  0.00  0.00    +0.037 C 
ATOM      5  C   UNL     1       0.158  -8.396   1.716  0.00  0.00    +0.138 C 
ATOM      6  N   UNL     1      -0.998  -8.990   1.030  0.00  0.00    -0.306 N 
ATOM      7  C   UNL     1      -2.212  -8.338   1.197  0.00  0.00    +0.185 C 
ATOM      8  N   UNL     1      -2.190  -6.976   0.946  0.00  0.00    -0.290 N 
ATOM      9  N   UNL     1      -3.302  -8.968   1.565  0.00  0.00    -0.219 NA
ATOM     10  C   UNL     1       1.253  -6.158   1.895  0.00  0.00    +0.163 C 
ATOM     11  O   UNL     1       2.266  -6.752   2.206  0.00  0.00    -0.292 OA
ATOM     12  C   UNL     1       1.277  -4.656   1.812  0.00  0.00    +0.088 C 
ATOM     13  H   UNL     1      -2.958  -6.534   0.551  0.00  0.00    +0.154 HD
ATOM     14  H   UNL     1      -0.918  -9.793   0.492  0.00  0.00    +0.150 HD
ENDROOT
BRANCH   1  19
ATOM     15  C   UNL     1      -0.001   1.578   0.716  0.00  0.00    +0.044 C 
ATOM     16  C   UNL     1       0.059   0.072   0.736  0.00  0.00    -0.050 A 
ATOM     17  C   UNL     1       0.380  -0.622  -0.415  0.00  0.00    +0.003 A 
ATOM     18  C   UNL     1       0.435  -2.003  -0.397  0.00  0.00    +0.004 A 
ATOM     19  C   UNL     1       0.170  -2.690   0.773  0.00  0.00    -0.043 A 
ATOM     20  C   UNL     1      -0.150  -1.995   1.925  0.00  0.00    +0.004 A 
ATOM     21  C   UNL     1      -0.201  -0.614   1.908  0.00  0.00    +0.003 A 
ENDBRANCH   1  19
BRANCH   9  22
ATOM     22  C   UNL     1      -3.299 -10.332   1.683  0.00  0.00    +0.067 A 
ATOM     23  C   UNL     1      -3.715 -10.935   2.872  0.00  0.00    +0.028 A 
ATOM     24  C   UNL     1      -3.709 -12.310   2.983  0.00  0.00    +0.005 A 
ATOM     25  C   UNL     1      -3.293 -13.091   1.921  0.00  0.00    -0.050 A 
ATOM     26  C   UNL     1      -2.880 -12.501   0.739  0.00  0.00    +0.005 A 
ATOM     27  C   UNL     1      -2.885 -11.127   0.612  0.00  0.00    +0.028 A 
ATOM     28  C   UNL     1      -3.289 -14.593   2.050  0.00  0.00    +0.044 C 
ENDBRANCH   9  22
BRANCH   5  29
ATOM     29  C   UNL     1       0.146  -8.804   3.166  0.00  0.00    -0.023 A 
ATOM     30  C   UNL     1      -1.049  -8.855   3.860  0.00  0.00    +0.006 A 
ATOM     31  C   UNL     1      -1.060  -9.229   5.191  0.00  0.00    +0.000 A 
ATOM     32  C   UNL     1       0.124  -9.552   5.828  0.00  0.00    +0.000 A 
ATOM     33  C   UNL     1       1.318  -9.502   5.134  0.00  0.00    +0.000 A 
ATOM     34  C   UNL     1       1.329  -9.132   3.802  0.00  0.00    +0.006 A 
ENDBRANCH   5  29
TORSDOF 3
