REMARK  Name = ZINC32803561
REMARK  7 active torsions:
REMARK  status: ('A' for Active; 'I' for Inactive)
REMARK    1  A    between atoms: C_4  and  N_11
REMARK    2  A    between atoms: C_5  and  C_7
REMARK    3  A    between atoms: C_12  and  C_14
REMARK    4  A    between atoms: C_14  and  N_15
REMARK    5  A    between atoms: N_23  and  C_24
REMARK    6  A    between atoms: C_24  and  C_25
REMARK    7  A    between atoms: C_25  and  C_26
REMARK                            x       y       z     vdW  Elec       q    Type
REMARK                         _______ _______ _______ _____ _____    ______ ____
ROOT
ATOM      1  N   UNL     1       7.182   0.263  -0.388  0.00  0.00    -0.291 NA
ATOM      2  C   UNL     1       7.085   1.042  -1.630  0.00  0.00    +0.104 C 
ATOM      3  C   UNL     1       8.137   2.157  -1.612  0.00  0.00    +0.124 C 
ATOM      4  N   UNL     1       9.454   1.553  -1.358  0.00  0.00    -0.283 N 
ATOM      5  C   UNL     1       9.593   0.648  -0.206  0.00  0.00    +0.124 C 
ATOM      6  C   UNL     1       8.485  -0.407  -0.279  0.00  0.00    +0.104 C 
ATOM      7  C   UNL     1      10.504   1.821  -2.158  0.00  0.00    +0.302 C 
ATOM      8  O   UNL     1      10.396   2.641  -3.050  0.00  0.00    -0.253 OA
ATOM      9  N   UNL     1      11.676   1.182  -1.969  0.00  0.00    -0.299 N 
ATOM     10  H   UNL     1      11.786   0.584  -1.213  0.00  0.00    +0.150 HD
ENDROOT
BRANCH   1  11
ATOM     11  C   UNL     1       6.082  -0.705  -0.287  0.00  0.00    +0.180 C 
BRANCH  11  13
ATOM     12  N   UNL     1       3.620  -0.656  -0.048  0.00  0.00    -0.284 N 
ATOM     13  C   UNL     1       4.774   0.032  -0.156  0.00  0.00    +0.231 C 
ATOM     14  O   UNL     1       4.760   1.245  -0.147  0.00  0.00    -0.274 OA
ATOM     15  H   UNL     1       3.637  -1.624   0.011  0.00  0.00    +0.155 HD
BRANCH  12  19
ATOM     16  C   UNL     1      -0.017   1.375   0.030  0.00  0.00    +0.001 A 
ATOM     17  C   UNL     1       1.101   1.938   0.618  0.00  0.00    +0.002 A 
ATOM     18  C   UNL     1       2.308   1.268   0.594  0.00  0.00    +0.024 A 
ATOM     19  C   UNL     1       2.399   0.026  -0.022  0.00  0.00    +0.045 A 
ATOM     20  C   UNL     1       1.274  -0.537  -0.611  0.00  0.00    +0.076 A 
ATOM     21  C   UNL     1       0.070   0.139  -0.584  0.00  0.00    +0.014 A 
BRANCH  20  22
ATOM     22  C   UNL     1       1.368  -1.885  -1.280  0.00  0.00    +0.419 C 
ATOM     23  F   UNL     1       0.116  -2.238  -1.795  0.00  0.00    -0.166 F 
ATOM     24  F   UNL     1       2.301  -1.825  -2.321  0.00  0.00    -0.166 F 
ATOM     25  F   UNL     1       1.775  -2.842  -0.344  0.00  0.00    -0.166 F 
ENDBRANCH  20  22
ENDBRANCH  12  19
ENDBRANCH  11  13
ENDBRANCH   1  11
BRANCH   9  26
ATOM     26  C   UNL     1      12.783   1.390  -2.906  0.00  0.00    +0.112 C 
BRANCH  26  27
ATOM     27  C   UNL     1      13.986   0.554  -2.467  0.00  0.00    +0.073 C 
BRANCH  27  28
ATOM     28  C   UNL     1      15.125   0.768  -3.430  0.00  0.00    +0.035 A 
ATOM     29  C   UNL     1      15.311   0.114  -4.595  0.00  0.00    +0.108 A 
ATOM     30  N   UNL     1      16.453   0.613  -5.146  0.00  0.00    -0.336 N 
ATOM     31  C   UNL     1      16.932   1.556  -4.301  0.00  0.00    +0.087 A 
ATOM     32  N   UNL     1      16.129   1.647  -3.282  0.00  0.00    -0.347 N 
ATOM     33  C   UNL     1      18.193   2.350  -4.550  0.00  0.00    +0.072 C 
ATOM     34  C   UNL     1      18.997   1.642  -5.648  0.00  0.00    +0.009 C 
ATOM     35  C   UNL     1      18.071   1.323  -6.825  0.00  0.00    +0.022 C 
ATOM     36  C   UNL     1      17.079   0.230  -6.414  0.00  0.00    +0.123 C 
ATOM     37  H   UNL     1      16.240   2.252  -2.532  0.00  0.00    +0.167 HD
ENDBRANCH  27  28
ENDBRANCH  26  27
ENDBRANCH   9  26
TORSDOF 7
