REMARK  Name = ZINC44401847
REMARK  12 active torsions:
REMARK  status: ('A' for Active; 'I' for Inactive)
REMARK    1  A    between atoms: C_1  and  C_2
REMARK    2  A    between atoms: C_2  and  C_3
REMARK    3  A    between atoms: C_3  and  C_5
REMARK    4  A    between atoms: C_3  and  N_29
REMARK    5  A    between atoms: C_5  and  C_6
REMARK    6  A    between atoms: C_7  and  C_20
REMARK    7  A    between atoms: N_9  and  C_19
REMARK    8  A    between atoms: C_10  and  S_11
REMARK    9  A    between atoms: S_11  and  C_12
REMARK   10  A    between atoms: C_20  and  S_21
REMARK   11  A    between atoms: S_21  and  C_22
REMARK   12  A    between atoms: C_25  and  C_28
REMARK                            x       y       z     vdW  Elec       q    Type
REMARK                         _______ _______ _______ _____ _____    ______ ____
ROOT
ATOM      1  C   UNL     1       1.227  -2.500  -2.628  0.00  0.00    +0.007 A 
ATOM      2  C   UNL     1       0.542  -2.674  -3.833  0.00  0.00    +0.077 A 
ATOM      3  N   UNL     1       1.391  -3.098  -4.734  0.00  0.00    -0.174 NA
ATOM      4  N   UNL     1       2.652  -3.212  -4.136  0.00  0.00    -0.260 N 
ATOM      5  C   UNL     1       2.532  -2.833  -2.837  0.00  0.00    +0.103 A 
ATOM      6  C   UNL     1       3.883  -3.655  -4.796  0.00  0.00    +0.173 C 
ENDROOT
BRANCH   1   7
ATOM      7  C   UNL     1       0.630  -2.023  -1.329  0.00  0.00    +0.023 C 
BRANCH   7   8
ATOM      8  C   UNL     1       0.718  -0.497  -1.257  0.00  0.00    -0.071 C 
BRANCH   8   9
ATOM      9  N   UNL     1       2.129  -0.090  -1.209  0.00  0.00    +0.380 N 
ATOM     10  H   UNL     1       2.567  -0.491  -0.394  0.00  0.00    -0.090 HD
ATOM     11  H   UNL     1       2.601  -0.415  -2.039  0.00  0.00    -0.090 HD
ATOM     12  H   UNL     1       2.187   0.916  -1.162  0.00  0.00    -0.090 HD
ENDBRANCH   8   9
BRANCH   8  14
ATOM     13  C   UNL     1      -0.019   1.526   0.010  0.00  0.00    +0.002 C 
ATOM     14  C   UNL     1       0.002  -0.004   0.002  0.00  0.00    -0.019 C 
ENDBRANCH   8  14
ENDBRANCH   7   8
ENDBRANCH   1   7
BRANCH   5  15
ATOM     15  S   UNL     1       3.824  -2.786  -1.641  0.00  0.00    -0.070 S 
BRANCH  15  16
ATOM     16  C   UNL     1       4.395  -4.451  -1.563  0.00  0.00    +0.014 A 
ATOM     17  C   UNL     1       3.812  -5.425  -2.365  0.00  0.00    +0.016 A 
ATOM     18  C   UNL     1       4.261  -6.729  -2.301  0.00  0.00    +0.016 A 
ATOM     19  C   UNL     1       5.291  -7.066  -1.440  0.00  0.00    +0.018 A 
ATOM     20  C   UNL     1       5.873  -6.099  -0.640  0.00  0.00    +0.016 A 
ATOM     21  C   UNL     1       5.433  -4.792  -0.704  0.00  0.00    +0.016 A 
ATOM     22 BR   UNL     1       5.902  -8.854  -1.357  0.00  0.00    -0.050 Br
ENDBRANCH  15  16
ENDBRANCH   5  15
BRANCH   2  23
ATOM     23  C   UNL     1      -0.925  -2.416  -4.057  0.00  0.00    +0.132 C 
BRANCH  23  24
ATOM     24  S   UNL     1      -1.165  -0.695  -4.578  0.00  0.00    -0.119 S 
BRANCH  24  25
ATOM     25  C   UNL     1      -2.907  -0.554  -4.797  0.00  0.00    +0.008 A 
ATOM     26  C   UNL     1      -3.730  -1.649  -4.559  0.00  0.00    +0.015 A 
ATOM     27  C   UNL     1      -5.095  -1.534  -4.731  0.00  0.00    +0.004 A 
ATOM     28  C   UNL     1      -5.644  -0.333  -5.140  0.00  0.00    -0.050 A 
ATOM     29  C   UNL     1      -4.829   0.758  -5.378  0.00  0.00    +0.004 A 
ATOM     30  C   UNL     1      -3.463   0.653  -5.202  0.00  0.00    +0.015 A 
ATOM     31  C   UNL     1      -7.135  -0.212  -5.327  0.00  0.00    +0.044 C 
ENDBRANCH  24  25
ENDBRANCH  23  24
ENDBRANCH   2  23
TORSDOF 9
