REMARK  Name = ZINC08868881
REMARK  10 active torsions:
REMARK  status: ('A' for Active; 'I' for Inactive)
REMARK    1  A    between atoms: C_1  and  C_2
REMARK    2  A    between atoms: C_2  and  N_63
REMARK    3  A    between atoms: C_3  and  C_4
REMARK    4  A    between atoms: C_3  and  N_63
REMARK    5  A    between atoms: C_5  and  C_6
REMARK    6  A    between atoms: C_5  and  N_63
REMARK    7  A    between atoms: C_6  and  N_7
REMARK    8  A    between atoms: C_17  and  C_19
REMARK    9  A    between atoms: N_24  and  S_25
REMARK   10  A    between atoms: S_25  and  C_28
REMARK                            x       y       z     vdW  Elec       q    Type
REMARK                         _______ _______ _______ _____ _____    ______ ____
ROOT
ATOM      1  N   UNL     1       0.533   1.102   2.172  0.00  0.00    -0.251 N 
ATOM      2  C   UNL     1       1.869   1.350   2.439  0.00  0.00    +0.168 A 
ATOM      3  N   UNL     1       2.625   0.853   3.390  0.00  0.00    -0.224 NA
ATOM      4  C   UNL     1       3.925   1.187   3.534  0.00  0.00    +0.080 A 
ATOM      5  C   UNL     1       4.843   0.727   4.506  0.00  0.00    +0.029 A 
ATOM      6  C   UNL     1       6.139   1.171   4.511  0.00  0.00    +0.002 A 
ATOM      7  C   UNL     1       6.598   2.081   3.569  0.00  0.00    +0.001 A 
ATOM      8  C   UNL     1       5.728   2.552   2.603  0.00  0.00    +0.017 A 
ATOM      9  C   UNL     1       4.427   2.113   2.591  0.00  0.00    +0.041 A 
ATOM     10  S   UNL     1       3.005   2.425   1.573  0.00  0.00    -0.052 S 
ATOM     11  C   UNL     1      -0.161   0.243   2.946  0.00  0.00    +0.240 C 
ATOM     12  O   UNL     1      -1.307  -0.037   2.664  0.00  0.00    -0.273 OA
ENDROOT
BRANCH  11  13
ATOM     13  C   UNL     1       0.487  -0.368   4.161  0.00  0.00    +0.166 C 
ATOM     14  C   UNL     1       0.503   0.653   5.318  0.00  0.00    +0.031 C 
ATOM     15  C   UNL     1      -0.744   0.254   6.150  0.00  0.00    +0.019 C 
ATOM     16  C   UNL     1      -0.740  -1.287   5.998  0.00  0.00    +0.110 C 
ATOM     17  N   UNL     1      -0.294  -1.528   4.614  0.00  0.00    -0.165 NA
BRANCH  17  18
ATOM     18  S   UNL     1      -0.620  -2.882   3.717  0.00  0.00    +0.062 S 
ATOM     19  O   UNL     1      -1.799  -3.457   4.264  0.00  0.00    -0.153 OA
ATOM     20  O   UNL     1      -0.522  -2.498   2.352  0.00  0.00    -0.153 OA
BRANCH  18  21
ATOM     21  C   UNL     1       0.684  -4.029   4.012  0.00  0.00    +0.106 A 
ATOM     22  C   UNL     1       1.807  -4.022   3.205  0.00  0.00    +0.031 A 
ATOM     23  C   UNL     1       2.833  -4.918   3.440  0.00  0.00    +0.040 A 
ATOM     24  C   UNL     1       2.731  -5.831   4.476  0.00  0.00    +0.124 A 
ATOM     25  C   UNL     1       1.603  -5.841   5.279  0.00  0.00    +0.040 A 
ATOM     26  C   UNL     1       0.581  -4.940   5.047  0.00  0.00    +0.031 A 
ATOM     27  F   UNL     1       3.730  -6.711   4.701  0.00  0.00    -0.205 F 
ENDBRANCH  18  21
ENDBRANCH  17  18
ENDBRANCH  11  13
BRANCH   1  28
ATOM     28  C   UNL     1      -0.127   1.771   1.048  0.00  0.00    +0.097 C 
BRANCH  28  29
ATOM     29  C   UNL     1      -0.047   0.881  -0.194  0.00  0.00    -0.059 C 
BRANCH  29  30
ATOM     30  N   UNL     1      -0.695   1.580  -1.323  0.00  0.00    +0.380 N 
ATOM     31  H   UNL     1      -0.298   2.523  -1.405  0.00  0.00    -0.082 HD
BRANCH  30  33
ATOM     32  C   UNL     1       0.975   1.149  -3.055  0.00  0.00    -0.017 C 
ATOM     33  C   UNL     1      -0.448   0.845  -2.582  0.00  0.00    -0.082 C 
ENDBRANCH  30  33
BRANCH  30  34
ATOM     34  C   UNL     1      -2.149   1.691  -1.081  0.00  0.00    -0.082 C 
ATOM     35  C   UNL     1      -2.731   2.723  -2.050  0.00  0.00    -0.017 C 
ENDBRANCH  30  34
ENDBRANCH  29  30
ENDBRANCH  28  29
ENDBRANCH   1  28
TORSDOF 8
