REMARK  Name = ZINC33033031
REMARK  6 active torsions:
REMARK  status: ('A' for Active; 'I' for Inactive)
REMARK    1  A    between atoms: C_1  and  C_2
REMARK    2  A    between atoms: C_9  and  C_11
REMARK    3  A    between atoms: C_14  and  N_27
REMARK    4  A    between atoms: C_15  and  N_17
REMARK    5  A    between atoms: N_17  and  S_18
REMARK    6  A    between atoms: S_18  and  C_21
REMARK                            x       y       z     vdW  Elec       q    Type
REMARK                         _______ _______ _______ _____ _____    ______ ____
ROOT
ATOM      1  C   UNL     1       0.825   6.938  -2.963  0.00  0.00    +0.039 A 
ATOM      2  C   UNL     1       0.611   6.502  -4.273  0.00  0.00    +0.015 A 
ATOM      3  C   UNL     1       1.236   5.364  -4.732  0.00  0.00    +0.026 A 
ATOM      4  C   UNL     1       2.081   4.646  -3.895  0.00  0.00    +0.052 A 
ATOM      5  C   UNL     1       2.300   5.076  -2.583  0.00  0.00    +0.070 A 
ATOM      6  C   UNL     1       1.670   6.215  -2.117  0.00  0.00    +0.039 A 
ENDROOT
BRANCH   1  14
ATOM      7  C   UNL     1       0.064  12.973  -2.353  0.00  0.00    +0.009 C 
ATOM      8  C   UNL     1       0.680  11.635  -2.767  0.00  0.00    +0.003 C 
ATOM      9  C   UNL     1       1.195  11.733  -4.205  0.00  0.00    +0.006 C 
ATOM     10  C   UNL     1       1.840  10.405  -4.608  0.00  0.00    +0.019 C 
ATOM     11  C   UNL     1       0.794   9.293  -4.543  0.00  0.00    +0.108 C 
ATOM     12  N   UNL     1       0.185   9.286  -3.206  0.00  0.00    -0.297 N 
ATOM     13  C   UNL     1      -0.384  10.536  -2.683  0.00  0.00    +0.111 C 
ATOM     14  C   UNL     1       0.154   8.157  -2.471  0.00  0.00    +0.247 C 
ATOM     15  O   UNL     1      -0.426   8.143  -1.403  0.00  0.00    -0.270 OA
ENDBRANCH   1  14
BRANCH   4  16
ATOM     16  N   UNL     1       2.712   3.495  -4.364  0.00  0.00    -0.332 N 
ATOM     17  C   UNL     1       2.189   3.108  -5.681  0.00  0.00    +0.086 C 
ATOM     18  C   UNL     1       2.848   1.800  -6.124  0.00  0.00    -0.063 C 
ATOM     19  N   UNL     1       4.306   1.980  -6.171  0.00  0.00    +0.381 N 
ATOM     20  C   UNL     1       4.829   2.367  -4.854  0.00  0.00    -0.063 C 
ATOM     21  C   UNL     1       4.170   3.675  -4.411  0.00  0.00    +0.086 C 
ATOM     22  H   UNL     1       4.782   1.036  -6.478  0.00  0.00    -0.086 HD
ATOM     23  H   UNL     1       4.555   2.768  -6.896  0.00  0.00    -0.086 HD
ENDBRANCH   4  16
BRANCH   5  24
ATOM     24  N   UNL     1       3.151   4.351  -1.740  0.00  0.00    -0.214 N 
ATOM     25  H   UNL     1       4.233   4.549  -1.749  0.00  0.00    +0.174 HD
BRANCH  24  26
ATOM     26  S   UNL     1       2.529   3.195  -0.731  0.00  0.00    +0.072 S 
ATOM     27  O   UNL     1       1.454   3.804  -0.029  0.00  0.00    -0.150 OA
ATOM     28  O   UNL     1       3.634   2.600  -0.065  0.00  0.00    -0.150 OA
BRANCH  26  29
ATOM     29  C   UNL     1       1.820   1.942  -1.748  0.00  0.00    +0.108 A 
ATOM     30  C   UNL     1       2.590   0.872  -2.164  0.00  0.00    +0.029 A 
ATOM     31  C   UNL     1       2.034  -0.111  -2.962  0.00  0.00    +0.002 A 
ATOM     32  C   UNL     1       0.710  -0.020  -3.348  0.00  0.00    +0.000 A 
ATOM     33  C   UNL     1      -0.061   1.047  -2.928  0.00  0.00    +0.002 A 
ATOM     34  C   UNL     1       0.494   2.029  -2.129  0.00  0.00    +0.029 A 
ENDBRANCH  26  29
ENDBRANCH  24  26
ENDBRANCH   5  24
TORSDOF 5
