REMARK  Name = ZINC62613763
REMARK  9 active torsions:
REMARK  status: ('A' for Active; 'I' for Inactive)
REMARK    1  A    between atoms: C_1  and  S_2
REMARK    2  A    between atoms: S_2  and  C_5
REMARK    3  A    between atoms: C_8  and  N_14
REMARK    4  A    between atoms: C_9  and  N_11
REMARK    5  A    between atoms: N_14  and  C_15
REMARK    6  A    between atoms: C_15  and  C_16
REMARK    7  A    between atoms: C_16  and  N_17
REMARK    8  A    between atoms: C_18  and  C_20
REMARK    9  A    between atoms: C_29  and  C_32
REMARK                            x       y       z     vdW  Elec       q    Type
REMARK                         _______ _______ _______ _____ _____    ______ ____
ROOT
ATOM      1  N   UNL     1       2.568  -1.127  -8.725  0.00  0.00    -0.313 N 
ATOM      2  C   UNL     1       3.268  -1.219  -9.873  0.00  0.00    +0.219 C 
ATOM      3  O   UNL     1       4.479  -1.277  -9.842  0.00  0.00    -0.275 OA
ATOM      4  H   UNL     1       1.599  -1.081  -8.750  0.00  0.00    +0.149 HD
ENDROOT
BRANCH   2   5
ATOM      5  C   UNL     1       2.546  -1.248 -11.195  0.00  0.00    +0.048 C 
ATOM      6  C   UNL     1       1.732   0.037 -11.360  0.00  0.00    +0.019 C 
ATOM      7  C   UNL     1       0.999   0.007 -12.703  0.00  0.00    -0.009 C 
ATOM      8  C   UNL     1       0.060  -1.200 -12.745  0.00  0.00    +0.007 C 
ATOM      9  C   UNL     1       0.875  -2.485 -12.580  0.00  0.00    -0.009 C 
ATOM     10  C   UNL     1       1.608  -2.455 -11.238  0.00  0.00    +0.019 C 
ATOM     11  C   UNL     1       1.895  -2.591 -13.716  0.00  0.00    +0.015 C 
ATOM     12  C   UNL     1       2.833  -1.384 -13.674  0.00  0.00    -0.003 C 
ATOM     13  C   UNL     1       2.018  -0.099 -13.838  0.00  0.00    +0.015 C 
ATOM     14  C   UNL     1       3.566  -1.354 -12.331  0.00  0.00    +0.027 C 
BRANCH  12  15
ATOM     15  C   UNL     1       3.837  -1.489 -14.792  0.00  0.00    -0.041 A 
ATOM     16  C   UNL     1       5.188  -1.547 -14.505  0.00  0.00    +0.004 A 
ATOM     17  C   UNL     1       6.110  -1.644 -15.530  0.00  0.00    +0.000 A 
ATOM     18  C   UNL     1       5.680  -1.682 -16.844  0.00  0.00    +0.000 A 
ATOM     19  C   UNL     1       4.329  -1.624 -17.131  0.00  0.00    +0.000 A 
ATOM     20  C   UNL     1       3.408  -1.532 -16.105  0.00  0.00    +0.004 A 
ENDBRANCH  12  15
ENDBRANCH   2   5
BRANCH   1  21
ATOM     21  C   UNL     1       3.270  -1.099  -7.439  0.00  0.00    +0.123 C 
BRANCH  21  22
ATOM     22  C   UNL     1       2.250  -0.993  -6.303  0.00  0.00    +0.120 C 
BRANCH  22  23
ATOM     23  N   UNL     1       2.952  -0.964  -5.018  0.00  0.00    -0.341 N 
ATOM     24  H   UNL     1       3.921  -1.011  -4.993  0.00  0.00    +0.146 HD
BRANCH  23  28
ATOM     25  C   UNL     1       0.789  -0.683  -1.471  0.00  0.00    +0.090 A 
ATOM     26  C   UNL     1       0.136  -0.587  -2.687  0.00  0.00    +0.029 A 
ATOM     27  C   UNL     1       0.851  -0.680  -3.865  0.00  0.00    +0.027 A 
ATOM     28  C   UNL     1       2.227  -0.870  -3.828  0.00  0.00    +0.058 A 
ATOM     29  C   UNL     1       2.879  -0.966  -2.606  0.00  0.00    +0.149 A 
ATOM     30  C   UNL     1       2.159  -0.867  -1.431  0.00  0.00    +0.061 A 
BRANCH  25  32
ATOM     31  C   UNL     1      -0.135   1.205   0.431  0.00  0.00    +0.200 C 
ATOM     32  S   UNL     1      -0.126  -0.564   0.030  0.00  0.00    -0.006 S 
ATOM     33  O   UNL     1       0.648  -1.278   0.984  0.00  0.00    -0.170 OA
ATOM     34  O   UNL     1      -1.437  -0.996  -0.309  0.00  0.00    -0.170 OA
ENDBRANCH  25  32
BRANCH  29  35
ATOM     35  N   UNL     1       4.344  -1.168  -2.562  0.00  0.00    +0.058 N 
ATOM     36  O   UNL     1       4.880  -1.884  -3.375  0.00  0.00    -0.126 OA
ATOM     37  O   UNL     1       5.005  -0.618  -1.712  0.00  0.00    -0.126 OA
ENDBRANCH  29  35
ENDBRANCH  23  28
ENDBRANCH  22  23
ENDBRANCH  21  22
ENDBRANCH   1  21
TORSDOF 8
