REMARK  Name = ZINC14775329
REMARK  15 active torsions:
REMARK  status: ('A' for Active; 'I' for Inactive)
REMARK    1  A    between atoms: C_1  and  C_2
REMARK    2  A    between atoms: C_2  and  C_3
REMARK    3  A    between atoms: C_2  and  C_4
REMARK    4  A    between atoms: C_4  and  C_5
REMARK    5  A    between atoms: C_5  and  O_6
REMARK    6  A    between atoms: O_6  and  C_7
REMARK    7  A    between atoms: C_7  and  C_9
REMARK    8  A    between atoms: C_9  and  C_10
REMARK    9  A    between atoms: N_17  and  C_18
REMARK   10  A    between atoms: C_18  and  N_20
REMARK   11  A    between atoms: C_21  and  C_23
REMARK   12  A    between atoms: C_28  and  O_29
REMARK   13  A    between atoms: O_29  and  C_30
REMARK   14  A    between atoms: C_30  and  C_31
REMARK   15  A    between atoms: C_30  and  C_32
REMARK                            x       y       z     vdW  Elec       q    Type
REMARK                         _______ _______ _______ _____ _____    ______ ____
ROOT
ATOM      1  C   UNL     1       1.230   1.552   0.445  0.00  0.00    +0.171 C 
ATOM      2  C   UNL     1       2.407   0.829  -0.151  0.00  0.00    +0.234 C 
ATOM      3  O   UNL     1       3.465   1.417  -0.237  0.00  0.00    -0.274 OA
ATOM      4  N   UNL     1       2.341  -0.429  -0.590  0.00  0.00    -0.312 N 
ATOM      5  C   UNL     1       1.123  -1.227  -0.634  0.00  0.00    +0.123 C 
ATOM      6  C   UNL     1       0.082  -0.682   0.344  0.00  0.00    +0.126 C 
ATOM      7  N   UNL     1       0.009   0.779   0.172  0.00  0.00    -0.299 N 
ATOM      8  H   UNL     1       3.162  -0.842  -0.901  0.00  0.00    +0.149 HD
ENDROOT
BRANCH   7   9
ATOM      9  C   UNL     1      -1.129   1.383  -0.224  0.00  0.00    +0.140 C 
ATOM     10  S   UNL     1      -2.518   0.445  -0.575  0.00  0.00    -0.018 S 
BRANCH   9  11
ATOM     11  N   UNL     1      -1.173   2.724  -0.345  0.00  0.00    -0.264 N 
ATOM     12  C   UNL     1      -2.276   3.320  -0.840  0.00  0.00    +0.253 C 
ATOM     13  O   UNL     1      -3.231   2.648  -1.177  0.00  0.00    -0.270 OA
ATOM     14  H   UNL     1      -0.411   3.261  -0.076  0.00  0.00    +0.157 HD
BRANCH  12  15
ATOM     15  C   UNL     1      -2.325   4.788  -0.972  0.00  0.00    +0.080 A 
ATOM     16  C   UNL     1      -1.231   5.565  -0.580  0.00  0.00    +0.032 A 
ATOM     17  C   UNL     1      -1.282   6.937  -0.711  0.00  0.00    +0.019 A 
ATOM     18  C   UNL     1      -2.417   7.550  -1.219  0.00  0.00    +0.019 A 
ATOM     19  C   UNL     1      -3.505   6.793  -1.605  0.00  0.00    +0.047 A 
ATOM     20  C   UNL     1      -3.470   5.412  -1.486  0.00  0.00    +0.133 A 
ATOM     21 BR   UNL     1       0.201   7.987  -0.186  0.00  0.00    -0.050 Br
BRANCH  20  22
ATOM     22  O   UNL     1      -4.540   4.668  -1.864  0.00  0.00    -0.489 OA
BRANCH  22  23
ATOM     23  C   UNL     1      -5.665   5.372  -2.393  0.00  0.00    +0.167 C 
ATOM     24  C   UNL     1      -5.479   5.574  -3.898  0.00  0.00    +0.051 C 
ATOM     25  C   UNL     1      -6.938   4.562  -2.140  0.00  0.00    +0.051 C 
ENDBRANCH  22  23
ENDBRANCH  20  22
ENDBRANCH  12  15
ENDBRANCH   9  11
ENDBRANCH   7   9
BRANCH   1  26
ATOM     26  C   UNL     1       1.424   1.688   1.956  0.00  0.00    +0.152 C 
BRANCH  26  27
ATOM     27  C   UNL     1       0.326   2.546   2.528  0.00  0.00    +0.309 C 
ATOM     28  O   UNL     1      -0.590   2.904   1.825  0.00  0.00    -0.251 OA
BRANCH  27  29
ATOM     29  O   UNL     1       0.364   2.915   3.818  0.00  0.00    -0.465 OA
BRANCH  29  30
ATOM     30  C   UNL     1      -0.727   3.742   4.301  0.00  0.00    +0.232 C 
BRANCH  30  31
ATOM     31  C   UNL     1      -0.511   4.058   5.782  0.00  0.00    +0.044 C 
BRANCH  31  33
ATOM     32  C   UNL     1      -1.511   5.142   7.799  0.00  0.00    +0.007 C 
ATOM     33  C   UNL     1      -1.661   4.930   6.291  0.00  0.00    -0.014 C 
ATOM     34  C   UNL     1      -1.627   6.284   5.579  0.00  0.00    +0.007 C 
ENDBRANCH  31  33
ENDBRANCH  30  31
ENDBRANCH  29  30
ENDBRANCH  27  29
ENDBRANCH  26  27
ENDBRANCH   1  26
TORSDOF 11
