REMARK  Name = ZINC44657817
REMARK  8 active torsions:
REMARK  status: ('A' for Active; 'I' for Inactive)
REMARK    1  A    between atoms: C_1  and  C_2
REMARK    2  A    between atoms: C_2  and  C_4
REMARK    3  A    between atoms: C_2  and  O_15
REMARK    4  A    between atoms: C_4  and  C_6
REMARK    5  A    between atoms: O_15  and  C_16
REMARK    6  A    between atoms: C_16  and  C_18
REMARK    7  A    between atoms: C_23  and  N_24
REMARK    8  A    between atoms: C_25  and  C_27
REMARK                            x       y       z     vdW  Elec       q    Type
REMARK                         _______ _______ _______ _____ _____    ______ ____
ROOT
ATOM      1  C   UNL     1      -1.929  -0.707  -1.181  0.00  0.00    +0.342 C 
ATOM      2  O   UNL     1      -1.317  -0.467  -2.203  0.00  0.00    -0.245 OA
ENDROOT
BRANCH   1   3
ATOM      3  C   UNL     1      -3.309  -1.220  -1.252  0.00  0.00    +0.080 A 
ATOM      4  C   UNL     1      -3.982  -1.590  -0.084  0.00  0.00    +0.017 A 
ATOM      5  C   UNL     1      -5.272  -2.068  -0.157  0.00  0.00    +0.001 A 
ATOM      6  C   UNL     1      -5.907  -2.186  -1.383  0.00  0.00    +0.002 A 
ATOM      7  C   UNL     1      -5.255  -1.825  -2.545  0.00  0.00    +0.024 A 
ATOM      8  C   UNL     1      -3.957  -1.335  -2.491  0.00  0.00    +0.048 A 
BRANCH   8   9
ATOM      9  N   UNL     1      -3.300  -0.965  -3.660  0.00  0.00    -0.278 N 
ATOM     10  C   UNL     1      -3.992  -0.407  -4.674  0.00  0.00    +0.284 C 
ATOM     11  O   UNL     1      -5.170  -0.138  -4.532  0.00  0.00    -0.266 OA
ATOM     12  H   UNL     1      -2.345  -1.108  -3.746  0.00  0.00    +0.155 HD
BRANCH  10  13
ATOM     13  C   UNL     1      -3.324  -0.123  -5.948  0.00  0.00    +0.189 A 
ATOM     14  C   UNL     1      -3.902   0.442  -7.049  0.00  0.00    +0.054 A 
ATOM     15  C   UNL     1      -2.903   0.527  -8.031  0.00  0.00    +0.042 A 
ATOM     16  C   UNL     1      -1.773   0.016  -7.494  0.00  0.00    +0.196 A 
ATOM     17  O   UNL     1      -2.029  -0.369  -6.237  0.00  0.00    -0.458 OA
ENDBRANCH  10  13
ENDBRANCH   8   9
ENDBRANCH   1   3
BRANCH   1  18
ATOM     18  O   UNL     1      -1.346  -0.504   0.017  0.00  0.00    -0.450 OA
BRANCH  18  20
ATOM     19  C   UNL     1      -0.032   1.524   0.025  0.00  0.00    +0.061 C 
ATOM     20  C   UNL     1      -0.007  -0.006   0.011  0.00  0.00    +0.244 C 
BRANCH  20  21
ATOM     21  C   UNL     1       0.722  -0.507   1.231  0.00  0.00    +0.202 C 
ATOM     22  O   UNL     1       0.098  -0.985   2.157  0.00  0.00    -0.288 OA
BRANCH  21  23
ATOM     23  C   UNL     1       2.128  -0.422   1.297  0.00  0.00    +0.027 C 
ATOM     24  C   UNL     1       2.944  -0.838   2.334  0.00  0.00    +0.006 A 
ATOM     25  C   UNL     1       2.677  -1.443   3.585  0.00  0.00    +0.010 A 
ATOM     26  C   UNL     1       3.691  -1.750   4.424  0.00  0.00    +0.001 A 
ATOM     27  C   UNL     1       5.035  -1.492   4.109  0.00  0.00    +0.002 A 
ATOM     28  C   UNL     1       5.397  -0.917   2.941  0.00  0.00    +0.026 A 
ATOM     29  C   UNL     1       4.353  -0.551   1.969  0.00  0.00    +0.043 A 
ATOM     30  N   UNL     1       4.416   0.003   0.792  0.00  0.00    -0.380 N 
ATOM     31  C   UNL     1       3.062   0.138   0.247  0.00  0.00    +0.152 C 
ATOM     32  H   UNL     1       5.231   0.278   0.345  0.00  0.00    +0.160 HD
ENDBRANCH  21  23
ENDBRANCH  20  21
ENDBRANCH  18  20
ENDBRANCH   1  18
TORSDOF 7
