REMARK  Name = ZINC09411210
REMARK  11 active torsions:
REMARK  status: ('A' for Active; 'I' for Inactive)
REMARK    1  A    between atoms: C_1  and  C_2
REMARK    2  A    between atoms: C_16  and  O_25
REMARK    3  A    between atoms: C_18  and  O_23
REMARK    4  A    between atoms: O_23  and  C_24
REMARK    5  A    between atoms: O_25  and  C_26
REMARK    6  A    between atoms: C_26  and  C_27
REMARK    7  A    between atoms: C_27  and  C_29
REMARK    8  A    between atoms: C_27  and  O_37
REMARK    9  A    between atoms: C_29  and  N_72
REMARK   10  A    between atoms: C_30  and  C_31
REMARK   11  A    between atoms: C_30  and  N_72
REMARK                            x       y       z     vdW  Elec       q    Type
REMARK                         _______ _______ _______ _____ _____    ______ ____
ROOT
ATOM      1  C   UNL     1      -5.116   3.819   9.130  0.00  0.00    +0.052 C 
ATOM      2  C   UNL     1      -3.649   3.395   9.027  0.00  0.00    +0.174 C 
ATOM      3  C   UNL     1      -3.387   2.234   9.990  0.00  0.00    +0.045 C 
ATOM      4  C   UNL     1      -2.302   2.625  10.994  0.00  0.00    +0.011 C 
ATOM      5  C   UNL     1      -1.861   1.396  11.790  0.00  0.00    +0.074 C 
ATOM      6  C   UNL     1      -0.417   1.082  11.485  0.00  0.00    +0.133 C 
ATOM      7  O   UNL     1       0.466   1.740  11.981  0.00  0.00    -0.297 OA
ATOM      8  C   UNL     1      -0.079  -0.058  10.557  0.00  0.00    +0.074 C 
ATOM      9  C   UNL     1       1.206   0.252   9.789  0.00  0.00    +0.012 C 
ATOM     10  C   UNL     1       1.400  -0.776   8.670  0.00  0.00    +0.027 C 
ATOM     11  C   UNL     1       1.018  -0.159   7.345  0.00  0.00    -0.026 C 
ATOM     12  C   UNL     1      -0.094   0.539   7.257  0.00  0.00    +0.005 C 
ATOM     13  C   UNL     1      -0.598   1.166   6.028  0.00  0.00    -0.004 A 
ATOM     14  C   UNL     1      -0.075   0.822   4.789  0.00  0.00    +0.054 A 
ATOM     15  C   UNL     1      -0.626   1.350   3.630  0.00  0.00    +0.125 A 
ATOM     16  C   UNL     1      -1.712   2.213   3.696  0.00  0.00    +0.092 A 
ATOM     17  C   UNL     1      -2.228   2.593   4.925  0.00  0.00    +0.138 A 
ATOM     18  C   UNL     1      -1.657   2.106   6.101  0.00  0.00    +0.108 A 
ATOM     19  C   UNL     1      -2.114   2.546   7.420  0.00  0.00    +0.344 C 
ATOM     20  O   UNL     1      -1.308   2.568   8.337  0.00  0.00    -0.245 OA
ATOM     21  O   UNL     1      -3.361   2.973   7.663  0.00  0.00    -0.458 OA
ENDROOT
BRANCH  17  22
ATOM     22  O   UNL     1      -3.287   3.441   4.975  0.00  0.00    -0.494 OA
ATOM     23  C   UNL     1      -3.813   3.897   3.728  0.00  0.00    +0.277 C 
ENDBRANCH  17  22
BRANCH  15  24
ATOM     24  O   UNL     1      -0.108   1.012   2.422  0.00  0.00    -0.489 OA
BRANCH  24  25
ATOM     25  C   UNL     1      -0.729   1.579   1.267  0.00  0.00    +0.258 C 
BRANCH  25  26
ATOM     26  C   UNL     1      -0.013   1.086   0.008  0.00  0.00    +0.135 C 
BRANCH  26  27
ATOM     27  O   UNL     1       1.328   1.580  -0.002  0.00  0.00    -0.390 OA
ATOM     28  H   UNL     1       1.391   2.545   0.002  0.00  0.00    +0.210 HD
ENDBRANCH  26  27
BRANCH  26  29
ATOM     29  C   UNL     1      -0.753   1.593  -1.232  0.00  0.00    -0.047 C 
BRANCH  29  30
ATOM     30  N   UNL     1      -0.129   1.015  -2.437  0.00  0.00    +0.383 N 
ATOM     31  H   UNL     1      -0.186  -0.009  -2.391  0.00  0.00    -0.085 HD
ATOM     32  H   UNL     1       0.857   1.301  -2.478  0.00  0.00    -0.085 HD
BRANCH  30  33
ATOM     33  C   UNL     1      -0.823   1.488  -3.650  0.00  0.00    -0.047 C 
BRANCH  33  34
ATOM     34  C   UNL     1      -0.165   0.882  -4.863  0.00  0.00    -0.064 A 
ATOM     35  C   UNL     1       0.878   1.543  -5.485  0.00  0.00    +0.002 A 
ATOM     36  C   UNL     1       1.485   0.985  -6.595  0.00  0.00    +0.000 A 
ATOM     37  C   UNL     1       1.042  -0.227  -7.089  0.00  0.00    +0.000 A 
ATOM     38  C   UNL     1      -0.005  -0.885  -6.470  0.00  0.00    +0.000 A 
ATOM     39  C   UNL     1      -0.608  -0.330  -5.357  0.00  0.00    +0.002 A 
ENDBRANCH  33  34
ENDBRANCH  30  33
ENDBRANCH  29  30
ENDBRANCH  26  29
ENDBRANCH  25  26
ENDBRANCH  24  25
ENDBRANCH  15  24
TORSDOF 9
