REMARK  Name = ZINC35476867
REMARK  5 active torsions:
REMARK  status: ('A' for Active; 'I' for Inactive)
REMARK    1  A    between atoms: C_4  and  C_7
REMARK    2  A    between atoms: N_9  and  C_10
REMARK    3  A    between atoms: C_11  and  C_19
REMARK    4  A    between atoms: C_19  and  C_21
REMARK    5  A    between atoms: C_19  and  N_27
REMARK                            x       y       z     vdW  Elec       q    Type
REMARK                         _______ _______ _______ _____ _____    ______ ____
ROOT
ATOM      1  C   UNL     1       4.717  -2.697  -0.438  0.00  0.00    +0.078 A 
ATOM      2  C   UNL     1       5.081  -3.972  -0.135  0.00  0.00    +0.011 A 
ATOM      3  C   UNL     1       6.432  -4.314  -0.079  0.00  0.00    -0.030 A 
ATOM      4  C   UNL     1       7.324  -3.320  -0.338  0.00  0.00    -0.005 A 
ATOM      5  S   UNL     1       6.303  -1.909  -0.668  0.00  0.00    -0.078 S 
ATOM      6  C   UNL     1       8.815  -3.413  -0.343  0.00  0.00    +0.043 C 
ATOM      7  C   UNL     1       9.220  -4.723   0.349  0.00  0.00    +0.005 C 
ATOM      8  C   UNL     1       8.370  -5.862  -0.220  0.00  0.00    +0.005 C 
ATOM      9  C   UNL     1       6.923  -5.721   0.252  0.00  0.00    +0.036 C 
ENDROOT
BRANCH   1  12
ATOM     10  C   UNL     1       3.286  -0.826  -0.753  0.00  0.00    +0.249 C 
ATOM     11  O   UNL     1       4.264  -0.110  -0.845  0.00  0.00    -0.270 OA
ATOM     12  N   UNL     1       3.437  -2.149  -0.546  0.00  0.00    -0.276 N 
ATOM     13  H   UNL     1       2.657  -2.721  -0.472  0.00  0.00    +0.156 HD
BRANCH  10  17
ATOM     14  C   UNL     1      -0.606   0.841  -1.082  0.00  0.00    +0.000 A 
ATOM     15  C   UNL     1       0.505   1.659  -1.188  0.00  0.00    +0.001 A 
ATOM     16  C   UNL     1       1.772   1.124  -1.081  0.00  0.00    +0.013 A 
ATOM     17  C   UNL     1       1.932  -0.246  -0.867  0.00  0.00    +0.037 A 
ATOM     18  C   UNL     1       0.807  -1.066  -0.762  0.00  0.00    +0.013 A 
ATOM     19  C   UNL     1      -0.455  -0.518  -0.870  0.00  0.00    +0.001 A 
ENDBRANCH  10  17
ENDBRANCH   1  12
BRANCH   2  20
ATOM     20  C   UNL     1       4.026  -5.013   0.139  0.00  0.00    +0.153 C 
BRANCH  20  21
ATOM     21  N   UNL     1       3.017  -4.459   1.045  0.00  0.00    -0.318 N 
ATOM     22  C   UNL     1       2.221  -5.310   1.803  0.00  0.00    +0.097 A 
ATOM     23  C   UNL     1       2.392  -6.687   1.702  0.00  0.00    +0.041 A 
ATOM     24  C   UNL     1       1.593  -7.521   2.462  0.00  0.00    +0.005 A 
ATOM     25  C   UNL     1       0.646  -6.949   3.301  0.00  0.00    +0.018 A 
ATOM     26  C   UNL     1       0.531  -5.575   3.352  0.00  0.00    +0.084 A 
ATOM     27  N   UNL     1       1.310  -4.802   2.619  0.00  0.00    -0.350 N 
ATOM     28  H   UNL     1       2.904  -3.498   1.115  0.00  0.00    +0.148 HD
ATOM     29  H   UNL     1       1.211  -3.839   2.677  0.00  0.00    +0.166 HD
ENDBRANCH  20  21
BRANCH  20  30
ATOM     30  C   UNL     1       3.371  -5.419  -1.156  0.00  0.00    +0.066 A 
ATOM     31  C   UNL     1       3.335  -6.753  -1.515  0.00  0.00    +0.025 A 
ATOM     32  C   UNL     1       2.730  -7.115  -2.708  0.00  0.00    +0.003 A 
ATOM     33  C   UNL     1       2.182  -6.117  -3.500  0.00  0.00    +0.020 A 
ATOM     34  C   UNL     1       2.256  -4.804  -3.076  0.00  0.00    +0.111 A 
ATOM     35  N   UNL     1       2.835  -4.497  -1.931  0.00  0.00    -0.258 NA
ENDBRANCH  20  30
ENDBRANCH   2  20
TORSDOF 5
