REMARK  Name = ZINC12139880
REMARK  8 active torsions:
REMARK  status: ('A' for Active; 'I' for Inactive)
REMARK    1  A    between atoms: C_1  and  C_2
REMARK    2  A    between atoms: C_3  and  C_18
REMARK    3  A    between atoms: C_4  and  C_10
REMARK    4  A    between atoms: N_20  and  C_21
REMARK    5  A    between atoms: C_23  and  O_29
REMARK    6  A    between atoms: C_26  and  O_27
REMARK    7  A    between atoms: O_27  and  C_28
REMARK    8  A    between atoms: O_29  and  C_30
REMARK                            x       y       z     vdW  Elec       q    Type
REMARK                         _______ _______ _______ _____ _____    ______ ____
ROOT
ATOM      1  C   UNL     1       0.654   4.520   0.991  0.00  0.00    +0.061 C 
ATOM      2  C   UNL     1       0.155   3.248   0.355  0.00  0.00    +0.019 C 
ATOM      3  C   UNL     1      -1.135   3.163  -0.034  0.00  0.00    +0.056 C 
ATOM      4  C   UNL     1      -1.594   1.868  -0.674  0.00  0.00    +0.143 C 
ATOM      5  N   UNL     1      -0.591   0.799  -0.810  0.00  0.00    -0.288 N 
ATOM      6  C   UNL     1       0.662   1.034  -0.373  0.00  0.00    +0.304 C 
ATOM      7  O   UNL     1       1.498   0.159  -0.486  0.00  0.00    -0.252 OA
ATOM      8  N   UNL     1       1.015   2.200   0.182  0.00  0.00    -0.273 N 
ATOM      9  H   UNL     1      -0.826  -0.054  -1.210  0.00  0.00    +0.151 HD
ATOM     10  H   UNL     1       1.933   2.308   0.477  0.00  0.00    +0.156 HD
ENDROOT
BRANCH   4  11
ATOM     11  C   UNL     1      -2.123   2.187  -2.048  0.00  0.00    -0.004 A 
ATOM     12  C   UNL     1      -1.304   2.049  -3.153  0.00  0.00    +0.008 A 
ATOM     13  C   UNL     1      -1.791   2.336  -4.415  0.00  0.00    +0.020 A 
ATOM     14  C   UNL     1      -3.095   2.772  -4.571  0.00  0.00    +0.042 A 
ATOM     15  C   UNL     1      -3.913   2.917  -3.465  0.00  0.00    +0.040 A 
ATOM     16  C   UNL     1      -3.427   2.624  -2.203  0.00  0.00    +0.048 A 
ATOM     17 CL   UNL     1      -4.452   2.805  -0.814  0.00  0.00    -0.083 Cl
ATOM     18 CL   UNL     1      -3.704   3.139  -6.155  0.00  0.00    -0.083 Cl
ENDBRANCH   4  11
BRANCH   3  19
ATOM     19  C   UNL     1      -2.027   4.248   0.146  0.00  0.00    +0.248 C 
ATOM     20  O   UNL     1      -2.787   4.260   1.098  0.00  0.00    -0.270 OA
ATOM     21  N   UNL     1      -2.036   5.266  -0.736  0.00  0.00    -0.279 N 
ATOM     22  H   UNL     1      -1.479   5.226  -1.529  0.00  0.00    +0.155 HD
BRANCH  21  23
ATOM     23  C   UNL     1      -2.849   6.384  -0.508  0.00  0.00    +0.079 A 
ATOM     24  C   UNL     1      -3.280   6.679   0.777  0.00  0.00    +0.072 A 
ATOM     25  C   UNL     1      -4.080   7.788   1.000  0.00  0.00    +0.122 A 
ATOM     26  C   UNL     1      -4.459   8.597  -0.061  0.00  0.00    +0.049 A 
ATOM     27  C   UNL     1      -4.036   8.302  -1.344  0.00  0.00    +0.051 A 
ATOM     28  C   UNL     1      -3.231   7.197  -1.572  0.00  0.00    +0.141 A 
BRANCH  28  29
ATOM     29  O   UNL     1      -2.816   6.907  -2.835  0.00  0.00    -0.493 OA
ATOM     30  C   UNL     1      -3.246   7.785  -3.877  0.00  0.00    +0.277 C 
ENDBRANCH  28  29
BRANCH  25  31
ATOM     31  O   UNL     1      -4.499   8.081   2.261  0.00  0.00    -0.495 OA
ATOM     32  C   UNL     1      -5.326   9.236   2.417  0.00  0.00    +0.277 C 
ENDBRANCH  25  31
ENDBRANCH  21  23
ENDBRANCH   3  19
TORSDOF 5
