REMARK  Name = ZINC39942174
REMARK  8 active torsions:
REMARK  status: ('A' for Active; 'I' for Inactive)
REMARK    1  A    between atoms: C_1  and  C_2
REMARK    2  A    between atoms: C_2  and  C_4
REMARK    3  A    between atoms: C_2  and  S_13
REMARK    4  A    between atoms: N_6  and  C_7
REMARK    5  A    between atoms: C_7  and  C_8
REMARK    6  A    between atoms: S_13  and  C_14
REMARK    7  A    between atoms: C_18  and  C_23
REMARK    8  A    between atoms: N_19  and  C_20
REMARK                            x       y       z     vdW  Elec       q    Type
REMARK                         _______ _______ _______ _____ _____    ______ ____
ROOT
ATOM      1  C   UNL     1      -0.235  -0.045  -2.922  0.00  0.00    +0.238 C 
ATOM      2  N   UNL     1      -1.594  -0.569  -2.708  0.00  0.00    -0.237 N 
ATOM      3  N   UNL     1      -2.421   0.542  -2.502  0.00  0.00    -0.169 NA
ATOM      4  C   UNL     1      -1.742   1.657  -2.562  0.00  0.00    +0.147 C 
ATOM      5  N   UNL     1      -0.386   1.416  -2.818  0.00  0.00    -0.282 N 
ATOM      6  H   UNL     1      -1.864  -1.501  -2.711  0.00  0.00    +0.171 HD
ENDROOT
BRANCH   4   7
ATOM      7  C   UNL     1      -2.300   2.933  -2.395  0.00  0.00    +0.022 C 
ATOM      8  C   UNL     1      -3.650   3.250  -2.243  0.00  0.00    +0.006 A 
ATOM      9  C   UNL     1      -4.817   2.457  -2.208  0.00  0.00    +0.010 A 
ATOM     10  C   UNL     1      -6.028   3.049  -2.043  0.00  0.00    +0.001 A 
ATOM     11  C   UNL     1      -6.154   4.433  -1.906  0.00  0.00    +0.002 A 
ATOM     12  C   UNL     1      -5.075   5.255  -1.930  0.00  0.00    +0.026 A 
ATOM     13  C   UNL     1      -3.777   4.710  -2.099  0.00  0.00    +0.043 A 
ATOM     14  N   UNL     1      -2.591   5.283  -2.155  0.00  0.00    -0.380 N 
ATOM     15  C   UNL     1      -1.563   4.253  -2.336  0.00  0.00    +0.152 C 
ATOM     16  H   UNL     1      -2.424   6.236  -2.084  0.00  0.00    +0.160 HD
ENDBRANCH   4   7
BRANCH   5  17
ATOM     17  C   UNL     1       0.674   2.418  -2.955  0.00  0.00    +0.078 C 
ATOM     18  C   UNL     1       1.349   2.549  -4.322  0.00  0.00    +0.024 C 
ATOM     19  C   UNL     1       2.104   1.911  -3.154  0.00  0.00    +0.024 C 
ENDBRANCH   5  17
BRANCH   1  20
ATOM     20  S   UNL     1       0.891  -0.659  -1.639  0.00  0.00    -0.106 S 
BRANCH  20  22
ATOM     21  C   UNL     1       0.116   1.401  -0.014  0.00  0.00    +0.029 C 
ATOM     22  C   UNL     1       0.118  -0.128  -0.086  0.00  0.00    +0.132 C 
BRANCH  22  23
ATOM     23  C   UNL     1       0.896  -0.684   1.079  0.00  0.00    +0.226 C 
ATOM     24  O   UNL     1       2.068  -0.965   0.946  0.00  0.00    -0.275 OA
ATOM     25  N   UNL     1       0.289  -0.870   2.268  0.00  0.00    -0.307 N 
ATOM     26  H   UNL     1      -0.648  -0.645   2.374  0.00  0.00    +0.149 HD
BRANCH  25  27
ATOM     27  C   UNL     1       1.046  -1.410   3.400  0.00  0.00    +0.178 C 
BRANCH  27  28
ATOM     28  C   UNL     1       0.143  -1.519   4.601  0.00  0.00    +0.122 A 
ATOM     29  C   UNL     1      -0.601  -2.590   4.932  0.00  0.00    +0.046 A 
ATOM     30  C   UNL     1      -1.287  -2.260   6.123  0.00  0.00    +0.041 A 
ATOM     31  C   UNL     1      -0.922  -1.006   6.449  0.00  0.00    +0.195 A 
ATOM     32  O   UNL     1      -0.052  -0.565   5.526  0.00  0.00    -0.466 OA
ENDBRANCH  27  28
ENDBRANCH  25  27
ENDBRANCH  22  23
ENDBRANCH  20  22
ENDBRANCH   1  20
TORSDOF 7
