REMARK  Name = ZINC35707891
REMARK  11 active torsions:
REMARK  status: ('A' for Active; 'I' for Inactive)
REMARK    1  A    between atoms: C_1  and  C_2
REMARK    2  A    between atoms: C_5  and  N_8
REMARK    3  A    between atoms: C_9  and  C_22
REMARK    4  A    between atoms: C_12  and  S_13
REMARK    5  A    between atoms: S_13  and  C_14
REMARK    6  A    between atoms: C_14  and  C_15
REMARK    7  A    between atoms: C_20  and  C_21
REMARK    8  A    between atoms: C_22  and  C_24
REMARK    9  A    between atoms: C_22  and  N_25
REMARK   10  A    between atoms: N_28  and  C_29
REMARK   11  A    between atoms: C_32  and  N_35
REMARK                            x       y       z     vdW  Elec       q    Type
REMARK                         _______ _______ _______ _____ _____    ______ ____
ROOT
ATOM      1  N   UNL     1       0.055  -4.188  -0.029  0.00  0.00    -0.273 N 
ATOM      2  C   UNL     1      -0.927  -5.026   0.429  0.00  0.00    +0.159 A 
ATOM      3  N   UNL     1      -0.518  -6.247   0.231  0.00  0.00    -0.131 NA
ATOM      4  N   UNL     1       0.645  -6.241  -0.315  0.00  0.00    -0.122 NA
ATOM      5  C   UNL     1       1.044  -5.004  -0.504  0.00  0.00    +0.196 A 
ENDROOT
BRANCH   1  10
ATOM      6  C   UNL     1       0.015   1.488   0.014  0.00  0.00    +0.044 C 
ATOM      7  C   UNL     1       0.026  -0.019   0.002  0.00  0.00    -0.050 A 
ATOM      8  C   UNL     1       0.021  -0.700  -1.201  0.00  0.00    +0.005 A 
ATOM      9  C   UNL     1       0.031  -2.081  -1.214  0.00  0.00    +0.026 A 
ATOM     10  C   UNL     1       0.045  -2.785  -0.018  0.00  0.00    +0.050 A 
ATOM     11  C   UNL     1       0.050  -2.099   1.188  0.00  0.00    +0.026 A 
ATOM     12  C   UNL     1       0.046  -0.718   1.195  0.00  0.00    +0.005 A 
ENDBRANCH   1  10
BRANCH   2  13
ATOM     13  C   UNL     1      -2.238  -4.612   1.047  0.00  0.00    +0.140 C 
ATOM     14  C   UNL     1      -3.368  -4.824   0.038  0.00  0.00    +0.036 C 
BRANCH  13  15
ATOM     15  N   UNL     1      -2.491  -5.421   2.242  0.00  0.00    -0.290 N 
ATOM     16  C   UNL     1      -3.283  -4.945   3.223  0.00  0.00    +0.304 C 
ATOM     17  O   UNL     1      -3.787  -3.843   3.117  0.00  0.00    -0.252 OA
ATOM     18  N   UNL     1      -3.516  -5.689   4.322  0.00  0.00    -0.269 N 
ATOM     19  H   UNL     1      -2.089  -6.300   2.327  0.00  0.00    +0.151 HD
ATOM     20  H   UNL     1      -3.170  -6.593   4.378  0.00  0.00    +0.156 HD
BRANCH  18  21
ATOM     21  C   UNL     1      -4.258  -5.158   5.383  0.00  0.00    +0.035 A 
ATOM     22  C   UNL     1      -3.938  -5.492   6.692  0.00  0.00    +0.025 A 
ATOM     23  C   UNL     1      -4.672  -4.965   7.737  0.00  0.00    +0.034 A 
ATOM     24  C   UNL     1      -5.725  -4.106   7.480  0.00  0.00    +0.126 A 
ATOM     25  C   UNL     1      -6.047  -3.772   6.178  0.00  0.00    +0.034 A 
ATOM     26  C   UNL     1      -5.313  -4.291   5.129  0.00  0.00    +0.025 A 
BRANCH  24  27
ATOM     27  N   UNL     1      -6.510  -3.543   8.602  0.00  0.00    +0.056 N 
ATOM     28  O   UNL     1      -6.230  -3.835   9.742  0.00  0.00    -0.126 OA
ATOM     29  O   UNL     1      -7.430  -2.792   8.379  0.00  0.00    -0.126 OA
ENDBRANCH  24  27
ENDBRANCH  18  21
ENDBRANCH  13  15
ENDBRANCH   2  13
BRANCH   5  30
ATOM     30  S   UNL     1       2.567  -4.494  -1.228  0.00  0.00    -0.081 S 
BRANCH  30  31
ATOM     31  C   UNL     1       3.404  -6.051  -1.634  0.00  0.00    +0.112 C 
BRANCH  31  32
ATOM     32  C   UNL     1       4.738  -5.754  -2.268  0.00  0.00    -0.034 A 
ATOM     33  C   UNL     1       4.834  -5.607  -3.640  0.00  0.00    +0.005 A 
ATOM     34  C   UNL     1       6.057  -5.335  -4.222  0.00  0.00    +0.000 A 
ATOM     35  C   UNL     1       7.186  -5.208  -3.433  0.00  0.00    +0.000 A 
ATOM     36  C   UNL     1       7.090  -5.353  -2.062  0.00  0.00    +0.003 A 
ATOM     37  C   UNL     1       5.865  -5.622  -1.479  0.00  0.00    -0.046 A 
ATOM     38  C   UNL     1       5.760  -5.775   0.016  0.00  0.00    +0.044 C 
ENDBRANCH  31  32
ENDBRANCH  30  31
ENDBRANCH   5  30
TORSDOF 8
