REMARK  Name = ZINC08491117
REMARK  7 active torsions:
REMARK  status: ('A' for Active; 'I' for Inactive)
REMARK    1  A    between atoms: C_1  and  C_2
REMARK    2  A    between atoms: C_4  and  N_12
REMARK    3  A    between atoms: C_5  and  N_9
REMARK    4  A    between atoms: C_7  and  C_8
REMARK    5  A    between atoms: C_13  and  C_15
REMARK    6  A    between atoms: C_21  and  C_24
REMARK    7  A    between atoms: C_21  and  C_25
REMARK                            x       y       z     vdW  Elec       q    Type
REMARK                         _______ _______ _______ _____ _____    ______ ____
ROOT
ATOM      1  N   UNL     1      -0.421   3.580  -1.494  0.00  0.00    -0.283 N 
ATOM      2  C   UNL     1      -0.746   2.395  -0.939  0.00  0.00    +0.231 C 
ATOM      3  O   UNL     1      -1.449   1.614  -1.545  0.00  0.00    -0.274 OA
ATOM      4  H   UNL     1       0.203   4.170  -1.044  0.00  0.00    +0.155 HD
ENDROOT
BRANCH   2   5
ATOM      5  C   UNL     1      -0.237   2.041   0.434  0.00  0.00    +0.106 C 
ATOM      6  C   UNL     1       1.313   1.943   0.580  0.00  0.00    +0.024 C 
ATOM      7  C   UNL     1       1.531   1.096   1.855  0.00  0.00    +0.006 C 
ATOM      8  C   UNL     1       0.091   0.773   2.359  0.00  0.00    +0.003 C 
ATOM      9  C   UNL     1      -0.671   0.640   0.993  0.00  0.00    +0.028 C 
ATOM     10  C   UNL     1      -0.462   2.145   2.852  0.00  0.00    +0.027 C 
ATOM     11  C   UNL     1      -0.675   2.958   1.584  0.00  0.00    +0.154 C 
ATOM     12  O   UNL     1      -1.100   4.086   1.500  0.00  0.00    -0.296 OA
ATOM     13  C   UNL     1      -1.789   1.950   3.589  0.00  0.00    +0.019 C 
ATOM     14  C   UNL     1       0.556   2.833   3.764  0.00  0.00    +0.019 C 
ENDBRANCH   2   5
BRANCH   1  18
ATOM     15  C   UNL     1      -4.146   3.338  -4.693  0.00  0.00    +0.044 C 
ATOM     16  C   UNL     1      -2.788   3.855  -4.294  0.00  0.00    -0.046 A 
ATOM     17  C   UNL     1      -2.235   3.480  -3.085  0.00  0.00    +0.029 A 
ATOM     18  C   UNL     1      -0.984   3.957  -2.718  0.00  0.00    +0.064 A 
ATOM     19  C   UNL     1      -0.294   4.814  -3.566  0.00  0.00    +0.148 A 
ATOM     20  C   UNL     1      -0.850   5.180  -4.776  0.00  0.00    +0.038 A 
ATOM     21  C   UNL     1      -2.096   4.703  -5.139  0.00  0.00    -0.045 A 
ATOM     22  C   UNL     1      -2.702   5.110  -6.457  0.00  0.00    +0.044 C 
BRANCH  19  23
ATOM     23  N   UNL     1       1.038   5.329  -3.176  0.00  0.00    +0.058 N 
ATOM     24  O   UNL     1       1.595   6.161  -3.869  0.00  0.00    -0.126 OA
ATOM     25  O   UNL     1       1.576   4.920  -2.163  0.00  0.00    -0.126 OA
ENDBRANCH  19  23
ENDBRANCH   1  18
TORSDOF 3
