REMARK  Name = ZINC57293420
REMARK  11 active torsions:
REMARK  status: ('A' for Active; 'I' for Inactive)
REMARK    1  A    between atoms: C_1  and  C_2
REMARK    2  A    between atoms: C_2  and  C_3
REMARK    3  A    between atoms: N_12  and  C_13
REMARK    4  A    between atoms: C_13  and  C_14
REMARK    5  A    between atoms: N_16  and  C_17
REMARK    6  A    between atoms: C_17  and  C_18
REMARK    7  A    between atoms: C_18  and  N_19
REMARK    8  A    between atoms: C_20  and  C_22
REMARK    9  A    between atoms: C_22  and  N_23
REMARK   10  A    between atoms: C_31  and  C_33
REMARK   11  A    between atoms: C_33  and  C_34
REMARK                            x       y       z     vdW  Elec       q    Type
REMARK                         _______ _______ _______ _____ _____    ______ ____
ROOT
ATOM      1  C   UNL     1      -4.145   4.283  -3.384  0.00  0.00    +0.123 C 
ENDROOT
BRANCH   1   4
ATOM      2  C   UNL     1      -3.881   2.912  -1.387  0.00  0.00    +0.197 C 
ATOM      3  O   UNL     1      -4.051   1.928  -2.076  0.00  0.00    -0.278 OA
ATOM      4  N   UNL     1      -3.909   4.138  -1.946  0.00  0.00    -0.315 N 
ATOM      5  H   UNL     1      -3.773   4.925  -1.395  0.00  0.00    +0.149 HD
BRANCH   2   6
ATOM      6  C   UNL     1      -3.638   2.763   0.093  0.00  0.00    +0.019 C 
BRANCH   6  15
ATOM      7  C   UNL     1      -3.264   1.190   1.857  0.00  0.00    -0.036 C 
ATOM      8  C   UNL     1      -3.384  -0.280   2.250  0.00  0.00    -0.051 A 
ATOM      9  C   UNL     1      -2.746  -0.848   3.349  0.00  0.00    +0.010 A 
ATOM     10  C   UNL     1      -2.907  -2.164   3.621  0.00  0.00    +0.045 A 
ATOM     11  S   UNL     1      -3.998  -2.681   2.303  0.00  0.00    -0.101 S 
ATOM     12  C   UNL     1      -4.155  -1.114   1.497  0.00  0.00    -0.010 A 
ATOM     13  C   UNL     1      -4.938  -0.741   0.280  0.00  0.00    +0.024 C 
ATOM     14  C   UNL     1      -5.002   0.795   0.223  0.00  0.00    -0.072 C 
ATOM     15  N   UNL     1      -3.655   1.339   0.451  0.00  0.00    +0.390 N 
ATOM     16  H   UNL     1      -2.996   0.843  -0.131  0.00  0.00    -0.080 HD
BRANCH   7  18
ATOM     17  C   UNL     1      -0.895   0.799   1.169  0.00  0.00    +0.002 C 
ATOM     18  C   UNL     1      -1.818   1.653   2.040  0.00  0.00    -0.014 C 
ENDBRANCH   7  18
ENDBRANCH   6  15
ENDBRANCH   2   6
ENDBRANCH   1   4
BRANCH   1  19
ATOM     19  C   UNL     1      -4.127   5.767  -3.757  0.00  0.00    +0.123 C 
BRANCH  19  20
ATOM     20  N   UNL     1      -4.363   5.912  -5.196  0.00  0.00    -0.313 N 
ATOM     21  C   UNL     1      -4.391   7.138  -5.754  0.00  0.00    +0.227 C 
ATOM     22  O   UNL     1      -4.221   8.122  -5.065  0.00  0.00    -0.274 OA
ATOM     23  H   UNL     1      -4.499   5.125  -5.746  0.00  0.00    +0.149 HD
BRANCH  21  24
ATOM     24  C   UNL     1      -4.633   7.287  -7.234  0.00  0.00    +0.181 C 
BRANCH  24  25
ATOM     25  N   UNL     1      -4.617   8.712  -7.592  0.00  0.00    -0.287 NA
ATOM     26  C   UNL     1      -3.256   9.261  -7.503  0.00  0.00    +0.090 C 
ATOM     27  C   UNL     1      -3.343  10.797  -7.476  0.00  0.00    +0.058 C 
ATOM     28  C   UNL     1      -4.283  11.219  -8.557  0.00  0.00    -0.004 A 
ATOM     29  C   UNL     1      -5.147  10.418  -9.242  0.00  0.00    -0.020 A 
ATOM     30  C   UNL     1      -5.929  11.035 -10.216  0.00  0.00    +0.013 A 
ATOM     31  C   UNL     1      -5.808  12.365 -10.438  0.00  0.00    +0.046 A 
ATOM     32  S   UNL     1      -4.552  12.824  -9.253  0.00  0.00    -0.101 S 
ATOM     33  C   UNL     1      -5.214   8.929  -8.915  0.00  0.00    +0.088 C 
BRANCH  33  34
ATOM     34  C   UNL     1      -6.674   8.471  -8.902  0.00  0.00    +0.020 C 
ATOM     35  C   UNL     1      -7.451   9.277  -7.859  0.00  0.00    +0.006 C 
ENDBRANCH  33  34
ENDBRANCH  24  25
ENDBRANCH  21  24
ENDBRANCH  19  20
ENDBRANCH   1  19
TORSDOF 9
