REMARK  Name = ZINC50671369
REMARK  4 active torsions:
REMARK  status: ('A' for Active; 'I' for Inactive)
REMARK    1  A    between atoms: C_1  and  N_2
REMARK    2  A    between atoms: N_2  and  C_3
REMARK    3  A    between atoms: C_8  and  S_9
REMARK    4  A    between atoms: S_9  and  N_12
REMARK                            x       y       z     vdW  Elec       q    Type
REMARK                         _______ _______ _______ _____ _____    ______ ____
ROOT
ATOM      1  S   UNL     1       0.355  -2.971  -0.017  0.00  0.00    +0.103 S 
ATOM      2  O   UNL     1       1.158  -2.394   1.004  0.00  0.00    -0.146 OA
ATOM      3  O   UNL     1       0.042  -4.356  -0.049  0.00  0.00    -0.146 OA
ENDROOT
BRANCH   1   4
ATOM      4  N   UNL     1       1.096  -2.620  -1.456  0.00  0.00    -0.103 NA
ATOM      5  C   UNL     1       2.267  -3.138  -1.733  0.00  0.00    +0.192 A 
ATOM      6  N   UNL     1       3.044  -3.988  -0.984  0.00  0.00    -0.336 N 
ATOM      7  C   UNL     1       4.260  -4.415  -1.475  0.00  0.00    +0.028 A 
ATOM      8  C   UNL     1       4.629  -3.969  -2.682  0.00  0.00    +0.012 A 
ATOM      9  S   UNL     1       3.281  -2.933  -3.191  0.00  0.00    -0.053 S 
ATOM     10  C   UNL     1       5.885  -4.279  -3.430  0.00  0.00    +0.044 C 
ATOM     11  C   UNL     1       6.889  -4.912  -2.456  0.00  0.00    +0.006 C 
ATOM     12  C   UNL     1       6.168  -6.000  -1.654  0.00  0.00    +0.006 C 
ATOM     13  C   UNL     1       5.169  -5.359  -0.691  0.00  0.00    +0.054 C 
ATOM     14  H   UNL     1       2.738  -4.287  -0.113  0.00  0.00    +0.168 HD
ENDBRANCH   1   4
BRANCH   1  20
ATOM     15  C   UNL     1      -1.198  -0.719   0.010  0.00  0.00    +0.054 A 
ATOM     16  C   UNL     1      -2.411  -0.042   0.019  0.00  0.00    +0.025 A 
ATOM     17  C   UNL     1      -3.596  -0.752   0.026  0.00  0.00    +0.002 A 
ATOM     18  C   UNL     1      -3.575  -2.135   0.024  0.00  0.00    +0.002 A 
ATOM     19  C   UNL     1      -2.369  -2.811   0.015  0.00  0.00    +0.031 A 
ATOM     20  C   UNL     1      -1.181  -2.108   0.002  0.00  0.00    +0.133 A 
BRANCH  15  22
ATOM     21  C   UNL     1      -0.018   1.461   0.010  0.00  0.00    +0.125 C 
ATOM     22  N   UNL     1       0.002  -0.004   0.002  0.00  0.00    -0.345 N 
ATOM     23  H   UNL     1       0.849  -0.478  -0.009  0.00  0.00    +0.146 HD
ENDBRANCH  15  22
ENDBRANCH   1  20
TORSDOF 3
