REMARK  Name = ZINC27534071
REMARK  2 active torsions:
REMARK  status: ('A' for Active; 'I' for Inactive)
REMARK    1  A    between atoms: C_1  and  C_2
REMARK    2  A    between atoms: C_6  and  N_8
REMARK                            x       y       z     vdW  Elec       q    Type
REMARK                         _______ _______ _______ _____ _____    ______ ____
ROOT
ATOM      1  N   UNL     1       1.149   2.082   0.002  0.00  0.00    -0.229 N 
ATOM      2  C   UNL     1       0.097   1.404   0.503  0.00  0.00    +0.265 A 
ATOM      3  O   UNL     1      -0.862   2.004   0.957  0.00  0.00    -0.267 OA
ATOM      4  C   UNL     1       0.115  -0.005   0.493  0.00  0.00    +0.048 A 
ATOM      5  C   UNL     1       1.187  -0.649  -0.049  0.00  0.00    +0.060 A 
ATOM      6  N   UNL     1       2.245   0.082  -0.537  0.00  0.00    -0.306 N 
ATOM      7  H   UNL     1       3.123  -0.432  -0.955  0.00  0.00    +0.170 HD
ATOM      8  C   UNL     1       2.210   1.428  -0.504  0.00  0.00    +0.334 A 
ATOM      9  O   UNL     1       3.152   2.062  -0.938  0.00  0.00    -0.246 OA
ATOM     10  C   UNL     1       1.195  -2.123  -0.109  0.00  0.00    +0.002 A 
ATOM     11  C   UNL     1       2.377  -2.821  -0.355  0.00  0.00    +0.010 A 
ATOM     12  C   UNL     1       2.360  -4.201  -0.390  0.00  0.00    +0.001 A 
ATOM     13  C   UNL     1       1.177  -4.887  -0.178  0.00  0.00    +0.000 A 
ATOM     14  C   UNL     1       0.001  -4.198   0.061  0.00  0.00    +0.004 A 
ATOM     15  C   UNL     1       0.001  -2.819   0.087  0.00  0.00    -0.037 A 
ATOM     16  C   UNL     1      -1.282  -2.060   0.298  0.00  0.00    +0.047 C 
ATOM     17  C   UNL     1      -1.022  -0.785   1.098  0.00  0.00    +0.007 C 
ATOM     18  C   UNL     1      -2.286   0.080   1.095  0.00  0.00    +0.012 C 
ATOM     19  C   UNL     1      -3.443  -0.707   1.712  0.00  0.00    +0.001 C 
ATOM     20  C   UNL     1      -3.092  -1.084   3.153  0.00  0.00    +0.000 C 
ATOM     21  C   UNL     1      -1.826  -1.943   3.161  0.00  0.00    +0.001 C 
ATOM     22  C   UNL     1      -0.670  -1.155   2.542  0.00  0.00    +0.012 C 
ENDROOT
BRANCH   1  28
ATOM     23  C   UNL     1       0.038   6.316  -2.240  0.00  0.00    +0.044 C 
ATOM     24  C   UNL     1       0.605   5.560  -1.066  0.00  0.00    -0.048 A 
ATOM     25  C   UNL     1       1.115   6.250   0.019  0.00  0.00    +0.003 A 
ATOM     26  C   UNL     1       1.636   5.560   1.098  0.00  0.00    +0.002 A 
ATOM     27  C   UNL     1       1.649   4.179   1.095  0.00  0.00    +0.026 A 
ATOM     28  C   UNL     1       1.137   3.483   0.008  0.00  0.00    +0.055 A 
ATOM     29  C   UNL     1       0.619   4.179  -1.076  0.00  0.00    +0.029 A 
ENDBRANCH   1  28
TORSDOF 1
