REMARK  Name = ZINC65419805
REMARK  9 active torsions:
REMARK  status: ('A' for Active; 'I' for Inactive)
REMARK    1  A    between atoms: C_1  and  C_2
REMARK    2  A    between atoms: C_2  and  C_3
REMARK    3  A    between atoms: C_3  and  C_4
REMARK    4  A    between atoms: C_3  and  N_5
REMARK    5  A    between atoms: C_6  and  C_8
REMARK    6  A    between atoms: C_11  and  N_15
REMARK    7  A    between atoms: C_12  and  C_14
REMARK    8  A    between atoms: N_18  and  C_19
REMARK    9  A    between atoms: C_21  and  C_22
REMARK                            x       y       z     vdW  Elec       q    Type
REMARK                         _______ _______ _______ _____ _____    ______ ____
ROOT
ATOM      1  N   UNL     1       8.280   1.595   2.034  0.00  0.00    -0.269 N 
ATOM      2  C   UNL     1       9.049   1.192   1.003  0.00  0.00    +0.304 C 
ATOM      3  O   UNL     1       8.555   0.566   0.085  0.00  0.00    -0.253 OA
ATOM      4  N   UNL     1      10.365   1.481   0.989  0.00  0.00    -0.296 N 
ATOM      5  H   UNL     1       8.660   2.150   2.733  0.00  0.00    +0.156 HD
ATOM      6  H   UNL     1      10.759   1.980   1.721  0.00  0.00    +0.151 HD
ENDROOT
BRANCH   1  10
ATOM      7  C   UNL     1       4.277   0.460   2.218  0.00  0.00    +0.037 A 
ATOM      8  C   UNL     1       4.876   0.718   0.981  0.00  0.00    +0.015 A 
ATOM      9  C   UNL     1       6.199   1.093   0.924  0.00  0.00    +0.024 A 
ATOM     10  C   UNL     1       6.940   1.215   2.095  0.00  0.00    +0.038 A 
ATOM     11  C   UNL     1       6.348   0.959   3.328  0.00  0.00    -0.028 A 
ATOM     12  C   UNL     1       5.023   0.590   3.392  0.00  0.00    +0.018 A 
ATOM     13  C   UNL     1       7.154   1.093   4.593  0.00  0.00    +0.045 C 
BRANCH   7  15
ATOM     14  N   UNL     1       2.140  -0.066   1.149  0.00  0.00    -0.309 N 
ATOM     15  C   UNL     1       2.858   0.059   2.283  0.00  0.00    +0.244 C 
ATOM     16  O   UNL     1       2.337  -0.160   3.359  0.00  0.00    -0.270 OA
ATOM     17  H   UNL     1       2.556   0.109   0.290  0.00  0.00    +0.149 HD
BRANCH  14  18
ATOM     18  C   UNL     1       0.732  -0.465   1.214  0.00  0.00    +0.070 C 
ATOM     19  C   UNL     1       0.636  -1.990   1.268  0.00  0.00    +0.028 C 
BRANCH  18  21
ATOM     20  C   UNL     1      -0.012   1.579  -0.017  0.00  0.00    +0.005 C 
ATOM     21  C   UNL     1      -0.001   0.049  -0.027  0.00  0.00    +0.018 C 
ENDBRANCH  18  21
ENDBRANCH  14  18
ENDBRANCH   7  15
ENDBRANCH   1  10
BRANCH   4  22
ATOM     22  C   UNL     1      11.200   1.042  -0.132  0.00  0.00    +0.083 C 
ATOM     23  C   UNL     1      12.206   2.046  -0.699  0.00  0.00    +0.033 C 
ATOM     24  C   UNL     1      12.696   0.858   0.132  0.00  0.00    +0.041 C 
BRANCH  24  25
ATOM     25  C   UNL     1      13.197   1.141   1.524  0.00  0.00    -0.040 A 
ATOM     26  C   UNL     1      13.034   2.399   2.075  0.00  0.00    +0.004 A 
ATOM     27  C   UNL     1      13.494   2.661   3.352  0.00  0.00    +0.003 A 
ATOM     28  C   UNL     1      14.117   1.665   4.080  0.00  0.00    +0.038 A 
ATOM     29  C   UNL     1      14.281   0.405   3.530  0.00  0.00    +0.124 A 
ATOM     30  C   UNL     1      13.815   0.143   2.252  0.00  0.00    +0.042 A 
ATOM     31  F   UNL     1      14.891  -0.569   4.240  0.00  0.00    -0.205 F 
ENDBRANCH  24  25
ENDBRANCH   4  22
TORSDOF 6
