REMARK  Name = ZINC33063278
REMARK  5 active torsions:
REMARK  status: ('A' for Active; 'I' for Inactive)
REMARK    1  A    between atoms: C_1  and  C_2
REMARK    2  A    between atoms: C_5  and  N_9
REMARK    3  A    between atoms: C_6  and  C_8
REMARK    4  A    between atoms: C_15  and  C_17
REMARK    5  A    between atoms: C_20  and  C_23
REMARK                            x       y       z     vdW  Elec       q    Type
REMARK                         _______ _______ _______ _____ _____    ______ ____
ROOT
ATOM      1  C   UNL     1       2.556   4.135  -4.661  0.00  0.00    +0.037 A 
ATOM      2  C   UNL     1       1.819   3.183  -3.955  0.00  0.00    +0.013 A 
ATOM      3  C   UNL     1       1.708   3.279  -2.583  0.00  0.00    +0.007 A 
ATOM      4  C   UNL     1       2.325   4.316  -1.907  0.00  0.00    -0.011 A 
ATOM      5  C   UNL     1       3.052   5.267  -2.601  0.00  0.00    +0.007 A 
ATOM      6  C   UNL     1       3.176   5.179  -3.972  0.00  0.00    +0.013 A 
ENDROOT
BRANCH   4   7
ATOM      7  C   UNL     1       2.199   4.415  -0.408  0.00  0.00    +0.191 C 
ATOM      8  N   UNL     1       2.054   3.077   0.160  0.00  0.00    -0.322 N 
ATOM      9  C   UNL     1       3.085   2.141   0.185  0.00  0.00    +0.055 A 
ATOM     10  C   UNL     1       2.763   0.791   0.312  0.00  0.00    +0.025 A 
ATOM     11  C   UNL     1       3.763  -0.158   0.376  0.00  0.00    +0.002 A 
ATOM     12  C   UNL     1       5.090   0.224   0.314  0.00  0.00    +0.002 A 
ATOM     13  C   UNL     1       5.417   1.561   0.180  0.00  0.00    +0.030 A 
ATOM     14  C   UNL     1       4.420   2.511   0.109  0.00  0.00    +0.126 A 
ATOM     15  S   UNL     1       4.841   4.215  -0.098  0.00  0.00    +0.062 S 
ATOM     16  O   UNL     1       5.715   4.560   0.969  0.00  0.00    -0.153 OA
ATOM     17  O   UNL     1       5.188   4.394  -1.465  0.00  0.00    -0.153 OA
ATOM     18  N   UNL     1       3.413   5.040   0.153  0.00  0.00    -0.166 NA
ATOM     19  H   UNL     1       1.094   2.767   0.598  0.00  0.00    +0.148 HD
ATOM     20  H   UNL     1       3.371   6.064   0.552  0.00  0.00    +0.150 HD
ENDBRANCH   4   7
BRANCH   1  27
ATOM     21  N   UNL     1       6.351   3.853  -7.887  0.00  0.00    -0.327 N 
ATOM     22  C   UNL     1       5.141   3.445  -8.613  0.00  0.00    +0.124 C 
ATOM     23  C   UNL     1       3.971   4.341  -8.193  0.00  0.00    +0.127 C 
ATOM     24  N   UNL     1       3.858   4.306  -6.727  0.00  0.00    -0.295 N 
ATOM     25  C   UNL     1       5.064   4.575  -5.930  0.00  0.00    +0.127 C 
ATOM     26  C   UNL     1       6.192   3.664  -6.439  0.00  0.00    +0.124 C 
ATOM     27  C   UNL     1       2.679   4.038  -6.131  0.00  0.00    +0.247 C 
ATOM     28  O   UNL     1       1.717   3.718  -6.801  0.00  0.00    -0.270 OA
BRANCH  21  33
ATOM     29  C   UNL     1      10.906   1.078  -9.812  0.00  0.00    +0.044 C 
ATOM     30  C   UNL     1       9.696   1.816  -9.300  0.00  0.00    -0.050 A 
ATOM     31  C   UNL     1       8.633   1.110  -8.765  0.00  0.00    +0.005 A 
ATOM     32  C   UNL     1       7.523   1.783  -8.295  0.00  0.00    +0.023 A 
ATOM     33  C   UNL     1       7.473   3.170  -8.361  0.00  0.00    +0.033 A 
ATOM     34  C   UNL     1       8.540   3.874  -8.903  0.00  0.00    -0.029 A 
ATOM     35  C   UNL     1       9.650   3.196  -9.367  0.00  0.00    +0.008 A 
ATOM     36  C   UNL     1       8.488   5.379  -8.982  0.00  0.00    +0.045 C 
ENDBRANCH  21  33
ENDBRANCH   1  27
TORSDOF 3
