REMARK  Name = ZINC43046893
REMARK  8 active torsions:
REMARK  status: ('A' for Active; 'I' for Inactive)
REMARK    1  A    between atoms: C_1  and  C_2
REMARK    2  A    between atoms: C_4  and  C_26
REMARK    3  A    between atoms: C_6  and  O_8
REMARK    4  A    between atoms: O_8  and  C_9
REMARK    5  A    between atoms: C_9  and  C_10
REMARK    6  A    between atoms: N_12  and  N_13
REMARK    7  A    between atoms: N_16  and  C_17
REMARK    8  A    between atoms: C_23  and  C_25
REMARK                            x       y       z     vdW  Elec       q    Type
REMARK                         _______ _______ _______ _____ _____    ______ ____
ROOT
ATOM      1  C   UNL     1       0.064  -2.932   4.751  0.00  0.00    +0.267 C 
ATOM      2  O   UNL     1       0.080  -4.133   4.584  0.00  0.00    -0.271 OA
ATOM      3  N   UNL     1       0.063  -2.425   6.000  0.00  0.00    -0.230 N 
ATOM      4  H   UNL     1       0.051  -1.464   6.134  0.00  0.00    +0.173 HD
ENDROOT
BRANCH   3   5
ATOM      5  N   UNL     1       0.080  -3.286   7.105  0.00  0.00    -0.218 N 
ATOM      6  C   UNL     1       0.079  -2.780   8.354  0.00  0.00    +0.316 C 
ATOM      7  O   UNL     1       0.094  -3.527   9.313  0.00  0.00    -0.251 OA
ATOM      8  N   UNL     1       0.062  -1.445   8.540  0.00  0.00    -0.295 N 
ATOM      9  H   UNL     1       0.093  -4.247   6.971  0.00  0.00    +0.174 HD
ATOM     10  H   UNL     1       0.050  -0.849   7.775  0.00  0.00    +0.151 HD
BRANCH   8  11
ATOM     11  C   UNL     1       0.061  -0.894   9.898  0.00  0.00    +0.077 C 
ATOM     12  C   UNL     1       1.499  -0.800  10.411  0.00  0.00    +0.022 C 
ATOM     13  C   UNL     1       2.310   0.115   9.491  0.00  0.00    +0.002 C 
ATOM     14  C   UNL     1       1.681   1.510   9.475  0.00  0.00    +0.000 C 
ATOM     15  C   UNL     1       0.243   1.415   8.961  0.00  0.00    +0.005 C 
ATOM     16  C   UNL     1      -0.568   0.500   9.882  0.00  0.00    +0.006 C 
ATOM     17  C   UNL     1      -2.006   0.406   9.369  0.00  0.00    +0.009 C 
ENDBRANCH   8  11
ENDBRANCH   3   5
BRANCH   1  18
ATOM     18  C   UNL     1       0.046  -2.005   3.563  0.00  0.00    +0.326 C 
BRANCH  18  19
ATOM     19  O   UNL     1       0.051  -2.775   2.359  0.00  0.00    -0.483 OA
BRANCH  19  25
ATOM     20  C   UNL     1      -0.018   1.503   0.010  0.00  0.00    +0.044 C 
ATOM     21  C   UNL     1       0.002  -0.004   0.002  0.00  0.00    -0.047 A 
ATOM     22  C   UNL     1       0.006  -0.688  -1.200  0.00  0.00    +0.007 A 
ATOM     23  C   UNL     1       0.025  -2.071  -1.210  0.00  0.00    -0.047 A 
ATOM     24  C   UNL     1       0.040  -2.772  -0.020  0.00  0.00    +0.049 A 
ATOM     25  C   UNL     1       0.036  -2.088   1.187  0.00  0.00    +0.122 A 
ATOM     26  C   UNL     1       0.023  -0.701   1.195  0.00  0.00    +0.049 A 
ATOM     27  C   UNL     1       0.029  -2.813  -2.522  0.00  0.00    +0.044 C 
ENDBRANCH  19  25
ENDBRANCH  18  19
ENDBRANCH   1  18
TORSDOF 5
