REMARK  Name = ZINC34782615
REMARK  10 active torsions:
REMARK  status: ('A' for Active; 'I' for Inactive)
REMARK    1  A    between atoms: C_1  and  C_2
REMARK    2  A    between atoms: C_5  and  C_9
REMARK    3  A    between atoms: C_6  and  C_8
REMARK    4  A    between atoms: C_9  and  N_10
REMARK    5  A    between atoms: C_13  and  C_20
REMARK    6  A    between atoms: C_14  and  C_16
REMARK    7  A    between atoms: N_18  and  N_19
REMARK    8  A    between atoms: N_23  and  C_26
REMARK    9  A    between atoms: C_26  and  C_27
REMARK   10  A    between atoms: C_27  and  C_28
REMARK                            x       y       z     vdW  Elec       q    Type
REMARK                         _______ _______ _______ _____ _____    ______ ____
ROOT
ATOM      1  N   UNL     1      -1.334  -4.654   0.106  0.00  0.00    -0.283 N 
ATOM      2  C   UNL     1      -1.722  -4.843   1.403  0.00  0.00    +0.098 A 
ATOM      3  C   UNL     1      -3.011  -5.302   1.713  0.00  0.00    +0.074 A 
ATOM      4  C   UNL     1      -3.288  -5.457   3.077  0.00  0.00    -0.017 A 
ATOM      5  C   UNL     1      -2.289  -5.150   3.955  0.00  0.00    +0.081 A 
ATOM      6  S   UNL     1      -0.963  -4.645   2.878  0.00  0.00    -0.065 S 
ATOM      7  C   UNL     1      -4.633  -5.941   3.555  0.00  0.00    +0.046 C 
ATOM      8  C   UNL     1      -3.898  -5.558   0.552  0.00  0.00    +0.265 A 
ATOM      9  O   UNL     1      -5.035  -5.958   0.723  0.00  0.00    -0.267 OA
ATOM     10  N   UNL     1      -3.430  -5.343  -0.690  0.00  0.00    -0.260 N 
ATOM     11  C   UNL     1      -2.183  -4.898  -0.909  0.00  0.00    +0.333 A 
ATOM     12  O   UNL     1      -1.810  -4.715  -2.052  0.00  0.00    -0.246 OA
ENDROOT
BRANCH   5  13
ATOM     13  C   UNL     1      -2.304  -5.219   5.418  0.00  0.00    +0.264 C 
ATOM     14  O   UNL     1      -3.306  -5.590   6.000  0.00  0.00    -0.268 OA
ATOM     15  N   UNL     1      -1.207  -4.870   6.120  0.00  0.00    -0.249 N 
ATOM     16  H   UNL     1      -0.408  -4.574   5.656  0.00  0.00    +0.169 HD
BRANCH  15  17
ATOM     17  N   UNL     1      -1.220  -4.935   7.484  0.00  0.00    -0.254 NA
ATOM     18  H   UNL     1      -1.466  -5.861   7.800  0.00  0.00    +0.140 HD
ATOM     19  H   UNL     1      -0.334  -4.645   7.869  0.00  0.00    +0.140 HD
ENDBRANCH  15  17
ENDBRANCH   5  13
BRANCH   1  20
ATOM     20  C   UNL     1       0.020  -4.174  -0.181  0.00  0.00    +0.162 C 
BRANCH  20  25
ATOM     21  C   UNL     1       0.037   1.605  -0.257  0.00  0.00    +0.044 C 
ATOM     22  C   UNL     1       0.032   0.098  -0.237  0.00  0.00    -0.050 A 
ATOM     23  C   UNL     1      -1.161  -0.588  -0.108  0.00  0.00    +0.004 A 
ATOM     24  C   UNL     1      -1.165  -1.970  -0.090  0.00  0.00    +0.006 A 
ATOM     25  C   UNL     1       0.024  -2.667  -0.202  0.00  0.00    -0.025 A 
ATOM     26  C   UNL     1       1.217  -1.981  -0.332  0.00  0.00    -0.045 A 
ATOM     27  C   UNL     1       1.221  -0.599  -0.354  0.00  0.00    +0.007 A 
ATOM     28  C   UNL     1       2.513  -2.740  -0.454  0.00  0.00    +0.044 C 
ENDBRANCH  20  25
ENDBRANCH   1  20
BRANCH  10  29
ATOM     29  C   UNL     1      -4.308  -5.597  -1.835  0.00  0.00    +0.134 C 
BRANCH  29  30
ATOM     30  C   UNL     1      -5.084  -4.323  -2.175  0.00  0.00    +0.057 C 
BRANCH  30  31
ATOM     31  C   UNL     1      -5.987  -4.585  -3.353  0.00  0.00    -0.046 A 
ATOM     32  C   UNL     1      -5.524  -4.375  -4.638  0.00  0.00    +0.004 A 
ATOM     33  C   UNL     1      -6.352  -4.615  -5.719  0.00  0.00    +0.000 A 
ATOM     34  C   UNL     1      -7.644  -5.064  -5.514  0.00  0.00    +0.000 A 
ATOM     35  C   UNL     1      -8.106  -5.274  -4.228  0.00  0.00    +0.000 A 
ATOM     36  C   UNL     1      -7.277  -5.039  -3.148  0.00  0.00    +0.004 A 
ENDBRANCH  30  31
ENDBRANCH  29  30
ENDBRANCH  10  29
TORSDOF 7
