REMARK  Name = ZINC37605109
REMARK  13 active torsions:
REMARK  status: ('A' for Active; 'I' for Inactive)
REMARK    1  A    between atoms: C_1  and  C_2
REMARK    2  A    between atoms: C_2  and  C_3
REMARK    3  A    between atoms: C_11  and  O_23
REMARK    4  A    between atoms: C_14  and  C_16
REMARK    5  A    between atoms: C_19  and  C_22
REMARK    6  A    between atoms: O_23  and  C_24
REMARK    7  A    between atoms: C_24  and  C_25
REMARK    8  A    between atoms: C_28  and  C_30
REMARK    9  A    between atoms: N_32  and  C_33
REMARK   10  A    between atoms: C_33  and  C_34
REMARK   11  A    between atoms: C_34  and  N_35
REMARK   12  A    between atoms: N_35  and  C_36
REMARK   13  A    between atoms: N_35  and  C_37
REMARK                            x       y       z     vdW  Elec       q    Type
REMARK                         _______ _______ _______ _____ _____    ______ ____
ROOT
ATOM      1  C   UNL     1      -1.735  -0.293   0.010  0.00  0.00    +0.216 C 
ATOM      2  O   UNL     1      -2.777   0.320   0.110  0.00  0.00    -0.276 OA
ATOM      3  N   UNL     1      -1.747  -1.639  -0.043  0.00  0.00    -0.290 N 
ATOM      4  C   UNL     1      -0.500  -2.413  -0.159  0.00  0.00    +0.113 C 
ATOM      5  C   UNL     1      -0.346  -3.249   1.110  0.00  0.00    +0.054 C 
ATOM      6  C   UNL     1      -1.630  -3.962   1.442  0.00  0.00    -0.040 A 
ATOM      7  C   UNL     1      -1.554  -5.067   2.282  0.00  0.00    +0.007 A 
ATOM      8  C   UNL     1      -2.691  -5.762   2.634  0.00  0.00    +0.046 A 
ATOM      9  C   UNL     1      -3.925  -5.356   2.147  0.00  0.00    +0.121 A 
ATOM     10  C   UNL     1      -4.002  -4.257   1.308  0.00  0.00    +0.051 A 
ATOM     11  C   UNL     1      -2.854  -3.564   0.951  0.00  0.00    -0.016 A 
ATOM     12  C   UNL     1      -3.004  -2.394   0.018  0.00  0.00    +0.137 C 
ENDROOT
BRANCH  12  13
ATOM     13  C   UNL     1      -3.354  -2.897  -1.359  0.00  0.00    -0.023 A 
ATOM     14  C   UNL     1      -4.484  -2.426  -2.000  0.00  0.00    +0.006 A 
ATOM     15  C   UNL     1      -4.805  -2.889  -3.263  0.00  0.00    +0.004 A 
ATOM     16  C   UNL     1      -3.996  -3.821  -3.884  0.00  0.00    -0.050 A 
ATOM     17  C   UNL     1      -2.865  -4.292  -3.243  0.00  0.00    +0.004 A 
ATOM     18  C   UNL     1      -2.542  -3.826  -1.982  0.00  0.00    +0.006 A 
ATOM     19  C   UNL     1      -4.347  -4.326  -5.260  0.00  0.00    +0.044 C 
ENDBRANCH  12  13
BRANCH   1  21
ATOM     20  C   UNL     1      -0.691   1.956   0.024  0.00  0.00    +0.013 C 
ATOM     21  C   UNL     1      -0.426   0.452  -0.056  0.00  0.00    +0.092 C 
ENDBRANCH   1  21
BRANCH   9  22
ATOM     22  O   UNL     1      -5.053  -6.032   2.492  0.00  0.00    -0.484 OA
BRANCH  22  23
ATOM     23  C   UNL     1      -4.895  -7.155   3.362  0.00  0.00    +0.303 C 
BRANCH  23  24
ATOM     24  C   UNL     1      -6.242  -7.774   3.632  0.00  0.00    +0.143 A 
ATOM     25  C   UNL     1      -6.816  -8.758   2.904  0.00  0.00    +0.049 A 
ATOM     26  C   UNL     1      -8.058  -9.038   3.495  0.00  0.00    +0.055 A 
ATOM     27  C   UNL     1      -8.181  -8.200   4.567  0.00  0.00    +0.190 A 
ATOM     28  O   UNL     1      -7.065  -7.444   4.635  0.00  0.00    -0.452 OA
BRANCH  27  29
ATOM     29  C   UNL     1      -9.323  -8.137   5.484  0.00  0.00    +0.279 C 
ATOM     30  O   UNL     1     -10.275  -8.876   5.322  0.00  0.00    -0.267 OA
ATOM     31  N   UNL     1      -9.317  -7.259   6.508  0.00  0.00    -0.311 N 
ATOM     32  H   UNL     1      -8.557  -6.670   6.637  0.00  0.00    +0.149 HD
BRANCH  31  33
ATOM     33  C   UNL     1     -10.458  -7.196   7.424  0.00  0.00    +0.086 C 
BRANCH  33  34
ATOM     34  C   UNL     1     -10.199  -6.125   8.487  0.00  0.00    -0.061 C 
BRANCH  34  35
ATOM     35  N   UNL     1     -11.343  -6.062   9.406  0.00  0.00    +0.377 N 
ATOM     36  C   UNL     1     -11.448  -7.326  10.146  0.00  0.00    -0.097 C 
ATOM     37  C   UNL     1     -11.150  -4.955  10.353  0.00  0.00    -0.097 C 
ATOM     38  H   UNL     1     -12.190  -5.909   8.879  0.00  0.00    -0.083 HD
ENDBRANCH  34  35
ENDBRANCH  33  34
ENDBRANCH  31  33
ENDBRANCH  27  29
ENDBRANCH  23  24
ENDBRANCH  22  23
ENDBRANCH   9  22
TORSDOF 9
