REMARK  Name = ZINC62957648
REMARK  9 active torsions:
REMARK  status: ('A' for Active; 'I' for Inactive)
REMARK    1  A    between atoms: C_1  and  C_2
REMARK    2  A    between atoms: C_2  and  N_3
REMARK    3  A    between atoms: N_3  and  C_4
REMARK    4  A    between atoms: N_3  and  C_6
REMARK    5  A    between atoms: C_4  and  C_5
REMARK    6  A    between atoms: C_9  and  C_12
REMARK    7  A    between atoms: C_19  and  O_29
REMARK    8  A    between atoms: C_20  and  C_23
REMARK    9  A    between atoms: C_23  and  N_24
REMARK                            x       y       z     vdW  Elec       q    Type
REMARK                         _______ _______ _______ _____ _____    ______ ____
ROOT
ATOM      1  C   UNL     1       0.366  -6.101  -1.471  0.00  0.00    +0.058 C 
ATOM      2  C   UNL     1      -0.321  -6.694  -2.479  0.00  0.00    +0.176 C 
ATOM      3  C   UNL     1      -0.585  -8.135  -2.622  0.00  0.00    +0.231 C 
ATOM      4  O   UNL     1      -0.240  -9.034  -1.875  0.00  0.00    -0.283 OA
ATOM      5  C   UNL     1      -1.361  -8.246  -3.870  0.00  0.00    +0.068 A 
ATOM      6  C   UNL     1      -1.912  -9.328  -4.558  0.00  0.00    +0.019 A 
ATOM      7  C   UNL     1      -2.596  -9.117  -5.721  0.00  0.00    +0.046 A 
ATOM      8  C   UNL     1      -2.744  -7.827  -6.223  0.00  0.00    +0.122 A 
ATOM      9  C   UNL     1      -2.201  -6.744  -5.551  0.00  0.00    +0.020 A 
ATOM     10  C   UNL     1      -1.503  -6.940  -4.366  0.00  0.00    +0.144 A 
ATOM     11  O   UNL     1      -0.894  -6.067  -3.534  0.00  0.00    -0.451 OA
ENDROOT
BRANCH   1  15
ATOM     12  C   UNL     1       1.234  -1.954  -1.650  0.00  0.00    +0.013 A 
ATOM     13  C   UNL     1       0.678  -2.589  -2.748  0.00  0.00    +0.022 A 
ATOM     14  C   UNL     1       0.393  -3.937  -2.698  0.00  0.00    +0.010 A 
ATOM     15  C   UNL     1       0.667  -4.663  -1.534  0.00  0.00    -0.021 A 
ATOM     16  C   UNL     1       1.230  -4.014  -0.429  0.00  0.00    +0.010 A 
ATOM     17  C   UNL     1       1.514  -2.667  -0.497  0.00  0.00    +0.022 A 
BRANCH  12  18
ATOM     18  N   UNL     1       1.520  -0.587  -1.709  0.00  0.00    -0.394 NA
ATOM     19  H   UNL     1       1.922  -0.289  -0.833  0.00  0.00    +0.126 HD
BRANCH  18  21
ATOM     20  C   UNL     1       2.883   1.142  -2.783  0.00  0.00    +0.022 C 
ATOM     21  C   UNL     1       2.474  -0.333  -2.797  0.00  0.00    +0.081 C 
ENDBRANCH  18  21
BRANCH  18  22
ATOM     22  C   UNL     1       0.282   0.162  -1.959  0.00  0.00    +0.081 C 
ATOM     23  C   UNL     1      -0.663  -0.003  -0.767  0.00  0.00    +0.022 C 
ENDBRANCH  18  22
ENDBRANCH  12  18
ENDBRANCH   1  15
BRANCH   8  24
ATOM     24  O   UNL     1      -3.425  -7.628  -7.380  0.00  0.00    -0.506 OA
ATOM     25  H   UNL     1      -4.373  -7.479  -7.258  0.00  0.00    +0.292 HD
ENDBRANCH   8  24
BRANCH   9  26
ATOM     26  C   UNL     1      -2.369  -5.352  -6.105  0.00  0.00    -0.036 C 
BRANCH  26  27
ATOM     27  N   UNL     1      -3.599  -4.756  -5.568  0.00  0.00    +0.383 N 
ATOM     28  C   UNL     1      -3.449  -4.492  -4.114  0.00  0.00    -0.078 C 
ATOM     29  C   UNL     1      -4.517  -3.405  -3.838  0.00  0.00    -0.020 C 
ATOM     30  C   UNL     1      -4.458  -2.531  -5.112  0.00  0.00    -0.020 C 
ATOM     31  C   UNL     1      -3.842  -3.438  -6.194  0.00  0.00    -0.078 C 
ATOM     32  H   UNL     1      -4.384  -5.369  -5.733  0.00  0.00    -0.081 HD
ENDBRANCH  26  27
ENDBRANCH   9  26
TORSDOF 7
