REMARK  Name = ZINC09001821
REMARK  3 active torsions:
REMARK  status: ('A' for Active; 'I' for Inactive)
REMARK    1  A    between atoms: C_1  and  C_2
REMARK    2  A    between atoms: C_4  and  C_8
REMARK    3  A    between atoms: N_6  and  C_7
REMARK                            x       y       z     vdW  Elec       q    Type
REMARK                         _______ _______ _______ _____ _____    ______ ____
ROOT
ATOM      1  C   UNL     1      -3.606   2.564   3.009  0.00  0.00    +0.270 C 
ATOM      2  O   UNL     1      -3.751   2.934   4.158  0.00  0.00    -0.268 OA
ATOM      3  N   UNL     1      -4.671   2.486   2.186  0.00  0.00    -0.259 N 
ATOM      4  C   UNL     1      -5.933   2.828   2.651  0.00  0.00    +0.166 A 
ATOM      5  N   UNL     1      -7.081   2.819   2.013  0.00  0.00    -0.224 NA
ATOM      6  C   UNL     1      -8.237   3.179   2.593  0.00  0.00    +0.089 A 
ATOM      7  C   UNL     1      -8.155   3.571   3.936  0.00  0.00    +0.049 A 
ATOM      8  S   UNL     1      -6.421   3.388   4.276  0.00  0.00    -0.051 S 
ATOM      9  C   UNL     1      -9.472   3.933   4.436  0.00  0.00    -0.001 A 
ATOM     10  C   UNL     1     -10.038   4.382   5.622  0.00  0.00    +0.010 A 
ATOM     11  C   UNL     1     -11.409   4.621   5.691  0.00  0.00    +0.001 A 
ATOM     12  C   UNL     1     -12.255   4.438   4.631  0.00  0.00    +0.008 A 
ATOM     13  C   UNL     1     -11.726   3.985   3.411  0.00  0.00    -0.017 A 
ATOM     14  C   UNL     1     -10.351   3.748   3.357  0.00  0.00    -0.000 A 
ATOM     15  C   UNL     1      -9.676   3.297   2.221  0.00  0.00    +0.010 A 
ATOM     16  C   UNL     1     -10.435   3.075   1.087  0.00  0.00    +0.011 A 
ATOM     17  C   UNL     1     -11.811   3.306   1.121  0.00  0.00    +0.001 A 
ATOM     18  C   UNL     1     -12.465   3.748   2.239  0.00  0.00    +0.008 A 
ATOM     19  H   UNL     1      -4.555   2.191   1.270  0.00  0.00    +0.157 HD
ENDROOT
BRANCH   1  23
ATOM     20  C   UNL     1       1.374   1.675   2.697  0.00  0.00    +0.065 C 
ATOM     21  C   UNL     1      -0.095   1.817   2.393  0.00  0.00    +0.037 A 
ATOM     22  C   UNL     1      -1.056   2.230   3.253  0.00  0.00    +0.057 A 
ATOM     23  C   UNL     1      -2.263   2.200   2.514  0.00  0.00    +0.148 A 
ATOM     24  N   UNL     1      -1.959   1.791   1.298  0.00  0.00    -0.167 NA
ATOM     25  N   UNL     1      -0.698   1.558   1.213  0.00  0.00    -0.271 N 
ATOM     26  C   UNL     1      -0.013   1.086   0.008  0.00  0.00    +0.172 C 
ENDBRANCH   1  23
TORSDOF 1
