REMARK  Name = ZINC45896213
REMARK  8 active torsions:
REMARK  status: ('A' for Active; 'I' for Inactive)
REMARK    1  A    between atoms: C_1  and  C_2
REMARK    2  A    between atoms: C_3  and  C_20
REMARK    3  A    between atoms: C_4  and  C_12
REMARK    4  A    between atoms: C_20  and  O_22
REMARK    5  A    between atoms: O_22  and  C_23
REMARK    6  A    between atoms: C_23  and  C_24
REMARK    7  A    between atoms: C_23  and  C_25
REMARK    8  A    between atoms: C_23  and  C_26
REMARK                            x       y       z     vdW  Elec       q    Type
REMARK                         _______ _______ _______ _____ _____    ______ ____
ROOT
ATOM      1  C   UNL     1      -0.018   1.503   0.010  0.00  0.00    +0.061 C 
ATOM      2  C   UNL     1       0.002  -0.004   0.002  0.00  0.00    +0.020 C 
ATOM      3  C   UNL     1      -1.165  -0.668   0.004  0.00  0.00    +0.082 C 
ATOM      4  C   UNL     1      -1.256  -2.171  -0.016  0.00  0.00    +0.186 C 
ATOM      5  N   UNL     1       0.061  -2.739   0.249  0.00  0.00    -0.201 N 
ATOM      6  C   UNL     1       1.210  -2.014   0.244  0.00  0.00    +0.240 A 
ATOM      7  N   UNL     1       2.186  -2.835   0.510  0.00  0.00    -0.092 NA
ATOM      8  N   UNL     1       1.730  -4.028   0.688  0.00  0.00    -0.021 NA
ATOM      9  N   UNL     1       0.444  -4.046   0.545  0.00  0.00    -0.042 NA
ATOM     10  N   UNL     1       1.213  -0.650  -0.013  0.00  0.00    -0.286 N 
ATOM     11  H   UNL     1       2.038  -0.172  -0.193  0.00  0.00    +0.155 HD
ENDROOT
BRANCH   4  12
ATOM     12  C   UNL     1      -1.737  -2.627  -1.369  0.00  0.00    +0.052 A 
ATOM     13  C   UNL     1      -1.003  -2.327  -2.503  0.00  0.00    +0.132 A 
ATOM     14  C   UNL     1      -1.446  -2.747  -3.746  0.00  0.00    +0.039 A 
ATOM     15  C   UNL     1      -2.622  -3.465  -3.854  0.00  0.00    +0.006 A 
ATOM     16  C   UNL     1      -3.356  -3.766  -2.723  0.00  0.00    +0.039 A 
ATOM     17  C   UNL     1      -2.911  -3.352  -1.478  0.00  0.00    +0.132 A 
ATOM     18  F   UNL     1      -3.626  -3.651  -0.371  0.00  0.00    -0.205 F 
ATOM     19  F   UNL     1       0.146  -1.624  -2.398  0.00  0.00    -0.205 F 
ENDBRANCH   4  12
BRANCH   3  20
ATOM     20  C   UNL     1      -2.364   0.079   0.027  0.00  0.00    +0.340 C 
ATOM     21  O   UNL     1      -2.323   1.295   0.044  0.00  0.00    -0.245 OA
BRANCH  20  22
ATOM     22  O   UNL     1      -3.554  -0.556   0.029  0.00  0.00    -0.456 OA
BRANCH  22  23
ATOM     23  C   UNL     1      -4.726   0.261   0.053  0.00  0.00    +0.106 C 
ATOM     24  C   UNL     1      -4.744   1.162  -1.184  0.00  0.00    +0.055 C 
ATOM     25  C   UNL     1      -5.970  -0.630   0.052  0.00  0.00    +0.055 C 
ATOM     26  C   UNL     1      -4.719   1.127   1.314  0.00  0.00    +0.055 C 
ENDBRANCH  22  23
ENDBRANCH  20  22
ENDBRANCH   3  20
TORSDOF 4
