REMARK  Name = ZINC63385771
REMARK  13 active torsions:
REMARK  status: ('A' for Active; 'I' for Inactive)
REMARK    1  A    between atoms: C_1  and  C_2
REMARK    2  A    between atoms: C_6  and  O_8
REMARK    3  A    between atoms: O_8  and  C_9
REMARK    4  A    between atoms: C_9  and  C_10
REMARK    5  A    between atoms: C_10  and  C_12
REMARK    6  A    between atoms: C_13  and  C_37
REMARK    7  A    between atoms: C_15  and  C_20
REMARK    8  A    between atoms: C_20  and  C_21
REMARK    9  A    between atoms: N_23  and  C_24
REMARK   10  A    between atoms: C_24  and  C_25
REMARK   11  A    between atoms: C_25  and  C_26
REMARK   12  A    between atoms: C_30  and  O_35
REMARK   13  A    between atoms: O_35  and  C_36
REMARK                            x       y       z     vdW  Elec       q    Type
REMARK                         _______ _______ _______ _____ _____    ______ ____
ROOT
ATOM      1  C   UNL     1      -3.464  -4.290  -1.130  0.00  0.00    +0.111 C 
ENDROOT
BRANCH   1  10
ATOM      2  C   UNL     1       0.916   0.620   0.025  0.00  0.00    +0.044 C 
ATOM      3  C   UNL     1       0.358  -0.778  -0.041  0.00  0.00    -0.044 A 
ATOM      4  C   UNL     1      -0.144  -1.266  -1.230  0.00  0.00    +0.050 A 
ATOM      5  C   UNL     1      -0.659  -2.557  -1.299  0.00  0.00    +0.139 A 
ATOM      6  C   UNL     1      -0.662  -3.357  -0.172  0.00  0.00    +0.040 A 
ATOM      7  C   UNL     1      -0.159  -2.861   1.026  0.00  0.00    +0.128 A 
ATOM      8  C   UNL     1       0.355  -1.575   1.088  0.00  0.00    +0.049 A 
ATOM      9  C   UNL     1      -1.188  -4.770  -0.200  0.00  0.00    +0.037 C 
ATOM     10  C   UNL     1      -2.115  -4.957  -1.405  0.00  0.00    +0.114 C 
ATOM     11  C   UNL     1      -1.450  -4.303  -2.600  0.00  0.00    +0.317 C 
ATOM     12  O   UNL     1      -1.198  -4.926  -3.603  0.00  0.00    -0.250 OA
ATOM     13  O   UNL     1      -1.154  -2.992  -2.490  0.00  0.00    -0.425 OA
ATOM     14  C   UNL     1      -1.968  -5.048   1.087  0.00  0.00    +0.013 C 
BRANCH   7  15
ATOM     15  O   UNL     1      -0.168  -3.641   2.139  0.00  0.00    -0.487 OA
BRANCH  15  16
ATOM     16  C   UNL     1       0.265  -3.035   3.358  0.00  0.00    +0.259 C 
BRANCH  16  17
ATOM     17  C   UNL     1       0.310  -4.076   4.447  0.00  0.00    -0.043 C 
ATOM     18  C   UNL     1       0.095  -5.335   4.159  0.00  0.00    +0.011 C 
ATOM     19  C   UNL     1       0.604  -3.668   5.868  0.00  0.00    +0.042 C 
ENDBRANCH  16  17
ENDBRANCH  15  16
ENDBRANCH   7  15
ENDBRANCH   1  10
BRANCH   1  20
ATOM     20  C   UNL     1      -4.410  -4.582  -2.267  0.00  0.00    +0.214 C 
ATOM     21  O   UNL     1      -4.041  -5.257  -3.204  0.00  0.00    -0.276 OA
ATOM     22  N   UNL     1      -5.665  -4.093  -2.241  0.00  0.00    -0.315 N 
ATOM     23  H   UNL     1      -5.960  -3.553  -1.492  0.00  0.00    +0.149 HD
BRANCH  22  24
ATOM     24  C   UNL     1      -6.584  -4.377  -3.346  0.00  0.00    +0.108 C 
BRANCH  24  25
ATOM     25  C   UNL     1      -7.934  -3.710  -3.071  0.00  0.00    +0.052 C 
BRANCH  25  26
ATOM     26  C   UNL     1      -8.879  -4.003  -4.208  0.00  0.00    -0.040 C 
ATOM     27  C   UNL     1      -9.795  -4.995  -4.267  0.00  0.00    -0.001 A 
ATOM     28  C   UNL     1     -10.169  -6.058  -3.325  0.00  0.00    +0.013 A 
ATOM     29  C   UNL     1     -11.146  -6.925  -3.669  0.00  0.00    +0.046 A 
ATOM     30  C   UNL     1     -11.812  -6.835  -4.906  0.00  0.00    +0.122 A 
ATOM     31  C   UNL     1     -11.519  -5.879  -5.824  0.00  0.00    +0.071 A 
ATOM     32  C   UNL     1     -10.510  -4.919  -5.562  0.00  0.00    +0.046 A 
ATOM     33  N   UNL     1     -10.051  -3.917  -6.276  0.00  0.00    -0.380 N 
ATOM     34  C   UNL     1      -8.999  -3.241  -5.509  0.00  0.00    +0.144 C 
ATOM     35  H   UNL     1     -10.360  -3.663  -7.160  0.00  0.00    +0.160 HD
BRANCH  30  36
ATOM     36  O   UNL     1     -12.783  -7.737  -5.191  0.00  0.00    -0.495 OA
ATOM     37  C   UNL     1     -13.061  -8.727  -4.198  0.00  0.00    +0.277 C 
ENDBRANCH  30  36
ENDBRANCH  25  26
ENDBRANCH  24  25
ENDBRANCH  22  24
ENDBRANCH   1  20
TORSDOF 9
