REMARK  Name = ZINC39667672
REMARK  8 active torsions:
REMARK  status: ('A' for Active; 'I' for Inactive)
REMARK    1  A    between atoms: C_1  and  C_2
REMARK    2  A    between atoms: C_6  and  C_9
REMARK    3  A    between atoms: C_7  and  C_8
REMARK    4  A    between atoms: C_9  and  N_10
REMARK    5  A    between atoms: C_11  and  C_13
REMARK    6  A    between atoms: C_24  and  C_26
REMARK    7  A    between atoms: C_33  and  C_37
REMARK    8  A    between atoms: N_35  and  C_36
REMARK                            x       y       z     vdW  Elec       q    Type
REMARK                         _______ _______ _______ _____ _____    ______ ____
ROOT
ATOM      1  C   UNL     1      -3.396  -4.003   4.677  0.00  0.00    +0.100 C 
ATOM      2  C   UNL     1      -3.647  -2.524   5.047  0.00  0.00    +0.121 C 
ATOM      3  N   UNL     1      -4.298  -2.576   6.378  0.00  0.00    -0.296 N 
ATOM      4  C   UNL     1      -3.585  -3.661   7.094  0.00  0.00    +0.115 C 
ATOM      5  C   UNL     1      -3.355  -4.746   6.023  0.00  0.00    -0.004 C 
ATOM      6  C   UNL     1      -1.993  -5.403   6.222  0.00  0.00    -0.010 C 
ATOM      7  C   UNL     1      -1.997  -6.184   7.539  0.00  0.00    -0.082 C 
ATOM      8  N   UNL     1      -3.054  -7.202   7.504  0.00  0.00    +0.379 N 
ATOM      9  C   UNL     1      -4.368  -6.556   7.405  0.00  0.00    -0.082 C 
ATOM     10  C   UNL     1      -4.465  -5.791   6.083  0.00  0.00    -0.010 C 
ATOM     11  C   UNL     1      -5.309  -1.811   6.833  0.00  0.00    +0.250 C 
ATOM     12  O   UNL     1      -5.675  -1.911   7.989  0.00  0.00    -0.270 OA
ATOM     13  H   UNL     1      -2.914  -7.802   6.705  0.00  0.00    -0.086 HD
ATOM     14  H   UNL     1      -3.014  -7.755   8.347  0.00  0.00    -0.086 HD
ENDROOT
BRANCH  11  15
ATOM     15  C   UNL     1      -5.974  -0.852   5.929  0.00  0.00    +0.074 A 
ATOM     16  C   UNL     1      -5.237  -0.173   4.949  0.00  0.00    +0.127 A 
ATOM     17  N   UNL     1      -5.809   0.684   4.136  0.00  0.00    -0.235 NA
ATOM     18  C   UNL     1      -7.110   0.950   4.198  0.00  0.00    +0.160 A 
ATOM     19  C   UNL     1      -7.921   0.308   5.156  0.00  0.00    +0.060 A 
ATOM     20  C   UNL     1      -7.347  -0.614   6.036  0.00  0.00    +0.067 A 
ATOM     21 CL   UNL     1      -8.308  -1.434   7.227  0.00  0.00    -0.082 Cl
ATOM     22  C   UNL     1      -9.275   0.816   4.958  0.00  0.00    +0.071 A 
ATOM     23  N   UNL     1      -9.235   1.670   3.976  0.00  0.00    -0.174 NA
ATOM     24  N   UNL     1      -7.931   1.779   3.486  0.00  0.00    -0.249 N 
ATOM     25  C   UNL     1      -7.509   2.646   2.383  0.00  0.00    +0.174 C 
ATOM     26  C   UNL     1     -10.498   0.423   5.747  0.00  0.00    +0.068 C 
ENDBRANCH  11  15
BRANCH   1  28
ATOM     27  N   UNL     1      -1.906  -5.139   3.062  0.00  0.00    -0.311 N 
ATOM     28  C   UNL     1      -2.079  -4.147   3.958  0.00  0.00    +0.218 C 
ATOM     29  O   UNL     1      -1.176  -3.371   4.185  0.00  0.00    -0.275 OA
ATOM     30  H   UNL     1      -2.629  -5.760   2.880  0.00  0.00    +0.149 HD
BRANCH  27  31
ATOM     31  C   UNL     1      -0.626  -5.280   2.363  0.00  0.00    +0.139 C 
BRANCH  31  37
ATOM     32  C   UNL     1      -2.049  -7.264  -2.005  0.00  0.00    +0.044 C 
ATOM     33  C   UNL     1      -1.375  -7.407  -0.665  0.00  0.00    -0.047 A 
ATOM     34  C   UNL     1      -0.817  -8.617  -0.297  0.00  0.00    +0.003 A 
ATOM     35  C   UNL     1      -0.199  -8.747   0.932  0.00  0.00    +0.001 A 
ATOM     36  C   UNL     1      -0.137  -7.667   1.793  0.00  0.00    +0.005 A 
ATOM     37  C   UNL     1      -0.693  -6.457   1.425  0.00  0.00    -0.027 A 
ATOM     38  C   UNL     1      -1.308  -6.325   0.193  0.00  0.00    -0.043 A 
ATOM     39  C   UNL     1      -1.910  -5.004  -0.211  0.00  0.00    +0.044 C 
ENDBRANCH  31  37
ENDBRANCH  27  31
ENDBRANCH   1  28
TORSDOF 4
