REMARK  Name = ZINC21971033
REMARK  5 active torsions:
REMARK  status: ('A' for Active; 'I' for Inactive)
REMARK    1  A    between atoms: C_1  and  C_2
REMARK    2  A    between atoms: C_6  and  C_16
REMARK    3  A    between atoms: N_8  and  C_9
REMARK    4  A    between atoms: N_18  and  N_19
REMARK    5  A    between atoms: C_20  and  C_22
REMARK                            x       y       z     vdW  Elec       q    Type
REMARK                         _______ _______ _______ _____ _____    ______ ____
ROOT
ATOM      1  C   UNL     1       0.794  -4.097   0.183  0.00  0.00    +0.284 C 
ATOM      2  O   UNL     1       0.726  -4.791  -0.813  0.00  0.00    -0.267 OA
ATOM      3  N   UNL     1       1.233  -4.625   1.343  0.00  0.00    -0.229 N 
ATOM      4  H   UNL     1       1.295  -3.997   2.244  0.00  0.00    +0.173 HD
ENDROOT
BRANCH   1  10
ATOM      5  C   UNL     1      -0.704   1.408   0.130  0.00  0.00    +0.066 C 
ATOM      6  C   UNL     1      -0.329  -0.050   0.060  0.00  0.00    +0.044 A 
ATOM      7  C   UNL     1      -0.455  -0.717  -1.112  0.00  0.00    +0.076 A 
ATOM      8  C   UNL     1      -0.087  -2.087  -1.137  0.00  0.00    +0.213 A 
ATOM      9  O   UNL     1      -0.170  -2.750  -2.159  0.00  0.00    -0.285 OA
ATOM     10  C   UNL     1       0.395  -2.677   0.122  0.00  0.00    +0.194 A 
ATOM     11  N   UNL     1       0.464  -1.914   1.193  0.00  0.00    -0.158 NA
ATOM     12  N   UNL     1       0.125  -0.678   1.172  0.00  0.00    -0.236 N 
BRANCH  12  13
ATOM     13  C   UNL     1       0.229   0.059   2.356  0.00  0.00    +0.066 A 
ATOM     14  C   UNL     1       0.819   1.317   2.343  0.00  0.00    +0.029 A 
ATOM     15  C   UNL     1       0.915   2.045   3.512  0.00  0.00    +0.022 A 
ATOM     16  C   UNL     1       0.435   1.519   4.698  0.00  0.00    +0.041 A 
ATOM     17  C   UNL     1      -0.148   0.263   4.715  0.00  0.00    +0.022 A 
ATOM     18  C   UNL     1      -0.252  -0.467   3.548  0.00  0.00    +0.029 A 
ATOM     19 CL   UNL     1       0.565   2.433   6.168  0.00  0.00    -0.084 Cl
ENDBRANCH  12  13
ENDBRANCH   1  10
BRANCH   3  20
ATOM     20  N   UNL     1       1.612  -5.972   1.401  0.00  0.00    -0.230 N 
ATOM     21  C   UNL     1       2.051  -6.499   2.561  0.00  0.00    +0.267 C 
ATOM     22  O   UNL     1       2.119  -5.805   3.558  0.00  0.00    -0.268 OA
ATOM     23  H   UNL     1       1.550  -6.600   0.500  0.00  0.00    +0.173 HD
BRANCH  21  24
ATOM     24  C   UNL     1       2.447  -7.909   2.622  0.00  0.00    +0.076 A 
ATOM     25  C   UNL     1       2.920  -8.638   3.699  0.00  0.00    +0.024 A 
ATOM     26  C   UNL     1       3.223  -9.979   3.499  0.00  0.00    -0.036 A 
ATOM     27  C   UNL     1       3.055 -10.457   2.245  0.00  0.00    -0.006 A 
ATOM     28  S   UNL     1       2.439  -9.139   1.327  0.00  0.00    -0.088 S 
ATOM     29  C   UNL     1       3.363 -11.857   1.763  0.00  0.00    +0.043 C 
ATOM     30  C   UNL     1       2.349 -12.801   2.432  0.00  0.00    +0.005 C 
ATOM     31  C   UNL     1       2.761 -13.088   3.856  0.00  0.00    +0.001 C 
ATOM     32  C   UNL     1       2.605 -11.957   4.840  0.00  0.00    +0.005 C 
ATOM     33  C   UNL     1       3.676 -10.881   4.653  0.00  0.00    +0.036 C 
ENDBRANCH  21  24
ENDBRANCH   3  20
TORSDOF 4
