REMARK  Name = ZINC36306762
REMARK  15 active torsions:
REMARK  status: ('A' for Active; 'I' for Inactive)
REMARK    1  A    between atoms: C_1  and  N_2
REMARK    2  A    between atoms: C_3  and  O_30
REMARK    3  A    between atoms: C_4  and  C_13
REMARK    4  A    between atoms: C_5  and  C_7
REMARK    5  A    between atoms: C_13  and  N_14
REMARK    6  A    between atoms: N_14  and  C_15
REMARK    7  A    between atoms: N_14  and  C_21
REMARK    8  A    between atoms: C_15  and  C_16
REMARK    9  A    between atoms: C_21  and  C_22
REMARK   10  A    between atoms: C_22  and  C_24
REMARK   11  A    between atoms: C_22  and  O_29
REMARK   12  A    between atoms: C_24  and  O_25
REMARK   13  A    between atoms: O_25  and  C_26
REMARK   14  A    between atoms: C_26  and  C_27
REMARK   15  A    between atoms: O_30  and  C_31
REMARK                            x       y       z     vdW  Elec       q    Type
REMARK                         _______ _______ _______ _____ _____    ______ ____
ROOT
ATOM      1  C   UNL     1       1.356   0.340  -0.511  0.00  0.00    +0.176 C 
ATOM      2  N   UNL     1       0.859  -1.036  -0.449  0.00  0.00    -0.235 N 
ATOM      3  C   UNL     1       0.569  -1.829  -1.514  0.00  0.00    +0.221 A 
ATOM      4  C   UNL     1       0.139  -3.024  -1.035  0.00  0.00    +0.025 A 
ATOM      5  C   UNL     1       0.167  -2.960   0.371  0.00  0.00    +0.098 A 
ATOM      6  N   UNL     1       0.606  -1.768   0.718  0.00  0.00    -0.168 NA
ENDROOT
BRANCH   5   7
ATOM      7  C   UNL     1      -0.223  -4.049   1.301  0.00  0.00    +0.002 A 
ATOM      8  C   UNL     1      -1.371  -4.800   1.056  0.00  0.00    +0.010 A 
ATOM      9  C   UNL     1      -1.729  -5.812   1.923  0.00  0.00    +0.001 A 
ATOM     10  C   UNL     1      -0.951  -6.080   3.035  0.00  0.00    +0.000 A 
ATOM     11  C   UNL     1       0.189  -5.337   3.284  0.00  0.00    +0.001 A 
ATOM     12  C   UNL     1       0.560  -4.327   2.419  0.00  0.00    +0.010 A 
ENDBRANCH   5   7
BRANCH   4  13
ATOM     13  C   UNL     1      -0.293  -4.208  -1.861  0.00  0.00    -0.035 C 
BRANCH  13  14
ATOM     14  N   UNL     1       0.889  -4.979  -2.266  0.00  0.00    +0.389 N 
ATOM     15  H   UNL     1       1.543  -4.371  -2.736  0.00  0.00    -0.081 HD
BRANCH  14  16
ATOM     16  C   UNL     1       0.482  -6.058  -3.177  0.00  0.00    -0.003 C 
BRANCH  16  17
ATOM     17  C   UNL     1      -0.070  -5.461  -4.447  0.00  0.00    +0.089 A 
ATOM     18  C   UNL     1       0.635  -5.192  -5.560  0.00  0.00    +0.042 A 
ATOM     19  C   UNL     1      -0.272  -4.645  -6.497  0.00  0.00    +0.041 A 
ATOM     20  C   UNL     1      -1.477  -4.612  -5.899  0.00  0.00    +0.195 A 
ATOM     21  O   UNL     1      -1.349  -5.113  -4.659  0.00  0.00    -0.470 OA
ENDBRANCH  16  17
ENDBRANCH  14  16
BRANCH  14  22
ATOM     22  C   UNL     1       1.528  -5.559  -1.077  0.00  0.00    -0.044 C 
BRANCH  22  23
ATOM     23  C   UNL     1       2.827  -6.257  -1.484  0.00  0.00    +0.124 C 
BRANCH  23  24
ATOM     24  O   UNL     1       3.754  -5.288  -1.977  0.00  0.00    -0.391 OA
ATOM     25  H   UNL     1       3.987  -4.604  -1.334  0.00  0.00    +0.210 HD
ENDBRANCH  23  24
BRANCH  23  26
ATOM     26  C   UNL     1       3.428  -6.966  -0.268  0.00  0.00    +0.190 C 
BRANCH  26  27
ATOM     27  O   UNL     1       4.576  -7.713  -0.672  0.00  0.00    -0.365 OA
BRANCH  27  28
ATOM     28  C   UNL     1       5.216  -8.417   0.394  0.00  0.00    +0.248 C 
BRANCH  28  29
ATOM     29  C   UNL     1       6.380  -9.149  -0.131  0.00  0.00    -0.077 C 
ATOM     30  C   UNL     1       7.309  -9.733  -0.549  0.00  0.00    +0.006 C 
ENDBRANCH  28  29
ENDBRANCH  27  28
ENDBRANCH  26  27
ENDBRANCH  23  26
ENDBRANCH  22  23
ENDBRANCH  14  22
ENDBRANCH  13  14
ENDBRANCH   4  13
BRANCH   3  31
ATOM     31  O   UNL     1       0.686  -1.486  -2.822  0.00  0.00    -0.435 OA
BRANCH  31  32
ATOM     32  C   UNL     1      -0.382  -0.903  -3.428  0.00  0.00    +0.165 A 
ATOM     33  C   UNL     1      -1.505  -0.570  -2.685  0.00  0.00    +0.049 A 
ATOM     34  C   UNL     1      -2.589   0.023  -3.303  0.00  0.00    +0.004 A 
ATOM     35  C   UNL     1      -2.556   0.285  -4.660  0.00  0.00    +0.003 A 
ATOM     36  C   UNL     1      -1.439  -0.046  -5.404  0.00  0.00    +0.042 A 
ATOM     37  C   UNL     1      -0.348  -0.635  -4.790  0.00  0.00    +0.165 A 
ATOM     38  F   UNL     1       0.746  -0.954  -5.516  0.00  0.00    -0.202 F 
ENDBRANCH  31  32
ENDBRANCH   3  31
TORSDOF 14
