REMARK  Name = ZINC04155344
REMARK  3 active torsions:
REMARK  status: ('A' for Active; 'I' for Inactive)
REMARK    1  A    between atoms: C_3  and  C_6
REMARK    2  A    between atoms: C_7  and  N_16
REMARK    3  A    between atoms: N_16  and  C_17
REMARK                            x       y       z     vdW  Elec       q    Type
REMARK                         _______ _______ _______ _____ _____    ______ ____
ROOT
ATOM      1  C   UNL     1       2.447   1.280  -0.351  0.00  0.00    +0.146 A 
ATOM      2  C   UNL     1       3.505   2.070  -0.757  0.00  0.00    +0.134 A 
ATOM      3  N   UNL     1       4.649   1.419  -0.386  0.00  0.00    -0.286 N 
ATOM      4  C   UNL     1       5.975   1.732  -0.530  0.00  0.00    +0.109 A 
ATOM      5  C   UNL     1       6.930   0.901  -0.065  0.00  0.00    +0.035 A 
ATOM      6  C   UNL     1       6.576  -0.301   0.574  0.00  0.00    +0.020 A 
ATOM      7  C   UNL     1       5.265  -0.626   0.725  0.00  0.00    +0.048 A 
ATOM      8  C   UNL     1       4.273   0.251   0.236  0.00  0.00    +0.140 A 
ATOM      9  N   UNL     1       2.952   0.187   0.253  0.00  0.00    -0.223 NA
ATOM     10 BR   UNL     1       8.754   1.353  -0.275  0.00  0.00    -0.049 Br
ENDROOT
BRANCH   1  13
ATOM     11  C   UNL     1      -1.172   1.401  -0.903  0.00  0.00    +0.042 A 
ATOM     12  C   UNL     1       0.032   0.675  -0.787  0.00  0.00    +0.051 A 
ATOM     13  C   UNL     1       1.015   1.583  -0.540  0.00  0.00    +0.156 A 
ATOM     14  O   UNL     1       0.454   2.807  -0.499  0.00  0.00    -0.461 OA
ATOM     15  C   UNL     1      -0.869   2.700  -0.715  0.00  0.00    +0.196 A 
ENDBRANCH   1  13
BRANCH   2  16
ATOM     16  N   UNL     1       3.423   3.295  -1.418  0.00  0.00    -0.325 N 
ATOM     17  H   UNL     1       2.975   3.990  -0.839  0.00  0.00    +0.148 HD
BRANCH  16  18
ATOM     18  C   UNL     1       4.750   3.750  -1.853  0.00  0.00    +0.072 C 
ATOM     19  C   UNL     1       5.438   4.489  -0.703  0.00  0.00    +0.022 C 
ATOM     20  C   UNL     1       6.821   4.962  -1.155  0.00  0.00    +0.002 C 
ATOM     21  C   UNL     1       6.671   5.905  -2.351  0.00  0.00    +0.000 C 
ATOM     22  C   UNL     1       5.984   5.166  -3.501  0.00  0.00    +0.002 C 
ATOM     23  C   UNL     1       4.601   4.693  -3.048  0.00  0.00    +0.022 C 
ENDBRANCH  16  18
ENDBRANCH   2  16
TORSDOF 3
