REMARK  Name = ZINC22452697
REMARK  3 active torsions:
REMARK  status: ('A' for Active; 'I' for Inactive)
REMARK    1  A    between atoms: C_1  and  C_2
REMARK    2  A    between atoms: C_2  and  C_3
REMARK    3  A    between atoms: C_16  and  C_18
REMARK                            x       y       z     vdW  Elec       q    Type
REMARK                         _______ _______ _______ _____ _____    ______ ____
ROOT
ATOM      1  C   UNL     1       1.511   2.032   0.135  0.00  0.00    +0.076 C 
ATOM      2  C   UNL     1       2.129   1.914  -1.260  0.00  0.00    +0.022 C 
ATOM      3  C   UNL     1       2.052   0.457  -1.726  0.00  0.00    +0.003 C 
ATOM      4  C   UNL     1       0.590   0.002  -1.716  0.00  0.00    +0.019 C 
ATOM      5  C   UNL     1       0.017   0.175  -0.307  0.00  0.00    +0.108 C 
ATOM      6  N   UNL     1       0.112   1.586   0.091  0.00  0.00    -0.298 N 
ATOM      7  C   UNL     1      -0.509   1.799   1.294  0.00  0.00    +0.199 A 
ATOM      8  N   UNL     1      -0.156   1.042   2.368  0.00  0.00    -0.295 N 
ATOM      9  H   UNL     1       0.619   0.268   2.266  0.00  0.00    +0.172 HD
ATOM     10  C   UNL     1      -0.756   1.236   3.562  0.00  0.00    +0.253 A 
ATOM     11  O   UNL     1      -0.446   0.561   4.530  0.00  0.00    -0.268 OA
ATOM     12  C   UNL     1      -1.742   2.228   3.670  0.00  0.00    +0.098 A 
ATOM     13  C   UNL     1      -2.064   2.973   2.543  0.00  0.00    +0.080 A 
ATOM     14  N   UNL     1      -1.429   2.735   1.386  0.00  0.00    -0.216 NA
ENDROOT
BRANCH  13  15
ATOM     15  C   UNL     1      -3.098   4.027   2.619  0.00  0.00    +0.008 A 
ATOM     16  C   UNL     1      -3.002   5.034   3.565  0.00  0.00    +0.010 A 
ATOM     17  C   UNL     1      -3.968   6.030   3.640  0.00  0.00    +0.001 A 
ATOM     18  C   UNL     1      -5.038   6.040   2.796  0.00  0.00    +0.008 A 
ATOM     19  C   UNL     1      -5.178   5.035   1.824  0.00  0.00    -0.017 A 
ATOM     20  C   UNL     1      -4.200   4.014   1.730  0.00  0.00    -0.009 A 
ATOM     21  C   UNL     1      -4.342   3.011   0.761  0.00  0.00    +0.009 A 
ATOM     22  C   UNL     1      -5.415   3.029  -0.077  0.00  0.00    +0.001 A 
ATOM     23  C   UNL     1      -6.378   4.032   0.013  0.00  0.00    +0.001 A 
ATOM     24  C   UNL     1      -6.273   5.022   0.943  0.00  0.00    +0.008 A 
ENDBRANCH  13  15
BRANCH   1  26
ATOM     25  C   UNL     1       3.022   3.889   0.848  0.00  0.00    +0.006 C 
ATOM     26  C   UNL     1       1.567   3.490   0.596  0.00  0.00    +0.019 C 
ENDBRANCH   1  26
TORSDOF 2
