REMARK  Name = ZINC00648984
REMARK  14 active torsions:
REMARK  status: ('A' for Active; 'I' for Inactive)
REMARK    1  A    between atoms: C_1  and  C_2
REMARK    2  A    between atoms: C_2  and  O_3
REMARK    3  A    between atoms: O_3  and  C_4
REMARK    4  A    between atoms: C_4  and  C_6
REMARK    5  A    between atoms: C_7  and  C_39
REMARK    6  A    between atoms: C_11  and  C_13
REMARK    7  A    between atoms: C_15  and  O_21
REMARK    8  A    between atoms: C_16  and  O_20
REMARK    9  A    between atoms: O_21  and  C_22
REMARK   10  A    between atoms: C_26  and  C_29
REMARK   11  A    between atoms: C_32  and  O_37
REMARK   12  A    between atoms: C_33  and  O_35
REMARK   13  A    between atoms: O_35  and  C_36
REMARK   14  A    between atoms: O_37  and  C_38
REMARK                            x       y       z     vdW  Elec       q    Type
REMARK                         _______ _______ _______ _____ _____    ______ ____
ROOT
ATOM      1  C   UNL     1       1.235  -2.363  -2.589  0.00  0.00    +0.065 C 
ATOM      2  C   UNL     1       1.608  -3.654  -2.578  0.00  0.00    +0.016 C 
ATOM      3  N   UNL     1       2.420  -4.149  -3.560  0.00  0.00    -0.321 N 
ATOM      4  C   UNL     1       2.547  -3.494  -4.756  0.00  0.00    +0.016 C 
ATOM      5  C   UNL     1       2.216  -2.189  -4.860  0.00  0.00    +0.024 C 
ATOM      6  C   UNL     1       1.696  -1.429  -3.669  0.00  0.00    +0.092 C 
ATOM      7  C   UNL     1       2.345  -1.504  -6.081  0.00  0.00    +0.162 C 
ATOM      8  O   UNL     1       2.023  -0.334  -6.145  0.00  0.00    -0.292 OA
ATOM      9  C   UNL     1       2.875  -2.193  -7.309  0.00  0.00    +0.088 C 
ATOM     10  C   UNL     1       3.821  -3.319  -6.880  0.00  0.00    +0.032 C 
ATOM     11  C   UNL     1       3.059  -4.264  -5.947  0.00  0.00    +0.059 C 
ATOM     12  C   UNL     1       1.128  -4.562  -1.475  0.00  0.00    +0.061 C 
ATOM     13  H   UNL     1       2.910  -4.972  -3.409  0.00  0.00    +0.152 HD
ENDROOT
BRANCH   6  14
ATOM     14  C   UNL     1       2.797  -0.553  -3.129  0.00  0.00    -0.030 A 
ATOM     15  C   UNL     1       2.637   0.820  -3.104  0.00  0.00    +0.054 A 
ATOM     16  C   UNL     1       3.648   1.627  -2.608  0.00  0.00    +0.163 A 
ATOM     17  C   UNL     1       4.824   1.053  -2.135  0.00  0.00    +0.173 A 
ATOM     18  C   UNL     1       4.979  -0.324  -2.163  0.00  0.00    +0.063 A 
ATOM     19  C   UNL     1       3.963  -1.125  -2.655  0.00  0.00    +0.023 A 
ATOM     20 BR   UNL     1       6.575  -1.110  -1.521  0.00  0.00    -0.046 Br
BRANCH  17  21
ATOM     21  O   UNL     1       5.820   1.841  -1.648  0.00  0.00    -0.503 OA
ATOM     22  H   UNL     1       5.756   2.014  -0.699  0.00  0.00    +0.292 HD
ENDBRANCH  17  21
BRANCH  16  23
ATOM     23  O   UNL     1       3.492   2.978  -2.584  0.00  0.00    -0.491 OA
ATOM     24  C   UNL     1       2.259   3.498  -3.086  0.00  0.00    +0.277 C 
ENDBRANCH  16  23
ENDBRANCH   6  14
BRANCH  10  25
ATOM     25  C   UNL     1       4.295  -4.073  -8.095  0.00  0.00    -0.040 A 
ATOM     26  C   UNL     1       3.378  -4.699  -8.919  0.00  0.00    +0.008 A 
ATOM     27  C   UNL     1       3.807  -5.392 -10.036  0.00  0.00    +0.049 A 
ATOM     28  C   UNL     1       5.159  -5.460 -10.331  0.00  0.00    +0.161 A 
ATOM     29  C   UNL     1       6.082  -4.830  -9.502  0.00  0.00    +0.162 A 
ATOM     30  C   UNL     1       5.645  -4.133  -8.387  0.00  0.00    +0.053 A 
BRANCH  29  31
ATOM     31  O   UNL     1       7.410  -4.894  -9.788  0.00  0.00    -0.491 OA
ATOM     32  C   UNL     1       8.300  -4.224  -8.893  0.00  0.00    +0.277 C 
ENDBRANCH  29  31
BRANCH  28  33
ATOM     33  O   UNL     1       5.583  -6.142 -11.429  0.00  0.00    -0.491 OA
ATOM     34  C   UNL     1       4.580  -6.765 -12.233  0.00  0.00    +0.277 C 
ENDBRANCH  28  33
ENDBRANCH  10  25
BRANCH   1  35
ATOM     35  C   UNL     1       0.388  -1.876  -1.566  0.00  0.00    +0.338 C 
ATOM     36  O   UNL     1      -0.095  -2.647  -0.758  0.00  0.00    -0.245 OA
BRANCH  35  37
ATOM     37  O   UNL     1       0.115  -0.557  -1.487  0.00  0.00    -0.462 OA
BRANCH  37  39
ATOM     38  C   UNL     1      -0.940   1.380  -0.500  0.00  0.00    +0.048 C 
ATOM     39  C   UNL     1      -0.749  -0.136  -0.429  0.00  0.00    +0.229 C 
ENDBRANCH  37  39
ENDBRANCH  35  37
ENDBRANCH   1  35
TORSDOF 9
