REMARK  Name = ZINC08744339
REMARK  8 active torsions:
REMARK  status: ('A' for Active; 'I' for Inactive)
REMARK    1  A    between atoms: C_1  and  C_2
REMARK    2  A    between atoms: C_3  and  C_23
REMARK    3  A    between atoms: C_4  and  C_16
REMARK    4  A    between atoms: C_23  and  O_25
REMARK    5  A    between atoms: O_25  and  C_26
REMARK    6  A    between atoms: C_26  and  C_27
REMARK    7  A    between atoms: C_27  and  O_28
REMARK    8  A    between atoms: O_28  and  C_29
REMARK                            x       y       z     vdW  Elec       q    Type
REMARK                         _______ _______ _______ _____ _____    ______ ____
ROOT
ATOM      1  C   UNL     1      -0.018   1.503   0.010  0.00  0.00    +0.066 C 
ATOM      2  C   UNL     1       0.002  -0.004   0.002  0.00  0.00    +0.054 C 
ATOM      3  C   UNL     1      -1.184  -0.687   0.004  0.00  0.00    +0.083 C 
ATOM      4  C   UNL     1      -1.107  -2.203  -0.005  0.00  0.00    +0.150 C 
ATOM      5  N   UNL     1       0.244  -2.785  -0.014  0.00  0.00    -0.259 N 
ATOM      6  C   UNL     1       0.697  -4.097  -0.024  0.00  0.00    +0.058 A 
ATOM      7  C   UNL     1       0.050  -5.325  -0.028  0.00  0.00    +0.025 A 
ATOM      8  C   UNL     1       0.787  -6.492  -0.038  0.00  0.00    +0.002 A 
ATOM      9  C   UNL     1       2.171  -6.443  -0.044  0.00  0.00    +0.002 A 
ATOM     10  C   UNL     1       2.825  -5.228  -0.040  0.00  0.00    +0.025 A 
ATOM     11  C   UNL     1       2.093  -4.048  -0.030  0.00  0.00    +0.055 A 
ATOM     12  N   UNL     1       2.456  -2.707  -0.025  0.00  0.00    -0.285 N 
ATOM     13  C   UNL     1       1.319  -1.948  -0.015  0.00  0.00    +0.193 C 
ATOM     14  N   UNL     1       1.166  -0.633  -0.013  0.00  0.00    -0.222 NA
ATOM     15  H   UNL     1       3.365  -2.366  -0.027  0.00  0.00    +0.155 HD
ENDROOT
BRANCH   4  16
ATOM     16  C   UNL     1      -1.825  -2.716   1.217  0.00  0.00    -0.022 A 
ATOM     17  C   UNL     1      -1.194  -2.703   2.446  0.00  0.00    +0.007 A 
ATOM     18  C   UNL     1      -1.852  -3.173   3.567  0.00  0.00    +0.020 A 
ATOM     19  C   UNL     1      -3.144  -3.657   3.458  0.00  0.00    +0.041 A 
ATOM     20  C   UNL     1      -3.775  -3.670   2.227  0.00  0.00    +0.020 A 
ATOM     21  C   UNL     1      -3.118  -3.194   1.108  0.00  0.00    +0.007 A 
ATOM     22 CL   UNL     1      -3.971  -4.249   4.865  0.00  0.00    -0.084 Cl
ENDBRANCH   4  16
BRANCH   3  23
ATOM     23  C   UNL     1      -2.416  -0.016   0.014  0.00  0.00    +0.339 C 
ATOM     24  O   UNL     1      -2.446   1.202   0.021  0.00  0.00    -0.245 OA
BRANCH  23  25
ATOM     25  O   UNL     1      -3.569  -0.721   0.016  0.00  0.00    -0.459 OA
BRANCH  25  26
ATOM     26  C   UNL     1      -4.786   0.028   0.026  0.00  0.00    +0.260 C 
BRANCH  26  27
ATOM     27  C   UNL     1      -5.976  -0.934   0.027  0.00  0.00    +0.200 C 
BRANCH  27  28
ATOM     28  O   UNL     1      -5.982  -1.683   1.244  0.00  0.00    -0.380 OA
ATOM     29  C   UNL     1      -7.060  -2.617   1.346  0.00  0.00    +0.194 C 
ENDBRANCH  27  28
ENDBRANCH  26  27
ENDBRANCH  25  26
ENDBRANCH  23  25
ENDBRANCH   3  23
TORSDOF 6
