REMARK  Name = ZINC01330004
REMARK  7 active torsions:
REMARK  status: ('A' for Active; 'I' for Inactive)
REMARK    1  A    between atoms: C_7  and  C_11
REMARK    2  A    between atoms: C_11  and  C_12
REMARK    3  A    between atoms: N_14  and  C_15
REMARK    4  A    between atoms: N_14  and  C_22
REMARK    5  A    between atoms: C_22  and  C_24
REMARK    6  A    between atoms: C_22  and  C_30
REMARK    7  A    between atoms: N_32  and  C_33
REMARK                            x       y       z     vdW  Elec       q    Type
REMARK                         _______ _______ _______ _____ _____    ______ ____
ROOT
ATOM      1  C   UNL     1       1.023  -0.641  -0.818  0.00  0.00    +0.225 C 
ATOM      2  O   UNL     1       0.695  -1.264  -1.806  0.00  0.00    -0.275 OA
ATOM      3  N   UNL     1       0.110  -0.352   0.130  0.00  0.00    -0.255 N 
ENDROOT
BRANCH   3   4
ATOM      4  C   UNL     1       0.462   0.458   1.216  0.00  0.00    +0.038 A 
ATOM      5  C   UNL     1       0.715   1.810   1.023  0.00  0.00    +0.026 A 
ATOM      6  C   UNL     1       1.057   2.608   2.097  0.00  0.00    +0.040 A 
ATOM      7  C   UNL     1       1.158   2.059   3.364  0.00  0.00    +0.124 A 
ATOM      8  C   UNL     1       0.911   0.711   3.558  0.00  0.00    +0.040 A 
ATOM      9  C   UNL     1       0.564  -0.090   2.488  0.00  0.00    +0.026 A 
ATOM     10  F   UNL     1       1.497   2.841   4.413  0.00  0.00    -0.205 F 
ENDBRANCH   3   4
BRANCH   1  11
ATOM     11  C   UNL     1       2.451  -0.192  -0.651  0.00  0.00    +0.133 C 
BRANCH  11  18
ATOM     12  C   UNL     1       3.346   1.235  -5.026  0.00  0.00    +0.001 A 
ATOM     13  C   UNL     1       4.196   0.378  -5.711  0.00  0.00    +0.002 A 
ATOM     14  C   UNL     1       4.687  -0.758  -5.105  0.00  0.00    +0.026 A 
ATOM     15  C   UNL     1       4.330  -1.050  -3.793  0.00  0.00    +0.047 A 
ATOM     16  C   UNL     1       3.468  -0.178  -3.102  0.00  0.00    +0.003 A 
ATOM     17  C   UNL     1       2.982   0.967  -3.736  0.00  0.00    +0.010 A 
ATOM     18  C   UNL     1       3.290  -0.757  -1.769  0.00  0.00    -0.014 A 
ATOM     19  C   UNL     1       4.019  -1.883  -1.729  0.00  0.00    +0.087 A 
ATOM     20  N   UNL     1       4.644  -2.078  -2.931  0.00  0.00    -0.360 N 
ATOM     21  H   UNL     1       5.224  -2.825  -3.143  0.00  0.00    +0.165 HD
ENDBRANCH  11  18
ENDBRANCH   1  11
BRANCH   3  22
ATOM     22  C   UNL     1      -1.251  -0.884   0.024  0.00  0.00    +0.199 C 
BRANCH  22  23
ATOM     23  C   UNL     1      -2.026  -0.534   1.268  0.00  0.00    +0.000 A 
ATOM     24  C   UNL     1      -2.544  -1.533   2.077  0.00  0.00    +0.009 A 
ATOM     25  C   UNL     1      -3.246  -1.164   3.214  0.00  0.00    +0.020 A 
ATOM     26  C   UNL     1      -3.414   0.179   3.495  0.00  0.00    +0.111 A 
ATOM     27  N   UNL     1      -2.912   1.103   2.700  0.00  0.00    -0.263 NA
ATOM     28  C   UNL     1      -2.234   0.788   1.613  0.00  0.00    +0.116 A 
ENDBRANCH  22  23
BRANCH  22  29
ATOM     29  C   UNL     1      -1.933  -0.284  -1.179  0.00  0.00    +0.239 C 
ATOM     30  O   UNL     1      -1.340   0.510  -1.879  0.00  0.00    -0.273 OA
ATOM     31  N   UNL     1      -3.201  -0.630  -1.477  0.00  0.00    -0.311 N 
ATOM     32  H   UNL     1      -3.674  -1.266  -0.918  0.00  0.00    +0.149 HD
BRANCH  31  33
ATOM     33  C   UNL     1      -3.864  -0.047  -2.646  0.00  0.00    +0.073 C 
ATOM     34  C   UNL     1      -4.477   1.302  -2.265  0.00  0.00    +0.022 C 
ATOM     35  C   UNL     1      -5.169   1.911  -3.486  0.00  0.00    +0.002 C 
ATOM     36  C   UNL     1      -6.272   0.967  -3.970  0.00  0.00    +0.000 C 
ATOM     37  C   UNL     1      -5.659  -0.381  -4.351  0.00  0.00    +0.002 C 
ATOM     38  C   UNL     1      -4.967  -0.991  -3.130  0.00  0.00    +0.022 C 
ENDBRANCH  31  33
ENDBRANCH  22  29
ENDBRANCH   3  22
TORSDOF 7
