REMARK  Name = ZINC36812307
REMARK  11 active torsions:
REMARK  status: ('A' for Active; 'I' for Inactive)
REMARK    1  A    between atoms: C_1  and  C_2
REMARK    2  A    between atoms: C_3  and  C_32
REMARK    3  A    between atoms: N_9  and  C_29
REMARK    4  A    between atoms: C_10  and  S_12
REMARK    5  A    between atoms: S_12  and  C_13
REMARK    6  A    between atoms: C_13  and  C_15
REMARK    7  A    between atoms: C_13  and  C_16
REMARK    8  A    between atoms: N_18  and  C_19
REMARK    9  A    between atoms: C_19  and  C_20
REMARK   10  A    between atoms: C_29  and  C_30
REMARK   11  A    between atoms: C_29  and  C_31
REMARK                            x       y       z     vdW  Elec       q    Type
REMARK                         _______ _______ _______ _____ _____    ______ ____
ROOT
ATOM      1  S   UNL     1       0.095  -3.592   4.753  0.00  0.00    -0.075 S 
ENDROOT
BRANCH   1  11
ATOM      2  C   UNL     1      -0.018   1.503   0.010  0.00  0.00    +0.045 C 
ATOM      3  C   UNL     1       0.002  -0.004   0.002  0.00  0.00    -0.026 A 
ATOM      4  C   UNL     1       0.006  -0.676  -1.159  0.00  0.00    -0.008 A 
ATOM      5  S   UNL     1       0.031  -2.384  -0.648  0.00  0.00    -0.073 S 
ATOM      6  C   UNL     1       0.036  -2.146   1.110  0.00  0.00    +0.117 A 
ATOM      7  C   UNL     1       0.024  -0.746   1.251  0.00  0.00    +0.075 A 
ATOM      8  C   UNL     1       0.030  -0.255   2.595  0.00  0.00    +0.263 A 
ATOM      9  O   UNL     1       0.015   0.944   2.815  0.00  0.00    -0.267 OA
ATOM     10  N   UNL     1       0.051  -1.135   3.613  0.00  0.00    -0.285 N 
ATOM     11  C   UNL     1       0.067  -2.481   3.386  0.00  0.00    +0.174 A 
ATOM     12  N   UNL     1       0.052  -2.960   2.159  0.00  0.00    -0.216 NA
ATOM     13  C   UNL     1      -0.009  -0.120  -2.559  0.00  0.00    +0.052 C 
BRANCH  10  14
ATOM     14  C   UNL     1       0.057  -0.638   4.992  0.00  0.00    +0.087 C 
ATOM     15  C   UNL     1       1.297   0.230   5.215  0.00  0.00    +0.031 C 
ATOM     16  C   UNL     1      -1.201   0.196   5.239  0.00  0.00    +0.031 C 
ENDBRANCH  10  14
ENDBRANCH   1  11
BRANCH   1  17
ATOM     17  C   UNL     1       0.110  -5.234   3.983  0.00  0.00    +0.137 C 
ATOM     18  C   UNL     1      -1.202  -5.455   3.226  0.00  0.00    +0.029 C 
BRANCH  17  19
ATOM     19  C   UNL     1       0.258  -6.288   5.049  0.00  0.00    +0.226 C 
ATOM     20  O   UNL     1      -0.100  -6.056   6.185  0.00  0.00    -0.275 OA
ATOM     21  N   UNL     1       0.787  -7.489   4.742  0.00  0.00    -0.310 N 
ATOM     22  H   UNL     1       1.073  -7.675   3.834  0.00  0.00    +0.149 HD
BRANCH  21  23
ATOM     23  C   UNL     1       0.931  -8.514   5.779  0.00  0.00    +0.139 C 
BRANCH  23  24
ATOM     24  C   UNL     1       1.544  -9.753   5.179  0.00  0.00    -0.027 A 
ATOM     25  C   UNL     1       0.732 -10.733   4.641  0.00  0.00    +0.009 A 
ATOM     26  C   UNL     1       1.290 -11.871   4.089  0.00  0.00    +0.050 A 
ATOM     27  C   UNL     1       2.666 -12.032   4.075  0.00  0.00    +0.166 A 
ATOM     28  C   UNL     1       3.485 -11.045   4.618  0.00  0.00    +0.167 A 
ATOM     29  C   UNL     1       2.918  -9.904   5.164  0.00  0.00    +0.054 A 
ATOM     30  O   UNL     1       4.786 -11.434   4.485  0.00  0.00    -0.453 OA
ATOM     31  C   UNL     1       4.739 -12.850   4.225  0.00  0.00    +0.466 C 
ATOM     32  O   UNL     1       3.455 -13.041   3.602  0.00  0.00    -0.453 OA
ENDBRANCH  23  24
ENDBRANCH  21  23
ENDBRANCH  17  19
ENDBRANCH   1  17
TORSDOF 6
