REMARK  Name = ZINC12428805
REMARK  6 active torsions:
REMARK  status: ('A' for Active; 'I' for Inactive)
REMARK    1  A    between atoms: C_3  and  C_28
REMARK    2  A    between atoms: C_5  and  N_7
REMARK    3  A    between atoms: C_13  and  O_18
REMARK    4  A    between atoms: O_18  and  C_19
REMARK    5  A    between atoms: C_23  and  N_25
REMARK    6  A    between atoms: N_30  and  C_31
REMARK                            x       y       z     vdW  Elec       q    Type
REMARK                         _______ _______ _______ _____ _____    ______ ____
ROOT
ATOM      1  N   UNL     1       7.995   2.333   0.996  0.00  0.00    -0.202 N 
ATOM      2  C   UNL     1       7.221   1.239   1.105  0.00  0.00    +0.258 C 
ATOM      3  O   UNL     1       7.619   0.092   1.160  0.00  0.00    -0.269 OA
ATOM      4  C   UNL     1       5.808   1.663   1.147  0.00  0.00    +0.050 A 
ATOM      5  C   UNL     1       4.599   0.990   1.250  0.00  0.00    +0.017 A 
ATOM      6  C   UNL     1       3.414   1.704   1.267  0.00  0.00    +0.047 A 
ATOM      7  C   UNL     1       3.427   3.089   1.171  0.00  0.00    +0.129 A 
ATOM      8  C   UNL     1       4.635   3.776   1.068  0.00  0.00    +0.060 A 
ATOM      9  C   UNL     1       5.825   3.071   1.055  0.00  0.00    +0.053 A 
ATOM     10  C   UNL     1       7.250   3.453   0.961  0.00  0.00    +0.258 C 
ATOM     11  O   UNL     1       7.676   4.586   0.867  0.00  0.00    -0.269 OA
ENDROOT
BRANCH   1  16
ATOM     12  C   UNL     1      11.486   3.483   0.752  0.00  0.00    +0.003 A 
ATOM     13  C   UNL     1      12.169   2.285   0.796  0.00  0.00    +0.013 A 
ATOM     14  C   UNL     1      11.465   1.084   0.908  0.00  0.00    +0.039 A 
ATOM     15  C   UNL     1      10.072   1.102   0.975  0.00  0.00    +0.037 A 
ATOM     16  C   UNL     1       9.396   2.311   0.930  0.00  0.00    +0.045 A 
ATOM     17  C   UNL     1      10.105   3.500   0.813  0.00  0.00    +0.024 A 
BRANCH  14  18
ATOM     18  C   UNL     1      12.194  -0.201   0.956  0.00  0.00    +0.248 C 
ATOM     19  O   UNL     1      11.579  -1.245   1.053  0.00  0.00    -0.270 OA
ATOM     20  N   UNL     1      13.540  -0.215   0.891  0.00  0.00    -0.276 N 
ATOM     21  H   UNL     1      14.034   0.620   0.883  0.00  0.00    +0.155 HD
BRANCH  20  22
ATOM     22  C   UNL     1      14.228  -1.440   0.834  0.00  0.00    +0.115 A 
ATOM     23  C   UNL     1      15.142  -1.758   1.781  0.00  0.00    +0.116 A 
ATOM     24  N   UNL     1      15.799  -2.961   1.711  0.00  0.00    -0.313 N 
ATOM     25  H   UNL     1      16.468  -3.202   2.414  0.00  0.00    +0.170 HD
ATOM     26  C   UNL     1      15.551  -3.820   0.706  0.00  0.00    +0.327 A 
ATOM     27  O   UNL     1      16.148  -4.878   0.661  0.00  0.00    -0.247 OA
ATOM     28  N   UNL     1      14.652  -3.527  -0.252  0.00  0.00    -0.274 N 
ATOM     29  H   UNL     1      14.482  -4.179  -0.991  0.00  0.00    +0.173 HD
ATOM     30  C   UNL     1      13.979  -2.359  -0.220  0.00  0.00    +0.275 A 
ATOM     31  O   UNL     1      13.166  -2.094  -1.087  0.00  0.00    -0.266 OA
ENDBRANCH  20  22
ENDBRANCH  14  18
ENDBRANCH   1  16
BRANCH   7  32
ATOM     32  O   UNL     1       2.258   3.778   1.185  0.00  0.00    -0.456 OA
BRANCH  32  33
ATOM     33  C   UNL     1       1.110   3.081   1.390  0.00  0.00    +0.131 A 
ATOM     34  C   UNL     1       0.195   2.929   0.358  0.00  0.00    +0.046 A 
ATOM     35  C   UNL     1      -0.971   2.220   0.569  0.00  0.00    +0.006 A 
ATOM     36  C   UNL     1      -1.230   1.666   1.810  0.00  0.00    +0.033 A 
ATOM     37  C   UNL     1      -0.318   1.812   2.838  0.00  0.00    +0.130 A 
ATOM     38  C   UNL     1       0.850   2.520   2.632  0.00  0.00    +0.079 A 
BRANCH  37  39
ATOM     39  N   UNL     1      -0.596   1.214   4.163  0.00  0.00    +0.057 N 
ATOM     40  O   UNL     1       0.204   1.346   5.072  0.00  0.00    -0.126 OA
ATOM     41  O   UNL     1      -1.626   0.589   4.346  0.00  0.00    -0.126 OA
ENDBRANCH  37  39
ENDBRANCH  32  33
ENDBRANCH   7  32
TORSDOF 6
