REMARK  Name = ZINC20123506
REMARK  9 active torsions:
REMARK  status: ('A' for Active; 'I' for Inactive)
REMARK    1  A    between atoms: C_1  and  C_2
REMARK    2  A    between atoms: C_7  and  N_12
REMARK    3  A    between atoms: C_9  and  C_11
REMARK    4  A    between atoms: N_12  and  C_13
REMARK    5  A    between atoms: N_23  and  C_24
REMARK    6  A    between atoms: C_24  and  C_25
REMARK    7  A    between atoms: C_25  and  C_26
REMARK    8  A    between atoms: C_26  and  C_27
REMARK    9  A    between atoms: C_26  and  C_28
REMARK                            x       y       z     vdW  Elec       q    Type
REMARK                         _______ _______ _______ _____ _____    ______ ____
ROOT
ATOM      1  C   UNL     1       0.922   2.263  -0.179  0.00  0.00    +0.051 C 
ATOM      2  C   UNL     1       0.247   3.568   0.160  0.00  0.00    -0.032 A 
ATOM      3  C   UNL     1       0.702   4.861   0.278  0.00  0.00    +0.004 A 
ATOM      4  C   UNL     1      -0.180   5.876   0.611  0.00  0.00    +0.000 A 
ATOM      5  C   UNL     1      -1.517   5.594   0.824  0.00  0.00    +0.001 A 
ATOM      6  C   UNL     1      -1.983   4.301   0.708  0.00  0.00    +0.013 A 
ATOM      7  C   UNL     1      -1.101   3.272   0.374  0.00  0.00    +0.040 A 
ATOM      8  C   UNL     1      -1.293   1.823   0.174  0.00  0.00    +0.246 C 
ATOM      9  O   UNL     1      -2.356   1.242   0.281  0.00  0.00    -0.270 OA
ATOM     10  N   UNL     1      -0.125   1.236  -0.140  0.00  0.00    -0.307 N 
ENDROOT
BRANCH   1  11
ATOM     11  N   UNL     1       1.963   1.960   0.813  0.00  0.00    +0.396 N 
ATOM     12  H   UNL     1       2.143   0.875   0.815  0.00  0.00    -0.082 HD
ATOM     13  H   UNL     1       1.607   2.275   1.805  0.00  0.00    -0.082 HD
BRANCH  11  19
ATOM     14  C   UNL     1       5.203   1.597   3.615  0.00  0.00    +0.008 C 
ATOM     15  C   UNL     1       4.370   1.439   2.341  0.00  0.00    -0.013 C 
ATOM     16  C   UNL     1       5.161   0.632   1.310  0.00  0.00    +0.003 C 
ATOM     17  C   UNL     1       4.327   0.474   0.037  0.00  0.00    -0.001 C 
ATOM     18  C   UNL     1       4.005   1.856  -0.535  0.00  0.00    -0.015 C 
ATOM     19  C   UNL     1       3.213   2.663   0.495  0.00  0.00    -0.066 C 
ATOM     20  C   UNL     1       4.047   2.821   1.769  0.00  0.00    -0.025 C 
ATOM     21  C   UNL     1       3.255   3.628   2.800  0.00  0.00    +0.006 C 
ENDBRANCH  11  19
ENDBRANCH   1  11
BRANCH  10  22
ATOM     22  C   UNL     1       0.068  -0.191  -0.406  0.00  0.00    +0.107 C 
BRANCH  22  23
ATOM     23  C   UNL     1       0.251  -0.936   0.918  0.00  0.00    +0.022 C 
BRANCH  23  24
ATOM     24  C   UNL     1       0.472  -2.425   0.640  0.00  0.00    -0.016 C 
ATOM     25  C   UNL     1       1.788  -2.612  -0.118  0.00  0.00    +0.007 C 
ATOM     26  C   UNL     1       0.533  -3.188   1.964  0.00  0.00    +0.007 C 
ENDBRANCH  23  24
ENDBRANCH  22  23
ENDBRANCH  10  22
TORSDOF 5
