REMARK  Name = ZINC58450852
REMARK  8 active torsions:
REMARK  status: ('A' for Active; 'I' for Inactive)
REMARK    1  A    between atoms: C_1  and  C_2
REMARK    2  A    between atoms: C_2  and  C_3
REMARK    3  A    between atoms: C_3  and  C_7
REMARK    4  A    between atoms: C_4  and  C_6
REMARK    5  A    between atoms: C_7  and  C_9
REMARK    6  A    between atoms: C_9  and  O_10
REMARK    7  A    between atoms: O_10  and  C_11
REMARK    8  A    between atoms: C_11  and  C_13
REMARK                            x       y       z     vdW  Elec       q    Type
REMARK                         _______ _______ _______ _____ _____    ______ ____
ROOT
ATOM      1  C   UNL     1      -1.102  -5.122   0.035  0.00  0.00    +0.346 C 
ATOM      2  O   UNL     1      -1.691  -4.733  -0.955  0.00  0.00    -0.244 OA
ENDROOT
BRANCH   1   3
ATOM      3  C   UNL     1      -1.169  -6.532   0.421  0.00  0.00    +0.098 A 
ATOM      4  C   UNL     1      -1.836  -7.568  -0.202  0.00  0.00    +0.038 A 
ATOM      5  C   UNL     1      -1.763  -8.841   0.342  0.00  0.00    +0.028 A 
ATOM      6  C   UNL     1      -1.010  -9.005   1.503  0.00  0.00    +0.035 A 
ATOM      7  S   UNL     1      -0.406  -7.349   1.810  0.00  0.00    -0.081 S 
ATOM      8  C   UNL     1      -0.930 -10.347   2.083  0.00  0.00    +0.004 A 
ATOM      9  C   UNL     1      -0.232 -10.751   3.246  0.00  0.00    +0.010 A 
ATOM     10  C   UNL     1      -0.257 -12.047   3.657  0.00  0.00    +0.001 A 
ATOM     11  C   UNL     1      -0.961 -13.015   2.954  0.00  0.00    +0.001 A 
ATOM     12  C   UNL     1      -1.655 -12.659   1.814  0.00  0.00    +0.016 A 
ATOM     13  C   UNL     1      -1.637 -11.346   1.389  0.00  0.00    +0.021 A 
ATOM     14  S   UNL     1      -2.369 -10.493   0.019  0.00  0.00    -0.088 S 
ENDBRANCH   1   3
BRANCH   1  15
ATOM     15  O   UNL     1      -0.385  -4.253   0.778  0.00  0.00    -0.453 OA
BRANCH  15  16
ATOM     16  C   UNL     1      -0.363  -2.892   0.344  0.00  0.00    +0.312 C 
BRANCH  16  17
ATOM     17  C   UNL     1       0.481  -2.076   1.289  0.00  0.00    +0.205 C 
ATOM     18  O   UNL     1       1.087  -2.623   2.188  0.00  0.00    -0.288 OA
BRANCH  17  19
ATOM     19  C   UNL     1       0.569  -0.627   1.125  0.00  0.00    +0.083 C 
ATOM     20  C   UNL     1       1.766  -0.046   0.769  0.00  0.00    +0.165 C 
ATOM     21  O   UNL     1       1.877   1.292   0.729  0.00  0.00    -0.292 OA
ATOM     22  C   UNL     1       2.951  -0.911   0.425  0.00  0.00    +0.092 C 
BRANCH  19  24
ATOM     23  C   UNL     1      -0.544   1.700   1.119  0.00  0.00    +0.066 C 
ATOM     24  C   UNL     1      -0.621   0.211   1.339  0.00  0.00    +0.043 C 
ATOM     25  N   UNL     1      -1.736  -0.330   1.717  0.00  0.00    -0.303 NA
ATOM     26  H   UNL     1      -1.769  -1.277   1.925  0.00  0.00    +0.186 HD
ENDBRANCH  19  24
ENDBRANCH  17  19
ENDBRANCH  16  17
ENDBRANCH  15  16
ENDBRANCH   1  15
TORSDOF 6
