REMARK  Name = ZINC16429534
REMARK  9 active torsions:
REMARK  status: ('A' for Active; 'I' for Inactive)
REMARK    1  A    between atoms: C_1  and  C_2
REMARK    2  A    between atoms: C_2  and  C_4
REMARK    3  A    between atoms: C_2  and  N_11
REMARK    4  A    between atoms: N_6  and  C_7
REMARK    5  A    between atoms: C_7  and  C_8
REMARK    6  A    between atoms: C_7  and  C_9
REMARK    7  A    between atoms: C_7  and  C_10
REMARK    8  A    between atoms: N_15  and  S_18
REMARK    9  A    between atoms: S_18  and  C_21
REMARK                            x       y       z     vdW  Elec       q    Type
REMARK                         _______ _______ _______ _____ _____    ______ ____
ROOT
ATOM      1  N   UNL     1       0.582  -0.479  -1.261  0.00  0.00    +0.388 N 
ATOM      2  C   UNL     1       0.400  -1.905  -1.395  0.00  0.00    -0.076 C 
ATOM      3  C   UNL     1       1.665  -2.539  -2.020  0.00  0.00    -0.001 C 
ATOM      4  C   UNL     1       2.239  -1.610  -3.116  0.00  0.00    +0.107 C 
ATOM      5  N   UNL     1       1.277  -0.989  -3.987  0.00  0.00    -0.178 NA
ATOM      6  C   UNL     1       0.685   0.334  -3.590  0.00  0.00    +0.091 C 
ATOM      7  C   UNL     1      -0.139   0.087  -2.397  0.00  0.00    -0.060 C 
ATOM      8  H   UNL     1       1.561  -0.240  -1.310  0.00  0.00    -0.081 HD
ENDROOT
BRANCH   5   9
ATOM      9  S   UNL     1       0.830  -1.720  -5.404  0.00  0.00    +0.061 S 
ATOM     10  O   UNL     1       0.359  -0.689  -6.262  0.00  0.00    -0.153 OA
ATOM     11  O   UNL     1       1.895  -2.587  -5.768  0.00  0.00    -0.153 OA
BRANCH   9  12
ATOM     12  C   UNL     1      -0.556  -2.747  -5.045  0.00  0.00    +0.106 A 
ATOM     13  C   UNL     1      -0.360  -4.061  -4.662  0.00  0.00    +0.031 A 
ATOM     14  C   UNL     1      -1.446  -4.868  -4.379  0.00  0.00    +0.040 A 
ATOM     15  C   UNL     1      -2.730  -4.360  -4.481  0.00  0.00    +0.124 A 
ATOM     16  C   UNL     1      -2.925  -3.044  -4.865  0.00  0.00    +0.040 A 
ATOM     17  C   UNL     1      -1.837  -2.238  -5.142  0.00  0.00    +0.031 A 
ATOM     18  F   UNL     1      -3.793  -5.148  -4.206  0.00  0.00    -0.205 F 
ENDBRANCH   9  12
ENDBRANCH   5   9
BRANCH   1  20
ATOM     19  C   UNL     1       0.098   1.522   0.065  0.00  0.00    -0.004 C 
ATOM     20  C   UNL     1       0.002  -0.004   0.002  0.00  0.00    +0.016 C 
BRANCH  20  21
ATOM     21  C   UNL     1       0.759  -0.603   1.159  0.00  0.00    +0.200 C 
ATOM     22  O   UNL     1       1.690  -1.352   0.952  0.00  0.00    -0.278 OA
ATOM     23  N   UNL     1       0.402  -0.307   2.424  0.00  0.00    -0.312 N 
ATOM     24  H   UNL     1      -0.343   0.292   2.590  0.00  0.00    +0.149 HD
BRANCH  23  25
ATOM     25  C   UNL     1       1.138  -0.889   3.549  0.00  0.00    +0.026 C 
ATOM     26  C   UNL     1       2.607  -0.467   3.471  0.00  0.00    +0.031 C 
ATOM     27  C   UNL     1       0.534  -0.395   4.865  0.00  0.00    +0.031 C 
ATOM     28  C   UNL     1       1.043  -2.415   3.486  0.00  0.00    +0.031 C 
ENDBRANCH  23  25
ENDBRANCH  20  21
ENDBRANCH   1  20
TORSDOF 5
