REMARK  Name = ZINC17109611
REMARK  11 active torsions:
REMARK  status: ('A' for Active; 'I' for Inactive)
REMARK    1  A    between atoms: C_1  and  C_2
REMARK    2  A    between atoms: C_2  and  C_3
REMARK    3  A    between atoms: C_3  and  C_4
REMARK    4  A    between atoms: C_4  and  N_53
REMARK    5  A    between atoms: C_5  and  C_6
REMARK    6  A    between atoms: C_5  and  N_53
REMARK    7  A    between atoms: C_6  and  C_7
REMARK    8  A    between atoms: C_7  and  C_9
REMARK    9  A    between atoms: C_7  and  O_31
REMARK   10  A    between atoms: C_14  and  C_27
REMARK   11  A    between atoms: C_21  and  C_23
REMARK                            x       y       z     vdW  Elec       q    Type
REMARK                         _______ _______ _______ _____ _____    ______ ____
ROOT
ATOM      1  C   UNL     1      -3.647   3.216   0.054  0.00  0.00    -0.011 A 
ATOM      2  C   UNL     1      -2.468   3.871   0.046  0.00  0.00    +0.015 A 
ATOM      3  C   UNL     1      -1.238   3.174   0.030  0.00  0.00    -0.017 A 
ATOM      4  C   UNL     1      -0.018   3.865   0.022  0.00  0.00    +0.009 A 
ATOM      5  C   UNL     1       1.155   3.168   0.008  0.00  0.00    +0.013 A 
ATOM      6  C   UNL     1       1.159   1.778   0.001  0.00  0.00    +0.055 A 
ATOM      7  C   UNL     1      -0.013   1.076   0.008  0.00  0.00    +0.021 A 
ATOM      8  C   UNL     1      -1.229   1.760   0.017  0.00  0.00    -0.010 A 
ATOM      9  C   UNL     1      -2.510   1.049   0.032  0.00  0.00    -0.009 A 
ATOM     10  C   UNL     1      -3.706   1.803   0.047  0.00  0.00    -0.012 A 
ATOM     11  C   UNL     1      -4.937   1.133   0.056  0.00  0.00    +0.009 A 
ATOM     12  C   UNL     1      -4.965  -0.231   0.050  0.00  0.00    +0.013 A 
ATOM     13  C   UNL     1      -3.788  -0.969   0.035  0.00  0.00    +0.055 A 
ATOM     14  C   UNL     1      -2.572  -0.346   0.026  0.00  0.00    +0.021 A 
ENDROOT
BRANCH  13  15
ATOM     15  C   UNL     1      -3.852  -2.475   0.028  0.00  0.00    +0.417 C 
ATOM     16  F   UNL     1      -5.190  -2.884   0.039  0.00  0.00    -0.166 F 
ATOM     17  F   UNL     1      -3.225  -2.963  -1.123  0.00  0.00    -0.166 F 
ATOM     18  F   UNL     1      -3.202  -2.975   1.162  0.00  0.00    -0.166 F 
ENDBRANCH  13  15
BRANCH   6  19
ATOM     19  C   UNL     1       2.471   1.037  -0.016  0.00  0.00    +0.417 C 
ATOM     20  F   UNL     1       2.865   0.815  -1.340  0.00  0.00    -0.166 F 
ATOM     21  F   UNL     1       3.445   1.799   0.638  0.00  0.00    -0.166 F 
ATOM     22  F   UNL     1       2.322  -0.191   0.638  0.00  0.00    -0.166 F 
ENDBRANCH   6  19
BRANCH   1  23
ATOM     23  C   UNL     1      -4.929   4.007   0.070  0.00  0.00    +0.143 C 
BRANCH  23  24
ATOM     24  O   UNL     1      -4.699   5.299  -0.495  0.00  0.00    -0.387 OA
ATOM     25  H   UNL     1      -4.035   5.822  -0.024  0.00  0.00    +0.210 HD
ENDBRANCH  23  24
BRANCH  23  26
ATOM     26  C   UNL     1      -5.416   4.160   1.513  0.00  0.00    +0.017 C 
BRANCH  26  27
ATOM     27  C   UNL     1      -6.779   4.854   1.520  0.00  0.00    -0.080 C 
BRANCH  27  28
ATOM     28  N   UNL     1      -7.241   4.998   2.914  0.00  0.00    +0.379 N 
ATOM     29  H   UNL     1      -7.320   4.068   3.342  0.00  0.00    -0.086 HD
ATOM     30  H   UNL     1      -6.561   5.559   3.440  0.00  0.00    -0.086 HD
BRANCH  28  31
ATOM     31  C   UNL     1      -8.556   5.665   2.952  0.00  0.00    -0.083 C 
BRANCH  31  32
ATOM     32  C   UNL     1      -9.008   5.800   4.407  0.00  0.00    -0.019 C 
BRANCH  32  34
ATOM     33  C   UNL     1     -10.824   6.626   5.911  0.00  0.00    +0.004 C 
ATOM     34  C   UNL     1     -10.372   6.491   4.455  0.00  0.00    -0.005 C 
ENDBRANCH  32  34
ENDBRANCH  31  32
ENDBRANCH  28  31
ENDBRANCH  27  28
ENDBRANCH  26  27
ENDBRANCH  23  26
ENDBRANCH   1  23
TORSDOF 10
