REMARK  Name = ZINC14984250
REMARK  13 active torsions:
REMARK  status: ('A' for Active; 'I' for Inactive)
REMARK    1  A    between atoms: C_1  and  C_2
REMARK    2  A    between atoms: C_2  and  C_4
REMARK    3  A    between atoms: C_2  and  O_30
REMARK    4  A    between atoms: C_4  and  C_5
REMARK    5  A    between atoms: C_5  and  N_62
REMARK    6  A    between atoms: C_11  and  S_17
REMARK    7  A    between atoms: C_12  and  C_13
REMARK    8  A    between atoms: C_13  and  O_15
REMARK    9  A    between atoms: O_15  and  C_16
REMARK   10  A    between atoms: S_17  and  N_20
REMARK   11  A    between atoms: N_20  and  C_21
REMARK   12  A    between atoms: C_21  and  C_22
REMARK   13  A    between atoms: C_22  and  C_23
REMARK                            x       y       z     vdW  Elec       q    Type
REMARK                         _______ _______ _______ _____ _____    ______ ____
ROOT
ATOM      1  C   UNL     1       0.531  -1.930  -1.368  0.00  0.00    -0.074 C 
ATOM      2  C   UNL     1       0.913  -2.347  -2.791  0.00  0.00    +0.018 C 
ATOM      3  C   UNL     1       2.291  -1.772  -3.100  0.00  0.00    -0.025 A 
ATOM      4  C   UNL     1       2.790  -0.764  -2.346  0.00  0.00    -0.021 A 
ATOM      5  S   UNL     1       4.378  -0.426  -3.049  0.00  0.00    -0.074 S 
ATOM      6  C   UNL     1       4.374  -1.602  -4.322  0.00  0.00    +0.157 A 
ATOM      7  C   UNL     1       3.152  -2.225  -4.173  0.00  0.00    +0.096 A 
ATOM      8  C   UNL     1       2.118  -0.108  -1.182  0.00  0.00    -0.035 C 
ATOM      9  N   UNL     1       0.679  -0.467  -1.229  0.00  0.00    +0.383 N 
ATOM     10  H   UNL     1       0.246  -0.009  -2.040  0.00  0.00    -0.081 HD
ENDROOT
BRANCH   6  11
ATOM     11  S   UNL     1       5.627  -1.924  -5.517  0.00  0.00    +0.065 S 
ATOM     12  O   UNL     1       6.562  -2.799  -4.901  0.00  0.00    -0.153 OA
ATOM     13  O   UNL     1       4.959  -2.253  -6.728  0.00  0.00    -0.153 OA
BRANCH  11  14
ATOM     14  N   UNL     1       6.423  -0.498  -5.789  0.00  0.00    -0.189 NA
ATOM     15  H   UNL     1       6.378  -0.075  -6.661  0.00  0.00    +0.148 HD
BRANCH  14  16
ATOM     16  C   UNL     1       7.195   0.127  -4.712  0.00  0.00    +0.110 C 
BRANCH  16  17
ATOM     17  C   UNL     1       8.116   1.198  -5.300  0.00  0.00    +0.047 C 
BRANCH  17  18
ATOM     18  C   UNL     1       8.910   1.841  -4.192  0.00  0.00    -0.072 C 
ATOM     19  C   UNL     1      10.095   1.379  -3.948  0.00  0.00    -0.028 C 
ATOM     20  C   UNL     1      10.998   1.909  -2.873  0.00  0.00    +0.027 C 
ATOM     21  C   UNL     1      10.522   3.290  -2.417  0.00  0.00    +0.004 C 
ATOM     22  C   UNL     1       9.019   3.212  -2.122  0.00  0.00    +0.005 C 
ATOM     23  C   UNL     1       8.281   2.980  -3.444  0.00  0.00    +0.030 C 
ENDBRANCH  17  18
ENDBRANCH  16  17
ENDBRANCH  14  16
ENDBRANCH  11  14
ENDBRANCH   6  11
BRANCH   7  24
ATOM     24  C   UNL     1       2.737  -3.311  -5.074  0.00  0.00    +0.342 C 
ATOM     25  O   UNL     1       2.129  -3.055  -6.094  0.00  0.00    -0.245 OA
BRANCH  24  26
ATOM     26  O   UNL     1       3.033  -4.590  -4.768  0.00  0.00    -0.464 OA
ATOM     27  C   UNL     1       2.592  -5.610  -5.702  0.00  0.00    +0.280 C 
ENDBRANCH  24  26
ENDBRANCH   7  24
BRANCH   9  28
ATOM     28  C   UNL     1       0.002  -0.004   0.002  0.00  0.00    -0.076 C 
BRANCH  28  29
ATOM     29  C   UNL     1      -0.019   1.526   0.010  0.00  0.00    +0.012 C 
BRANCH  29  31
ATOM     30  C   UNL     1      -0.866   3.543   1.217  0.00  0.00    +0.037 C 
ATOM     31  C   UNL     1      -0.735   2.019   1.269  0.00  0.00    +0.110 C 
BRANCH  31  32
ATOM     32  O   UNL     1       0.019   1.645   2.424  0.00  0.00    -0.392 OA
ATOM     33  H   UNL     1       0.915   2.009   2.444  0.00  0.00    +0.210 HD
ENDBRANCH  31  32
ENDBRANCH  29  31
ENDBRANCH  28  29
ENDBRANCH   9  28
TORSDOF 11
