REMARK  Name = ZINC42945900
REMARK  8 active torsions:
REMARK  status: ('A' for Active; 'I' for Inactive)
REMARK    1  A    between atoms: C_1  and  C_2
REMARK    2  A    between atoms: C_2  and  C_3
REMARK    3  A    between atoms: C_3  and  C_5
REMARK    4  A    between atoms: C_3  and  N_22
REMARK    5  A    between atoms: C_5  and  C_7
REMARK    6  A    between atoms: C_5  and  N_14
REMARK    7  A    between atoms: C_19  and  C_20
REMARK    8  A    between atoms: C_19  and  C_21
REMARK                            x       y       z     vdW  Elec       q    Type
REMARK                         _______ _______ _______ _____ _____    ______ ____
ROOT
ATOM      1  C   UNL     1       0.890  -1.775   1.371  0.00  0.00    +0.073 C 
ENDROOT
BRANCH   1   2
ATOM      2  N   UNL     1       1.600  -2.264   0.181  0.00  0.00    -0.288 NA
ATOM      3  C   UNL     1       1.437  -1.336  -0.947  0.00  0.00    +0.113 C 
ATOM      4  C   UNL     1       2.239  -1.853  -2.145  0.00  0.00    +0.175 C 
ATOM      5  O   UNL     1       1.807  -3.178  -2.466  0.00  0.00    -0.377 OA
ATOM      6  C   UNL     1       1.952  -4.107  -1.389  0.00  0.00    +0.181 C 
ATOM      7  C   UNL     1       1.147  -3.614  -0.184  0.00  0.00    +0.040 C 
ATOM      8  C   UNL     1       1.362  -4.563   0.997  0.00  0.00    +0.030 C 
ATOM      9  C   UNL     1      -0.340  -3.574  -0.544  0.00  0.00    +0.030 C 
ENDBRANCH   1   2
BRANCH   1  10
ATOM     10  C   UNL     1       1.449  -2.445   2.600  0.00  0.00    -0.032 A 
ATOM     11  C   UNL     1       2.816  -2.581   2.751  0.00  0.00    +0.006 A 
ATOM     12  C   UNL     1       3.330  -3.195   3.878  0.00  0.00    +0.020 A 
ATOM     13  C   UNL     1       2.475  -3.673   4.855  0.00  0.00    +0.041 A 
ATOM     14  C   UNL     1       1.107  -3.536   4.704  0.00  0.00    +0.020 A 
ATOM     15  C   UNL     1       0.595  -2.917   3.579  0.00  0.00    +0.006 A 
ATOM     16 CL   UNL     1       3.119  -4.445   6.270  0.00  0.00    -0.084 Cl
ENDBRANCH   1  10
BRANCH   1  17
ATOM     17  C   UNL     1       1.073  -0.261   1.488  0.00  0.00    -0.053 C 
BRANCH  17  18
ATOM     18  N   UNL     1       0.883   0.149   2.885  0.00  0.00    +0.381 N 
ATOM     19  H   UNL     1      -0.047  -0.101   3.186  0.00  0.00    -0.090 HD
ATOM     20  H   UNL     1       1.562  -0.317   3.468  0.00  0.00    -0.090 HD
ATOM     21  H   UNL     1       1.004   1.148   2.962  0.00  0.00    -0.090 HD
ENDBRANCH  17  18
BRANCH  17  23
ATOM     22  C   UNL     1       0.252   1.960   0.691  0.00  0.00    +0.002 C 
ATOM     23  C   UNL     1       0.043   0.447   0.605  0.00  0.00    -0.018 C 
ENDBRANCH  17  23
ENDBRANCH   1  17
TORSDOF 5
