REMARK  Name = ZINC09271232
REMARK  15 active torsions:
REMARK  status: ('A' for Active; 'I' for Inactive)
REMARK    1  A    between atoms: C_1  and  C_2
REMARK    2  A    between atoms: C_2  and  N_62
REMARK    3  A    between atoms: C_3  and  C_4
REMARK    4  A    between atoms: C_3  and  N_62
REMARK    5  A    between atoms: C_5  and  C_6
REMARK    6  A    between atoms: C_5  and  N_62
REMARK    7  A    between atoms: C_6  and  N_7
REMARK    8  A    between atoms: C_8  and  C_24
REMARK    9  A    between atoms: C_11  and  C_12
REMARK   10  A    between atoms: C_11  and  O_19
REMARK   11  A    between atoms: C_13  and  C_18
REMARK   12  A    between atoms: C_15  and  C_17
REMARK   13  A    between atoms: C_27  and  C_30
REMARK   14  A    between atoms: C_30  and  O_32
REMARK   15  A    between atoms: O_32  and  C_33
REMARK                            x       y       z     vdW  Elec       q    Type
REMARK                         _______ _______ _______ _____ _____    ______ ____
ROOT
ATOM      1  N   UNL     1       2.470   5.096   0.904  0.00  0.00    -0.285 N 
ATOM      2  C   UNL     1       2.587   3.900   0.064  0.00  0.00    +0.144 C 
ATOM      3  C   UNL     1       2.899   4.383  -1.333  0.00  0.00    +0.072 C 
ATOM      4  C   UNL     1       3.095   3.599  -2.461  0.00  0.00    +0.141 C 
ATOM      5  C   UNL     1       2.950   5.778  -1.262  0.00  0.00    +0.249 C 
ATOM      6  O   UNL     1       3.179   6.533  -2.191  0.00  0.00    -0.282 OA
ATOM      7  C   UNL     1       2.679   6.183   0.143  0.00  0.00    +0.288 C 
ATOM      8  O   UNL     1       2.652   7.329   0.544  0.00  0.00    -0.266 OA
ENDROOT
BRANCH   4   9
ATOM      9  C   UNL     1       3.241   4.209  -3.732  0.00  0.00    +0.077 A 
ATOM     10  C   UNL     1       4.276   4.104  -4.658  0.00  0.00    +0.056 A 
ATOM     11  N   UNL     1       4.164   4.780  -5.771  0.00  0.00    -0.249 NA
ATOM     12  C   UNL     1       3.115   5.537  -6.021  0.00  0.00    +0.076 A 
ATOM     13  S   UNL     1       2.144   5.323  -4.598  0.00  0.00    -0.069 S 
ATOM     14  C   UNL     1       2.828   6.374  -7.241  0.00  0.00    +0.073 C 
ATOM     15  C   UNL     1       5.482   3.243  -4.386  0.00  0.00    +0.067 C 
ENDBRANCH   4   9
BRANCH   2  16
ATOM     16  C   UNL     1       1.287   3.137   0.069  0.00  0.00    -0.022 A 
ATOM     17  C   UNL     1       1.300   1.754   0.091  0.00  0.00    +0.006 A 
ATOM     18  C   UNL     1       0.114   1.049   0.095  0.00  0.00    +0.015 A 
ATOM     19  C   UNL     1      -1.101   1.735   0.070  0.00  0.00    +0.059 A 
ATOM     20  C   UNL     1      -1.108   3.132   0.054  0.00  0.00    +0.015 A 
ATOM     21  C   UNL     1       0.086   3.824   0.050  0.00  0.00    +0.006 A 
BRANCH  19  22
ATOM     22  C   UNL     1      -2.376   0.988   0.068  0.00  0.00    +0.339 C 
ATOM     23  O   UNL     1      -2.367  -0.227   0.088  0.00  0.00    -0.245 OA
BRANCH  22  24
ATOM     24  O   UNL     1      -3.547   1.653   0.045  0.00  0.00    -0.464 OA
ATOM     25  C   UNL     1      -4.759   0.853   0.044  0.00  0.00    +0.280 C 
ENDBRANCH  22  24
ENDBRANCH  19  22
ENDBRANCH   2  16
BRANCH   4  26
ATOM     26  O   UNL     1       3.147   2.253  -2.348  0.00  0.00    -0.505 OA
ATOM     27  H   UNL     1       3.293   1.848  -3.251  0.00  0.00    +0.292 HD
ENDBRANCH   4  26
BRANCH   1  28
ATOM     28  C   UNL     1       2.174   5.104   2.338  0.00  0.00    +0.090 C 
BRANCH  28  29
ATOM     29  C   UNL     1       3.482   5.039   3.130  0.00  0.00    -0.060 C 
BRANCH  29  30
ATOM     30  N   UNL     1       3.168   5.070   4.574  0.00  0.00    +0.380 N 
ATOM     31  H   UNL     1       2.551   5.869   4.764  0.00  0.00    -0.082 HD
BRANCH  30  33
ATOM     32  C   UNL     1       3.386   2.614   4.753  0.00  0.00    -0.017 C 
ATOM     33  C   UNL     1       2.475   3.825   4.966  0.00  0.00    -0.082 C 
ENDBRANCH  30  33
BRANCH  30  34
ATOM     34  C   UNL     1       4.411   5.225   5.358  0.00  0.00    -0.082 C 
ATOM     35  C   UNL     1       4.048   5.369   6.837  0.00  0.00    -0.017 C 
ENDBRANCH  30  34
ENDBRANCH  29  30
ENDBRANCH  28  29
ENDBRANCH   1  28
TORSDOF 10
