REMARK  Name = ZINC20706836
REMARK  4 active torsions:
REMARK  status: ('A' for Active; 'I' for Inactive)
REMARK    1  A    between atoms: C_1  and  C_2
REMARK    2  A    between atoms: C_4  and  N_25
REMARK    3  A    between atoms: C_9  and  C_18
REMARK    4  A    between atoms: C_23  and  O_24
REMARK                            x       y       z     vdW  Elec       q    Type
REMARK                         _______ _______ _______ _____ _____    ______ ____
ROOT
ATOM      1  C   UNL     1       1.717  -0.243   1.817  0.00  0.00    +0.046 C 
ATOM      2  C   UNL     1       2.169   0.883   0.924  0.00  0.00    -0.027 A 
ATOM      3  C   UNL     1       3.468   1.333   1.001  0.00  0.00    +0.038 A 
ATOM      4  C   UNL     1       3.896   2.368   0.189  0.00  0.00    +0.127 A 
ATOM      5  C   UNL     1       3.014   2.943  -0.706  0.00  0.00    +0.038 A 
ATOM      6  C   UNL     1       1.715   2.493  -0.796  0.00  0.00    -0.017 A 
ATOM      7  C   UNL     1       1.265   1.458   0.029  0.00  0.00    +0.034 A 
ATOM      8  N   UNL     1      -0.037   0.962   0.020  0.00  0.00    -0.336 N 
ATOM      9  C   UNL     1      -0.946   1.507  -1.001  0.00  0.00    +0.108 C 
ATOM     10  C   UNL     1      -0.653   2.989  -1.112  0.00  0.00    +0.029 C 
ATOM     11  C   UNL     1       0.760   3.063  -1.771  0.00  0.00    +0.049 C 
ATOM     12  C   UNL     1       0.837   4.467  -2.243  0.00  0.00    -0.023 C 
ATOM     13  C   UNL     1      -0.394   4.895  -2.501  0.00  0.00    -0.030 C 
ATOM     14  C   UNL     1      -1.407   3.793  -2.177  0.00  0.00    +0.033 C 
ATOM     15  H   UNL     1      -0.397   0.201   0.727  0.00  0.00    +0.147 HD
ENDROOT
BRANCH   9  16
ATOM     16  C   UNL     1      -0.696   0.833  -2.325  0.00  0.00    +0.014 A 
ATOM     17  C   UNL     1       0.545   0.291  -2.601  0.00  0.00    +0.009 A 
ATOM     18  C   UNL     1       0.774  -0.332  -3.814  0.00  0.00    +0.001 A 
ATOM     19  C   UNL     1      -0.235  -0.405  -4.757  0.00  0.00    +0.004 A 
ATOM     20  C   UNL     1      -1.475   0.140  -4.488  0.00  0.00    +0.046 A 
ATOM     21  C   UNL     1      -1.709   0.761  -3.269  0.00  0.00    +0.122 A 
BRANCH  21  22
ATOM     22  O   UNL     1      -2.929   1.298  -3.002  0.00  0.00    -0.506 OA
ATOM     23  H   UNL     1      -3.731   1.240  -3.752  0.00  0.00    +0.292 HD
ENDBRANCH  21  22
ENDBRANCH   9  16
BRANCH   4  24
ATOM     24  N   UNL     1       5.291   2.855   0.278  0.00  0.00    +0.056 N 
ATOM     25  O   UNL     1       5.664   3.766  -0.439  0.00  0.00    -0.126 OA
ATOM     26  O   UNL     1       6.065   2.345   1.069  0.00  0.00    -0.126 OA
ENDBRANCH   4  24
TORSDOF 3
