REMARK  Name = ZINC28292601
REMARK  7 active torsions:
REMARK  status: ('A' for Active; 'I' for Inactive)
REMARK    1  A    between atoms: C_1  and  C_2
REMARK    2  A    between atoms: C_4  and  C_31
REMARK    3  A    between atoms: C_11  and  C_13
REMARK    4  A    between atoms: N_15  and  C_16
REMARK    5  A    between atoms: C_16  and  C_17
REMARK    6  A    between atoms: C_17  and  C_19
REMARK    7  A    between atoms: C_17  and  N_25
REMARK                            x       y       z     vdW  Elec       q    Type
REMARK                         _______ _______ _______ _____ _____    ______ ____
ROOT
ATOM      1  C   UNL     1      -0.918   3.951   1.330  0.00  0.00    +0.279 C 
ATOM      2  O   UNL     1      -1.554   3.402   0.453  0.00  0.00    -0.267 OA
ATOM      3  N   UNL     1       0.400   4.178   1.166  0.00  0.00    -0.310 N 
ATOM      4  H   UNL     1       0.977   4.671   1.962  0.00  0.00    +0.149 HD
ENDROOT
BRANCH   1  15
ATOM      5  C   UNL     1      -3.051   6.694   8.434  0.00  0.00    +0.044 C 
ATOM      6  C   UNL     1      -2.474   6.228   7.121  0.00  0.00    -0.049 A 
ATOM      7  C   UNL     1      -1.125   6.415   6.856  0.00  0.00    +0.010 A 
ATOM      8  C   UNL     1      -0.577   5.997   5.663  0.00  0.00    -0.007 A 
ATOM      9  C   UNL     1      -1.381   5.380   4.710  0.00  0.00    +0.142 A 
ATOM     10  C   UNL     1      -2.747   5.194   4.986  0.00  0.00    +0.064 A 
ATOM     11  C   UNL     1      -3.283   5.624   6.200  0.00  0.00    +0.018 A 
ATOM     12  C   UNL     1      -3.586   4.539   3.965  0.00  0.00    +0.193 A 
ATOM     13  O   UNL     1      -4.776   4.348   4.143  0.00  0.00    -0.287 OA
ATOM     14  C   UNL     1      -2.918   4.132   2.719  0.00  0.00    +0.103 A 
ATOM     15  C   UNL     1      -1.591   4.367   2.584  0.00  0.00    +0.193 A 
ATOM     16  O   UNL     1      -0.863   4.966   3.538  0.00  0.00    -0.450 OA
ATOM     17  C   UNL     1       0.890   6.208   5.390  0.00  0.00    +0.047 C 
ENDBRANCH   1  15
BRANCH   3  18
ATOM     18  C   UNL     1       1.065   3.767  -0.073  0.00  0.00    +0.094 C 
BRANCH  18  19
ATOM     19  C   UNL     1       2.513   4.262  -0.064  0.00  0.00    -0.020 C 
BRANCH  19  20
ATOM     20  N   UNL     1       3.200   3.788  -1.272  0.00  0.00    +0.385 N 
ATOM     21  C   UNL     1       3.152   2.323  -1.365  0.00  0.00    -0.078 C 
ATOM     22  C   UNL     1       3.747   1.876  -2.702  0.00  0.00    -0.019 C 
ATOM     23  C   UNL     1       5.195   2.365  -2.800  0.00  0.00    -0.004 C 
ATOM     24  C   UNL     1       5.221   3.889  -2.652  0.00  0.00    -0.019 C 
ATOM     25  C   UNL     1       4.584   4.278  -1.317  0.00  0.00    -0.078 C 
ATOM     26  H   UNL     1       2.671   4.197  -2.146  0.00  0.00    -0.081 HD
ENDBRANCH  19  20
BRANCH  19  27
ATOM     27  C   UNL     1       2.528   5.769  -0.035  0.00  0.00    -0.059 A 
ATOM     28  C   UNL     1       2.333   6.484  -1.201  0.00  0.00    +0.002 A 
ATOM     29  C   UNL     1       2.344   7.866  -1.174  0.00  0.00    +0.000 A 
ATOM     30  C   UNL     1       2.558   8.533   0.018  0.00  0.00    +0.000 A 
ATOM     31  C   UNL     1       2.757   7.817   1.184  0.00  0.00    +0.000 A 
ATOM     32  C   UNL     1       2.743   6.435   1.157  0.00  0.00    +0.002 A 
ENDBRANCH  19  27
ENDBRANCH  18  19
ENDBRANCH   3  18
TORSDOF 5
