REMARK  Name = ZINC09552067
REMARK  11 active torsions:
REMARK  status: ('A' for Active; 'I' for Inactive)
REMARK    1  A    between atoms: C_1  and  C_2
REMARK    2  A    between atoms: C_5  and  C_33
REMARK    3  A    between atoms: C_6  and  N_8
REMARK    4  A    between atoms: C_9  and  C_11
REMARK    5  A    between atoms: C_11  and  C_12
REMARK    6  A    between atoms: C_14  and  C_17
REMARK    7  A    between atoms: C_17  and  O_18
REMARK    8  A    between atoms: O_18  and  C_19
REMARK    9  A    between atoms: C_19  and  C_21
REMARK   10  A    between atoms: C_27  and  C_32
REMARK   11  A    between atoms: C_28  and  C_31
REMARK                            x       y       z     vdW  Elec       q    Type
REMARK                         _______ _______ _______ _____ _____    ______ ____
ROOT
ATOM      1  C   UNL     1       3.332   7.473  -0.304  0.00  0.00    +0.087 A 
ATOM      2  N   UNL     1       3.218   8.352   0.665  0.00  0.00    -0.245 NA
ATOM      3  C   UNL     1       2.958   9.618   0.417  0.00  0.00    +0.086 A 
ATOM      4  C   UNL     1       2.796  10.003  -0.875  0.00  0.00    +0.073 A 
ATOM      5  S   UNL     1       3.047   8.445  -1.714  0.00  0.00    -0.080 S 
ENDROOT
BRANCH   1   6
ATOM      6  C   UNL     1       3.629   5.998  -0.215  0.00  0.00    +0.159 C 
BRANCH   6   8
ATOM      7  N   UNL     1       2.356   3.889   0.001  0.00  0.00    -0.285 N 
ATOM      8  C   UNL     1       2.336   5.233  -0.093  0.00  0.00    +0.224 C 
ATOM      9  O   UNL     1       1.279   5.827  -0.081  0.00  0.00    -0.275 OA
ATOM     10  H   UNL     1       3.202   3.420   0.071  0.00  0.00    +0.155 HD
BRANCH   7  16
ATOM     11  C   UNL     1      -2.390   3.583  -1.245  0.00  0.00    +0.044 C 
ATOM     12  C   UNL     1      -1.161   2.998  -0.600  0.00  0.00    -0.049 A 
ATOM     13  C   UNL     1      -1.217   1.746  -0.015  0.00  0.00    +0.004 A 
ATOM     14  C   UNL     1      -0.093   1.208   0.583  0.00  0.00    +0.005 A 
ATOM     15  C   UNL     1       1.094   1.915   0.589  0.00  0.00    -0.029 A 
ATOM     16  C   UNL     1       1.155   3.170  -0.003  0.00  0.00    +0.037 A 
ATOM     17  C   UNL     1       0.022   3.710  -0.598  0.00  0.00    +0.027 A 
ATOM     18  C   UNL     1       2.321   1.325   1.235  0.00  0.00    +0.045 C 
ENDBRANCH   7  16
ENDBRANCH   6   8
ENDBRANCH   1   6
BRANCH   3  19
ATOM     19  C   UNL     1       2.836  10.616   1.540  0.00  0.00    +0.288 C 
BRANCH  19  20
ATOM     20  O   UNL     1       2.541  11.928   0.993  0.00  0.00    -0.455 OA
BRANCH  20  21
ATOM     21  C   UNL     1       2.400  12.940   1.871  0.00  0.00    +0.340 C 
ATOM     22  O   UNL     1       2.520  12.732   3.062  0.00  0.00    -0.245 OA
BRANCH  21  23
ATOM     23  C   UNL     1       2.100  14.300   1.387  0.00  0.00    +0.060 A 
ATOM     24  C   UNL     1       1.967  14.541   0.011  0.00  0.00    +0.017 A 
ATOM     25  C   UNL     1       1.685  15.792  -0.451  0.00  0.00    +0.027 A 
ATOM     26  C   UNL     1       1.536  16.853   0.440  0.00  0.00    +0.047 A 
ATOM     27  C   UNL     1       1.672  16.625   1.824  0.00  0.00    +0.004 A 
ATOM     28  C   UNL     1       1.954  15.346   2.294  0.00  0.00    +0.025 A 
ATOM     29  C   UNL     1       1.459  17.924   2.470  0.00  0.00    -0.022 A 
ATOM     30  C   UNL     1       1.220  18.812   1.494  0.00  0.00    +0.017 A 
ATOM     31  N   UNL     1       1.262  18.189   0.275  0.00  0.00    -0.358 N 
ATOM     32  H   UNL     1       1.119  18.627  -0.578  0.00  0.00    +0.166 HD
ATOM     33  C   UNL     1       0.946  20.278   1.706  0.00  0.00    +0.063 C 
ATOM     34  C   UNL     1       1.501  18.206   3.950  0.00  0.00    +0.046 C 
ENDBRANCH  21  23
ENDBRANCH  20  21
ENDBRANCH  19  20
ENDBRANCH   3  19
TORSDOF 7
