REMARK  Name = ZINC21162528
REMARK  5 active torsions:
REMARK  status: ('A' for Active; 'I' for Inactive)
REMARK    1  A    between atoms: C_1  and  C_2
REMARK    2  A    between atoms: C_8  and  N_10
REMARK    3  A    between atoms: C_11  and  C_13
REMARK    4  A    between atoms: N_27  and  C_28
REMARK    5  A    between atoms: C_28  and  C_29
REMARK                            x       y       z     vdW  Elec       q    Type
REMARK                         _______ _______ _______ _____ _____    ______ ____
ROOT
ATOM      1  C   UNL     1       0.974   5.973   0.565  0.00  0.00    +0.078 C 
ATOM      2  C   UNL     1       0.058   5.365  -0.501  0.00  0.00    +0.032 C 
ATOM      3  C   UNL     1      -0.128   3.873  -0.216  0.00  0.00    +0.108 C 
ATOM      4  N   UNL     1       1.179   3.204  -0.230  0.00  0.00    -0.302 N 
ATOM      5  C   UNL     1       2.060   3.739   0.817  0.00  0.00    +0.108 C 
ATOM      6  C   UNL     1       2.311   5.227   0.563  0.00  0.00    +0.032 C 
ATOM      7  C   UNL     1       1.037   1.838  -0.106  0.00  0.00    +0.177 A 
ATOM      8  N   UNL     1       0.433   1.232   0.884  0.00  0.00    -0.327 N 
ATOM      9  C   UNL     1       0.475  -0.113   0.690  0.00  0.00    +0.065 A 
ATOM     10  C   UNL     1      -0.004  -1.204   1.419  0.00  0.00    +0.028 A 
ATOM     11  C   UNL     1       0.200  -2.482   0.951  0.00  0.00    +0.002 A 
ATOM     12  C   UNL     1       0.877  -2.696  -0.240  0.00  0.00    +0.002 A 
ATOM     13  C   UNL     1       1.356  -1.629  -0.973  0.00  0.00    +0.028 A 
ATOM     14  C   UNL     1       1.160  -0.335  -0.516  0.00  0.00    +0.068 A 
ATOM     15  N   UNL     1       1.505   0.917  -0.999  0.00  0.00    -0.309 N 
ATOM     16  H   UNL     1      -0.009   1.820   1.702  0.00  0.00    +0.169 HD
ENDROOT
BRANCH   1  18
ATOM     17  N   UNL     1       1.990   8.172   1.066  0.00  0.00    -0.312 N 
ATOM     18  C   UNL     1       1.209   7.429   0.257  0.00  0.00    +0.216 C 
ATOM     19  O   UNL     1       0.695   7.933  -0.719  0.00  0.00    -0.276 OA
ATOM     20  H   UNL     1       2.457   7.715   1.951  0.00  0.00    +0.149 HD
BRANCH  17  27
ATOM     21  C   UNL     1       4.686   9.198   0.807  0.00  0.00    +0.009 C 
ATOM     22  C   UNL     1       3.544  10.033   1.388  0.00  0.00    +0.006 C 
ATOM     23  C   UNL     1       3.782  11.512   1.075  0.00  0.00    +0.005 C 
ATOM     24  C   UNL     1       2.639  12.347   1.656  0.00  0.00    +0.000 C 
ATOM     25  C   UNL     1       1.315  11.901   1.034  0.00  0.00    +0.002 C 
ATOM     26  C   UNL     1       1.076  10.422   1.347  0.00  0.00    +0.022 C 
ATOM     27  C   UNL     1       2.219   9.587   0.766  0.00  0.00    +0.076 C 
ENDBRANCH  17  27
ENDBRANCH   1  18
BRANCH  15  28
ATOM     28  C   UNL     1       2.235   1.200  -2.237  0.00  0.00    +0.163 C 
BRANCH  28  29
ATOM     29  C   UNL     1       1.255   1.499  -3.342  0.00  0.00    +0.007 A 
ATOM     30  C   UNL     1       0.996   2.809  -3.700  0.00  0.00    +0.008 A 
ATOM     31  C   UNL     1       0.097   3.084  -4.713  0.00  0.00    +0.000 A 
ATOM     32  C   UNL     1      -0.544   2.050  -5.370  0.00  0.00    +0.003 A 
ATOM     33  C   UNL     1      -0.286   0.740  -5.014  0.00  0.00    +0.039 A 
ATOM     34  C   UNL     1       0.617   0.463  -4.002  0.00  0.00    +0.128 A 
ATOM     35  F   UNL     1       0.873  -0.818  -3.656  0.00  0.00    -0.205 F 
ENDBRANCH  28  29
ENDBRANCH  15  28
TORSDOF 4
