REMARK  Name = ZINC39676902
REMARK  9 active torsions:
REMARK  status: ('A' for Active; 'I' for Inactive)
REMARK    1  A    between atoms: C_1  and  C_2
REMARK    2  A    between atoms: C_5  and  C_34
REMARK    3  A    between atoms: C_6  and  C_8
REMARK    4  A    between atoms: C_8  and  C_9
REMARK    5  A    between atoms: C_9  and  N_10
REMARK    6  A    between atoms: C_11  and  C_13
REMARK    7  A    between atoms: C_24  and  C_26
REMARK    8  A    between atoms: C_31  and  O_32
REMARK    9  A    between atoms: O_32  and  C_33
REMARK                            x       y       z     vdW  Elec       q    Type
REMARK                         _______ _______ _______ _____ _____    ______ ____
ROOT
ATOM      1  C   UNL     1       2.696  -5.098   5.947  0.00  0.00    +0.100 C 
ATOM      2  C   UNL     1       2.272  -4.178   7.115  0.00  0.00    +0.121 C 
ATOM      3  N   UNL     1       3.127  -4.598   8.250  0.00  0.00    -0.296 N 
ATOM      4  C   UNL     1       4.452  -4.860   7.638  0.00  0.00    +0.115 C 
ATOM      5  C   UNL     1       4.127  -5.542   6.294  0.00  0.00    -0.004 C 
ATOM      6  C   UNL     1       5.101  -5.075   5.217  0.00  0.00    -0.010 C 
ATOM      7  C   UNL     1       6.507  -5.579   5.553  0.00  0.00    -0.082 C 
ATOM      8  N   UNL     1       6.499  -7.044   5.630  0.00  0.00    +0.379 N 
ATOM      9  C   UNL     1       5.631  -7.482   6.730  0.00  0.00    -0.082 C 
ATOM     10  C   UNL     1       4.187  -7.059   6.444  0.00  0.00    -0.010 C 
ATOM     11  C   UNL     1       2.779  -4.714   9.547  0.00  0.00    +0.250 C 
ATOM     12  O   UNL     1       1.621  -4.556   9.883  0.00  0.00    -0.270 OA
ATOM     13  H   UNL     1       6.155  -7.424   4.761  0.00  0.00    -0.086 HD
ATOM     14  H   UNL     1       7.438  -7.377   5.792  0.00  0.00    -0.086 HD
ENDROOT
BRANCH  11  15
ATOM     15  C   UNL     1       3.804  -5.033  10.560  0.00  0.00    +0.078 A 
ATOM     16  C   UNL     1       5.102  -4.534  10.428  0.00  0.00    +0.017 A 
ATOM     17  C   UNL     1       6.054  -4.836  11.377  0.00  0.00    +0.001 A 
ATOM     18  C   UNL     1       5.729  -5.632  12.464  0.00  0.00    +0.004 A 
ATOM     19  C   UNL     1       4.450  -6.132  12.607  0.00  0.00    +0.046 A 
ATOM     20  C   UNL     1       3.478  -5.834  11.663  0.00  0.00    +0.132 A 
BRANCH  20  21
ATOM     21  O   UNL     1       2.220  -6.320  11.805  0.00  0.00    -0.494 OA
ATOM     22  C   UNL     1       1.962  -7.129  12.954  0.00  0.00    +0.277 C 
ENDBRANCH  20  21
ENDBRANCH  11  15
BRANCH   1  24
ATOM     23  N   UNL     1       2.608  -4.999   3.477  0.00  0.00    -0.315 N 
ATOM     24  C   UNL     1       2.684  -4.335   4.648  0.00  0.00    +0.218 C 
ATOM     25  O   UNL     1       2.742  -3.123   4.655  0.00  0.00    -0.275 OA
ATOM     26  H   UNL     1       2.562  -5.968   3.471  0.00  0.00    +0.149 HD
BRANCH  23  27
ATOM     27  C   UNL     1       2.596  -4.257   2.214  0.00  0.00    +0.109 C 
BRANCH  27  28
ATOM     28  C   UNL     1       2.506  -5.241   1.046  0.00  0.00    +0.054 C 
BRANCH  28  34
ATOM     29  C   UNL     1      -0.031  -3.119  -2.710  0.00  0.00    +0.044 C 
ATOM     30  C   UNL     1       1.280  -3.464  -2.051  0.00  0.00    -0.050 A 
ATOM     31  C   UNL     1       2.471  -3.080  -2.639  0.00  0.00    +0.003 A 
ATOM     32  C   UNL     1       3.673  -3.396  -2.034  0.00  0.00    +0.004 A 
ATOM     33  C   UNL     1       3.684  -4.095  -0.842  0.00  0.00    -0.047 A 
ATOM     34  C   UNL     1       2.494  -4.478  -0.254  0.00  0.00    -0.043 A 
ATOM     35  C   UNL     1       1.291  -4.159  -0.856  0.00  0.00    +0.007 A 
ATOM     36  C   UNL     1       4.995  -4.441  -0.183  0.00  0.00    +0.044 C 
ENDBRANCH  28  34
ENDBRANCH  27  28
ENDBRANCH  23  27
ENDBRANCH   1  24
TORSDOF 6
