REMARK  Name = ZINC50563440
REMARK  8 active torsions:
REMARK  status: ('A' for Active; 'I' for Inactive)
REMARK    1  A    between atoms: C_1  and  C_2
REMARK    2  A    between atoms: C_2  and  C_3
REMARK    3  A    between atoms: C_3  and  C_5
REMARK    4  A    between atoms: C_3  and  N_23
REMARK    5  A    between atoms: C_5  and  C_7
REMARK    6  A    between atoms: C_5  and  N_13
REMARK    7  A    between atoms: C_17  and  C_22
REMARK    8  A    between atoms: C_19  and  C_21
REMARK                            x       y       z     vdW  Elec       q    Type
REMARK                         _______ _______ _______ _____ _____    ______ ____
ROOT
ATOM      1  C   UNL     1       1.826  -1.787  -0.878  0.00  0.00    -0.045 C 
ENDROOT
BRANCH   1   2
ATOM      2  N   UNL     1       2.291  -2.658   0.209  0.00  0.00    +0.385 N 
ATOM      3  C   UNL     1       1.826  -2.124   1.495  0.00  0.00    -0.078 C 
ATOM      4  C   UNL     1       2.375  -2.982   2.637  0.00  0.00    -0.018 C 
ATOM      5  C   UNL     1       1.879  -4.421   2.471  0.00  0.00    -0.000 C 
ATOM      6  C   UNL     1       2.305  -4.943   1.096  0.00  0.00    -0.028 C 
ATOM      7  C   UNL     1       1.758  -4.012   0.011  0.00  0.00    -0.068 C 
ATOM      8  C   UNL     1       2.182  -4.529  -1.365  0.00  0.00    -0.013 C 
ATOM      9  C   UNL     1       3.833  -4.981   1.015  0.00  0.00    +0.006 C 
ATOM     10  H   UNL     1       3.299  -2.691   0.205  0.00  0.00    -0.081 HD
ENDBRANCH   1   2
BRANCH   1  11
ATOM     11  C   UNL     1       2.903  -0.790  -1.218  0.00  0.00    -0.024 A 
ATOM     12  C   UNL     1       3.312  -0.358  -2.436  0.00  0.00    +0.010 A 
ATOM     13  C   UNL     1       4.332   0.573  -2.509  0.00  0.00    +0.023 A 
ATOM     14  C   UNL     1       4.891   1.027  -1.360  0.00  0.00    +0.055 A 
ATOM     15  S   UNL     1       3.966   0.135  -0.121  0.00  0.00    -0.088 S 
ATOM     16 BR   UNL     1       6.285   2.284  -1.130  0.00  0.00    -0.043 Br
ENDBRANCH   1  11
BRANCH   1  17
ATOM     17  C   UNL     1       0.565  -1.043  -0.432  0.00  0.00    -0.085 C 
BRANCH  17  18
ATOM     18  N   UNL     1       0.234  -0.006  -1.418  0.00  0.00    +0.379 N 
ATOM     19  H   UNL     1      -0.597   0.485  -1.124  0.00  0.00    -0.090 HD
ATOM     20  H   UNL     1       1.001   0.646  -1.490  0.00  0.00    -0.090 HD
ATOM     21  H   UNL     1       0.071  -0.435  -2.316  0.00  0.00    -0.090 HD
ENDBRANCH  17  18
BRANCH  17  23
ATOM     22  C   UNL     1      -1.899  -1.263  -0.084  0.00  0.00    +0.002 C 
ATOM     23  C   UNL     1      -0.598  -2.032  -0.322  0.00  0.00    -0.021 C 
ENDBRANCH  17  23
ENDBRANCH   1  17
TORSDOF 5
