REMARK  Name = ZINC09579067
REMARK  11 active torsions:
REMARK  status: ('A' for Active; 'I' for Inactive)
REMARK    1  A    between atoms: C_1  and  N_62
REMARK    2  A    between atoms: C_2  and  N_62
REMARK    3  A    between atoms: C_3  and  C_5
REMARK    4  A    between atoms: C_3  and  C_29
REMARK    5  A    between atoms: C_3  and  N_62
REMARK    6  A    between atoms: C_5  and  N_6
REMARK    7  A    between atoms: N_9  and  C_10
REMARK    8  A    between atoms: N_9  and  C_11
REMARK    9  A    between atoms: C_11  and  C_12
REMARK   10  A    between atoms: N_14  and  C_23
REMARK   11  A    between atoms: C_16  and  C_17
REMARK                            x       y       z     vdW  Elec       q    Type
REMARK                         _______ _______ _______ _____ _____    ______ ____
ROOT
ATOM      1  C   UNL     1      -3.133   2.686   4.603  0.00  0.00    +0.147 C 
ENDROOT
BRANCH   1   5
ATOM      2  N   UNL     1      -2.605   0.665   1.577  0.00  0.00    -0.300 N 
ATOM      3  C   UNL     1      -2.724   1.021   2.871  0.00  0.00    +0.302 C 
ATOM      4  O   UNL     1      -2.579   0.189   3.746  0.00  0.00    -0.253 OA
ATOM      5  N   UNL     1      -3.004   2.299   3.195  0.00  0.00    -0.284 N 
ATOM      6  C   UNL     1      -3.179   3.300   2.141  0.00  0.00    +0.134 C 
ATOM      7  H   UNL     1      -2.721   1.328   0.878  0.00  0.00    +0.150 HD
BRANCH   2   8
ATOM      8  C   UNL     1      -2.301  -0.724   1.224  0.00  0.00    +0.098 C 
BRANCH   8   9
ATOM      9  C   UNL     1      -2.094  -0.833  -0.288  0.00  0.00    +0.016 C 
BRANCH   9  10
ATOM     10  C   UNL     1      -1.659  -2.233  -0.637  0.00  0.00    +0.093 A 
ATOM     11  C   UNL     1      -2.408  -3.155  -1.268  0.00  0.00    +0.043 A 
ATOM     12  C   UNL     1      -1.611  -4.317  -1.388  0.00  0.00    +0.041 A 
ATOM     13  C   UNL     1      -0.424  -4.036  -0.822  0.00  0.00    +0.195 A 
ATOM     14  O   UNL     1      -0.457  -2.770  -0.374  0.00  0.00    -0.469 OA
ENDBRANCH   9  10
BRANCH   9  17
ATOM     15  C   UNL     1       0.223  -0.170  -0.056  0.00  0.00    -0.096 C 
ATOM     16  C   UNL     1      -0.915   0.127  -2.172  0.00  0.00    -0.096 C 
ATOM     17  N   UNL     1      -1.068   0.147  -0.703  0.00  0.00    +0.384 N 
ATOM     18  H   UNL     1      -1.365   1.085  -0.411  0.00  0.00    -0.082 HD
ENDBRANCH   9  17
ENDBRANCH   8   9
ENDBRANCH   2   8
ENDBRANCH   1   5
BRANCH   1  19
ATOM     19  C   UNL     1      -1.795   3.145   5.122  0.00  0.00    +0.016 A 
ATOM     20  C   UNL     1      -0.670   3.301   4.391  0.00  0.00    +0.120 A 
ATOM     21  N   UNL     1       0.312   3.732   5.226  0.00  0.00    -0.239 N 
ATOM     22  N   UNL     1      -0.228   3.835   6.514  0.00  0.00    -0.166 NA
ATOM     23  C   UNL     1      -1.495   3.483   6.456  0.00  0.00    +0.098 A 
BRANCH  23  24
ATOM     24  C   UNL     1      -2.443   3.448   7.598  0.00  0.00    +0.002 A 
ATOM     25  C   UNL     1      -3.749   3.905   7.436  0.00  0.00    +0.010 A 
ATOM     26  C   UNL     1      -4.628   3.865   8.500  0.00  0.00    +0.001 A 
ATOM     27  C   UNL     1      -4.210   3.384   9.728  0.00  0.00    +0.000 A 
ATOM     28  C   UNL     1      -2.913   2.935   9.895  0.00  0.00    +0.001 A 
ATOM     29  C   UNL     1      -2.027   2.965   8.837  0.00  0.00    +0.010 A 
ENDBRANCH  23  24
BRANCH  21  30
ATOM     30  C   UNL     1       1.635   4.017   4.862  0.00  0.00    +0.065 A 
ATOM     31  C   UNL     1       2.042   3.866   3.543  0.00  0.00    +0.028 A 
ATOM     32  C   UNL     1       3.345   4.154   3.187  0.00  0.00    +0.002 A 
ATOM     33  C   UNL     1       4.247   4.581   4.145  0.00  0.00    +0.000 A 
ATOM     34  C   UNL     1       3.846   4.727   5.460  0.00  0.00    +0.002 A 
ATOM     35  C   UNL     1       2.543   4.447   5.821  0.00  0.00    +0.028 A 
ENDBRANCH  21  30
ENDBRANCH   1  19
TORSDOF 8
