REMARK  Name = ZINC09257927
REMARK  7 active torsions:
REMARK  status: ('A' for Active; 'I' for Inactive)
REMARK    1  A    between atoms: C_7  and  C_11
REMARK    2  A    between atoms: C_11  and  C_12
REMARK    3  A    between atoms: C_12  and  N_13
REMARK    4  A    between atoms: C_14  and  C_16
REMARK    5  A    between atoms: C_16  and  N_65
REMARK    6  A    between atoms: N_19  and  S_22
REMARK    7  A    between atoms: S_22  and  C_25
REMARK                            x       y       z     vdW  Elec       q    Type
REMARK                         _______ _______ _______ _____ _____    ______ ____
ROOT
ATOM      1  C   UNL     1      -0.898   1.815  -0.852  0.00  0.00    -0.061 C 
ATOM      2  C   UNL     1      -0.242   1.513   0.499  0.00  0.00    +0.091 C 
ATOM      3  N   UNL     1      -0.993   2.209   1.554  0.00  0.00    -0.180 NA
ATOM      4  C   UNL     1      -1.266   3.645   1.381  0.00  0.00    +0.091 C 
ATOM      5  C   UNL     1      -1.882   3.863  -0.005  0.00  0.00    -0.061 C 
ATOM      6  N   UNL     1      -0.979   3.282  -1.022  0.00  0.00    +0.387 N 
ATOM      7  H   UNL     1      -0.042   3.684  -0.903  0.00  0.00    -0.081 HD
ENDROOT
BRANCH   3   8
ATOM      8  S   UNL     1      -1.523   1.398   2.897  0.00  0.00    +0.061 S 
ATOM      9  O   UNL     1      -2.628   2.132   3.406  0.00  0.00    -0.153 OA
ATOM     10  O   UNL     1      -1.622   0.028   2.532  0.00  0.00    -0.153 OA
BRANCH   8  11
ATOM     11  C   UNL     1      -0.247   1.505   4.108  0.00  0.00    +0.109 A 
ATOM     12  C   UNL     1       0.733   0.532   4.164  0.00  0.00    +0.032 A 
ATOM     13  C   UNL     1       1.740   0.613   5.109  0.00  0.00    +0.051 A 
ATOM     14  C   UNL     1       1.758   1.667   6.005  0.00  0.00    +0.162 A 
ATOM     15  C   UNL     1       0.771   2.642   5.952  0.00  0.00    +0.164 A 
ATOM     16  C   UNL     1      -0.233   2.561   5.002  0.00  0.00    +0.078 A 
ATOM     17  O   UNL     1       0.798   3.678   6.840  0.00  0.00    -0.488 OA
ATOM     18  C   UNL     1       0.538   3.340   8.203  0.00  0.00    +0.232 C 
ATOM     19  C   UNL     1       1.806   2.862   8.893  0.00  0.00    +0.082 C 
ATOM     20  C   UNL     1       2.334   1.565   8.300  0.00  0.00    +0.232 C 
ATOM     21  O   UNL     1       2.744   1.757   6.945  0.00  0.00    -0.488 OA
ENDBRANCH   8  11
ENDBRANCH   3   8
BRANCH   6  22
ATOM     22  C   UNL     1      -1.472   3.606  -2.377  0.00  0.00    +0.019 C 
BRANCH  22  24
ATOM     23  N   UNL     1      -3.552   3.382  -3.697  0.00  0.00    -0.317 N 
ATOM     24  C   UNL     1      -2.874   3.090  -2.569  0.00  0.00    +0.196 C 
ATOM     25  O   UNL     1      -3.393   2.410  -1.709  0.00  0.00    -0.278 OA
ATOM     26  H   UNL     1      -3.136   3.925  -4.385  0.00  0.00    +0.149 HD
BRANCH  23  27
ATOM     27  C   UNL     1      -4.915   2.880  -3.884  0.00  0.00    +0.109 C 
BRANCH  27  28
ATOM     28  C   UNL     1      -5.452   3.352  -5.237  0.00  0.00    +0.056 C 
BRANCH  28  35
ATOM     29  C   UNL     1      -9.661   4.930  -3.907  0.00  0.00    +0.001 A 
ATOM     30  C   UNL     1     -10.701   4.107  -4.317  0.00  0.00    +0.002 A 
ATOM     31  C   UNL     1     -10.448   2.961  -5.038  0.00  0.00    +0.026 A 
ATOM     32  C   UNL     1      -9.138   2.622  -5.359  0.00  0.00    +0.047 A 
ATOM     33  C   UNL     1      -8.087   3.458  -4.941  0.00  0.00    +0.003 A 
ATOM     34  C   UNL     1      -8.367   4.615  -4.211  0.00  0.00    +0.010 A 
ATOM     35  C   UNL     1      -6.854   2.835  -5.428  0.00  0.00    -0.021 A 
ATOM     36  C   UNL     1      -7.212   1.720  -6.084  0.00  0.00    +0.087 A 
ATOM     37  N   UNL     1      -8.572   1.573  -6.048  0.00  0.00    -0.360 N 
ATOM     38  H   UNL     1      -9.064   0.841  -6.452  0.00  0.00    +0.165 HD
ENDBRANCH  28  35
ENDBRANCH  27  28
ENDBRANCH  23  27
ENDBRANCH  22  24
ENDBRANCH   6  22
TORSDOF 7
