REMARK  Name = ZINC20120850
REMARK  14 active torsions:
REMARK  status: ('A' for Active; 'I' for Inactive)
REMARK    1  A    between atoms: C_1  and  C_2
REMARK    2  A    between atoms: C_2  and  C_3
REMARK    3  A    between atoms: C_3  and  C_5
REMARK    4  A    between atoms: C_3  and  N_16
REMARK    5  A    between atoms: N_9  and  C_10
REMARK    6  A    between atoms: C_10  and  C_11
REMARK    7  A    between atoms: C_11  and  O_13
REMARK    8  A    between atoms: O_13  and  C_14
REMARK    9  A    between atoms: C_14  and  C_15
REMARK   10  A    between atoms: N_16  and  C_17
REMARK   11  A    between atoms: N_16  and  C_23
REMARK   12  A    between atoms: C_17  and  C_18
REMARK   13  A    between atoms: C_23  and  C_24
REMARK   14  A    between atoms: C_28  and  C_36
REMARK                            x       y       z     vdW  Elec       q    Type
REMARK                         _______ _______ _______ _____ _____    ______ ____
ROOT
ATOM      1  N   UNL     1      -4.131   3.489   0.358  0.00  0.00    +0.392 N 
ATOM      2  H   UNL     1      -3.560   4.403   0.136  0.00  0.00    -0.080 HD
ENDROOT
BRANCH   1   3
ATOM      3  C   UNL     1      -3.187   2.364   0.391  0.00  0.00    +0.003 C 
BRANCH   3   4
ATOM      4  C   UNL     1      -3.951   1.071   0.512  0.00  0.00    +0.139 A 
ATOM      5  N   UNL     1      -5.008   0.718  -0.180  0.00  0.00    -0.115 NA
ATOM      6  N   UNL     1      -5.371  -0.452   0.218  0.00  0.00    -0.023 NA
ATOM      7  N   UNL     1      -4.571  -0.858   1.141  0.00  0.00    -0.043 NA
ATOM      8  N   UNL     1      -3.680   0.052   1.349  0.00  0.00    -0.220 N 
BRANCH   8   9
ATOM      9  C   UNL     1      -2.583  -0.010   2.317  0.00  0.00    +0.267 C 
BRANCH   9  10
ATOM     10  C   UNL     1      -1.371  -0.624   1.665  0.00  0.00    +0.329 C 
ATOM     11  O   UNL     1      -1.419  -0.975   0.510  0.00  0.00    -0.249 OA
BRANCH  10  12
ATOM     12  O   UNL     1      -0.238  -0.782   2.368  0.00  0.00    -0.464 OA
BRANCH  12  13
ATOM     13  C   UNL     1       0.889  -1.381   1.676  0.00  0.00    +0.229 C 
ATOM     14  C   UNL     1       2.080  -1.479   2.631  0.00  0.00    +0.048 C 
ENDBRANCH  12  13
ENDBRANCH  10  12
ENDBRANCH   9  10
ENDBRANCH   8   9
ENDBRANCH   3   4
BRANCH   3  16
ATOM     15  C   UNL     1      -1.534   3.634  -0.987  0.00  0.00    +0.002 C 
ATOM     16  C   UNL     1      -2.364   2.351  -0.898  0.00  0.00    -0.011 C 
ENDBRANCH   3  16
ENDBRANCH   1   3
BRANCH   1  17
ATOM     17  C   UNL     1      -4.781   3.669   1.663  0.00  0.00    -0.034 C 
BRANCH  17  18
ATOM     18  C   UNL     1      -3.769   4.163   2.664  0.00  0.00    -0.027 A 
ATOM     19  C   UNL     1      -3.470   5.437   3.019  0.00  0.00    +0.009 A 
ATOM     20  C   UNL     1      -2.494   5.655   3.973  0.00  0.00    +0.008 A 
ATOM     21  C   UNL     1      -1.864   4.590   4.526  0.00  0.00    +0.045 A 
ATOM     22  S   UNL     1      -2.658   3.222   3.698  0.00  0.00    -0.103 S 
ENDBRANCH  17  18
ENDBRANCH   1  17
BRANCH   1  23
ATOM     23  C   UNL     1      -5.127   3.310  -0.706  0.00  0.00    -0.036 C 
BRANCH  23  24
ATOM     24  C   UNL     1      -5.800   4.628  -0.992  0.00  0.00    +0.001 A 
ATOM     25  C   UNL     1      -5.343   5.415  -1.997  0.00  0.00    +0.017 A 
ATOM     26  C   UNL     1      -6.018   6.690  -2.249  0.00  0.00    -0.001 A 
ATOM     27  C   UNL     1      -5.593   7.544  -3.272  0.00  0.00    +0.013 A 
ATOM     28  C   UNL     1      -6.245   8.726  -3.481  0.00  0.00    -0.050 A 
ATOM     29  C   UNL     1      -7.326   9.087  -2.689  0.00  0.00    +0.005 A 
ATOM     30  C   UNL     1      -7.762   8.261  -1.676  0.00  0.00    +0.026 A 
ATOM     31  C   UNL     1      -7.114   7.052  -1.443  0.00  0.00    +0.049 A 
ATOM     32  N   UNL     1      -7.530   6.206  -0.438  0.00  0.00    -0.322 N 
ATOM     33  H   UNL     1      -8.383   6.485   0.198  0.00  0.00    +0.169 HD
ATOM     34  C   UNL     1      -6.907   5.035  -0.217  0.00  0.00    +0.251 A 
ATOM     35  O   UNL     1      -7.304   4.310   0.678  0.00  0.00    -0.268 OA
ATOM     36  C   UNL     1      -5.786   9.647  -4.583  0.00  0.00    +0.044 C 
ENDBRANCH  23  24
ENDBRANCH   1  23
TORSDOF 11
