REMARK  Name = ZINC60032154
REMARK  10 active torsions:
REMARK  status: ('A' for Active; 'I' for Inactive)
REMARK    1  A    between atoms: C_1  and  C_2
REMARK    2  A    between atoms: C_2  and  C_3
REMARK    3  A    between atoms: C_6  and  C_9
REMARK    4  A    between atoms: C_9  and  C_11
REMARK    5  A    between atoms: C_9  and  N_33
REMARK    6  A    between atoms: C_11  and  N_12
REMARK    7  A    between atoms: C_13  and  C_15
REMARK    8  A    between atoms: C_21  and  C_23
REMARK    9  A    between atoms: N_33  and  C_34
REMARK   10  A    between atoms: N_33  and  C_35
REMARK                            x       y       z     vdW  Elec       q    Type
REMARK                         _______ _______ _______ _____ _____    ______ ____
ROOT
ATOM      1  N   UNL     1       3.620  -3.718  -5.845  0.00  0.00    -0.315 N 
ATOM      2  C   UNL     1       3.878  -5.005  -6.152  0.00  0.00    +0.234 C 
ATOM      3  O   UNL     1       3.572  -5.886  -5.377  0.00  0.00    -0.274 OA
ATOM      4  H   UNL     1       3.864  -3.013  -6.464  0.00  0.00    +0.149 HD
ENDROOT
BRANCH   2   5
ATOM      5  C   UNL     1       4.546  -5.348  -7.458  0.00  0.00    +0.173 C 
ATOM      6  C   UNL     1       3.671  -4.806  -8.615  0.00  0.00    +0.102 C 
ATOM      7  S   UNL     1       3.879  -6.174  -9.841  0.00  0.00    -0.139 S 
ATOM      8  C   UNL     1       4.129  -7.524  -8.605  0.00  0.00    +0.178 C 
ATOM      9  N   UNL     1       4.768  -6.784  -7.499  0.00  0.00    -0.276 N 
ATOM     10  C   UNL     1       5.521  -7.411  -6.574  0.00  0.00    +0.250 C 
ATOM     11  O   UNL     1       6.122  -6.764  -5.738  0.00  0.00    -0.270 OA
BRANCH  10  12
ATOM     12  C   UNL     1       5.617  -8.877  -6.576  0.00  0.00    +0.062 A 
ATOM     13  C   UNL     1       4.702  -9.754  -7.081  0.00  0.00    +0.096 A 
ATOM     14  N   UNL     1       5.137 -11.024  -6.900  0.00  0.00    -0.360 N 
ATOM     15  H   UNL     1       4.655 -11.819  -7.178  0.00  0.00    +0.165 HD
ATOM     16  C   UNL     1       6.362 -11.028  -6.265  0.00  0.00    +0.047 A 
ATOM     17  C   UNL     1       6.723  -9.690  -6.038  0.00  0.00    +0.012 A 
ATOM     18  C   UNL     1       7.929  -9.389  -5.411  0.00  0.00    +0.011 A 
ATOM     19  C   UNL     1       8.767 -10.410  -5.018  0.00  0.00    +0.001 A 
ATOM     20  C   UNL     1       8.414 -11.732  -5.245  0.00  0.00    +0.002 A 
ATOM     21  C   UNL     1       7.219 -12.045  -5.856  0.00  0.00    +0.026 A 
ENDBRANCH  10  12
ENDBRANCH   2   5
BRANCH   1  22
ATOM     22  C   UNL     1       2.970  -3.385  -4.574  0.00  0.00    +0.093 C 
BRANCH  22  23
ATOM     23  C   UNL     1       2.681  -1.883  -4.529  0.00  0.00    -0.021 C 
BRANCH  23  27
ATOM     24  C   UNL     1       0.049  -0.844  -7.729  0.00  0.00    -0.048 A 
ATOM     25  C   UNL     1       1.406  -0.613  -7.848  0.00  0.00    +0.004 A 
ATOM     26  C   UNL     1       2.258  -0.949  -6.812  0.00  0.00    +0.002 A 
ATOM     27  C   UNL     1       1.752  -1.516  -5.657  0.00  0.00    -0.059 A 
ATOM     28  C   UNL     1       0.395  -1.746  -5.538  0.00  0.00    +0.002 A 
ATOM     29  C   UNL     1      -0.458  -1.407  -6.572  0.00  0.00    +0.004 A 
BRANCH  24  31
ATOM     30  C   UNL     1      -1.363   0.962  -8.675  0.00  0.00    +0.009 C 
ATOM     31  C   UNL     1      -0.880  -0.478  -8.858  0.00  0.00    +0.032 C 
ENDBRANCH  24  31
ENDBRANCH  23  27
BRANCH  23  32
ATOM     32  N   UNL     1       2.050  -1.544  -3.246  0.00  0.00    +0.382 N 
ATOM     33  C   UNL     1       2.998  -1.797  -2.153  0.00  0.00    -0.096 C 
ATOM     34  C   UNL     1       1.669  -0.126  -3.247  0.00  0.00    -0.096 C 
ATOM     35  H   UNL     1       1.227  -2.113  -3.115  0.00  0.00    -0.082 HD
ENDBRANCH  23  32
ENDBRANCH  22  23
ENDBRANCH   1  22
TORSDOF 7
