REMARK  Name = ZINC37059826
REMARK  8 active torsions:
REMARK  status: ('A' for Active; 'I' for Inactive)
REMARK    1  A    between atoms: C_1  and  C_2
REMARK    2  A    between atoms: C_5  and  N_11
REMARK    3  A    between atoms: C_6  and  N_8
REMARK    4  A    between atoms: N_11  and  C_12
REMARK    5  A    between atoms: C_12  and  C_14
REMARK    6  A    between atoms: C_12  and  C_15
REMARK    7  A    between atoms: C_18  and  O_22
REMARK    8  A    between atoms: C_20  and  O_21
REMARK                            x       y       z     vdW  Elec       q    Type
REMARK                         _______ _______ _______ _____ _____    ______ ____
ROOT
ATOM      1  N   UNL     1       0.515  -3.710   0.318  0.00  0.00    -0.335 N 
ATOM      2  H   UNL     1       0.555  -4.124   1.194  0.00  0.00    +0.147 HD
ENDROOT
BRANCH   1   7
ATOM      3  C   UNL     1      -0.601   1.830  -0.153  0.00  0.00    +0.044 C 
ATOM      4  C   UNL     1      -0.304   0.357  -0.028  0.00  0.00    -0.048 A 
ATOM      5  C   UNL     1       0.049  -0.373  -1.148  0.00  0.00    +0.005 A 
ATOM      6  C   UNL     1       0.322  -1.722  -1.037  0.00  0.00    +0.025 A 
ATOM      7  C   UNL     1       0.241  -2.346   0.202  0.00  0.00    +0.058 A 
ATOM      8  C   UNL     1      -0.114  -1.609   1.325  0.00  0.00    +0.147 A 
ATOM      9  C   UNL     1      -0.381  -0.259   1.207  0.00  0.00    +0.038 A 
BRANCH   8  10
ATOM     10  N   UNL     1      -0.202  -2.270   2.646  0.00  0.00    +0.058 N 
ATOM     11  O   UNL     1      -0.650  -3.389   2.734  0.00  0.00    -0.126 OA
ATOM     12  O   UNL     1       0.174  -1.690   3.638  0.00  0.00    -0.126 OA
ENDBRANCH   8  10
ENDBRANCH   1   7
BRANCH   1  13
ATOM     13  C   UNL     1       0.744  -4.516  -0.884  0.00  0.00    +0.101 C 
ATOM     14  C   UNL     1       2.223  -4.449  -1.270  0.00  0.00    +0.033 C 
BRANCH  13  15
ATOM     15  C   UNL     1       0.361  -5.947  -0.610  0.00  0.00    +0.014 A 
ATOM     16  C   UNL     1       0.446  -6.451   0.674  0.00  0.00    +0.012 A 
ATOM     17  C   UNL     1       0.096  -7.763   0.929  0.00  0.00    +0.046 A 
ATOM     18  C   UNL     1      -0.343  -8.578  -0.104  0.00  0.00    +0.120 A 
ATOM     19  C   UNL     1      -0.430  -8.076  -1.393  0.00  0.00    +0.091 A 
ATOM     20  C   UNL     1      -0.083  -6.757  -1.646  0.00  0.00    +0.125 A 
BRANCH  20  21
ATOM     21  O   UNL     1      -0.172  -6.260  -2.907  0.00  0.00    -0.506 OA
ATOM     22  H   UNL     1       0.633  -6.369  -3.431  0.00  0.00    +0.292 HD
ENDBRANCH  20  21
BRANCH  18  23
ATOM     23  O   UNL     1      -0.687  -9.869   0.147  0.00  0.00    -0.507 OA
ATOM     24  H   UNL     1      -1.619  -9.990   0.374  0.00  0.00    +0.292 HD
ENDBRANCH  18  23
ENDBRANCH  13  15
ENDBRANCH   1  13
TORSDOF 6
