REMARK  Name = ZINC12316940
REMARK  13 active torsions:
REMARK  status: ('A' for Active; 'I' for Inactive)
REMARK    1  A    between atoms: C_1  and  C_2
REMARK    2  A    between atoms: C_2  and  C_3
REMARK    3  A    between atoms: C_3  and  C_4
REMARK    4  A    between atoms: C_4  and  N_5
REMARK    5  A    between atoms: C_6  and  C_15
REMARK    6  A    between atoms: C_9  and  S_10
REMARK    7  A    between atoms: S_10  and  C_13
REMARK    8  A    between atoms: C_13  and  C_14
REMARK    9  A    between atoms: C_15  and  N_57
REMARK   10  A    between atoms: C_16  and  N_57
REMARK   11  A    between atoms: C_17  and  C_18
REMARK   12  A    between atoms: C_17  and  N_57
REMARK   13  A    between atoms: C_18  and  C_19
REMARK                            x       y       z     vdW  Elec       q    Type
REMARK                         _______ _______ _______ _____ _____    ______ ____
ROOT
ATOM      1  C   UNL     1       0.002  -0.004   0.002  0.00  0.00    -0.096 C 
ATOM      2  N   UNL     1      -0.030   1.473   0.034  0.00  0.00    +0.382 N 
ATOM      3  H   UNL     1      -0.486   1.778   0.903  0.00  0.00    -0.082 HD
ENDROOT
BRANCH   2   4
ATOM      4  C   UNL     1       1.346   2.010   0.000  0.00  0.00    -0.023 C 
BRANCH   4   6
ATOM      5  N   UNL     1       1.973   2.345   2.470  0.00  0.00    -0.315 N 
ATOM      6  C   UNL     1       2.039   1.654   1.290  0.00  0.00    +0.023 A 
ATOM      7  C   UNL     1       2.847   0.597   1.502  0.00  0.00    +0.133 A 
ATOM      8  N   UNL     1       3.259   0.639   2.778  0.00  0.00    -0.220 NA
ATOM      9  C   UNL     1       2.737   1.682   3.364  0.00  0.00    +0.251 A 
BRANCH   9  10
ATOM     10  S   UNL     1       2.992   2.151   5.043  0.00  0.00    +0.030 S 
ATOM     11  O   UNL     1       1.833   2.894   5.393  0.00  0.00    -0.166 OA
ATOM     12  O   UNL     1       3.305   0.938   5.715  0.00  0.00    -0.166 OA
BRANCH  10  13
ATOM     13  C   UNL     1       4.445   3.237   5.008  0.00  0.00    +0.172 C 
ATOM     14  C   UNL     1       4.762   3.710   6.428  0.00  0.00    +0.028 C 
ENDBRANCH  10  13
ENDBRANCH   9  10
BRANCH   5  15
ATOM     15  C   UNL     1       1.213   3.573   2.716  0.00  0.00    +0.125 C 
BRANCH  15  16
ATOM     16  C   UNL     1      -0.194   3.214   3.199  0.00  0.00    +0.021 C 
BRANCH  16  18
ATOM     17  C   UNL     1      -2.394   4.138   3.938  0.00  0.00    +0.004 C 
ATOM     18  C   UNL     1      -0.987   4.497   3.456  0.00  0.00    -0.002 C 
ENDBRANCH  16  18
ENDBRANCH  15  16
ENDBRANCH   5  15
ENDBRANCH   4   6
ENDBRANCH   2   4
BRANCH   2  19
ATOM     19  C   UNL     1      -0.802   1.987  -1.117  0.00  0.00    -0.071 C 
BRANCH  19  20
ATOM     20  C   UNL     1      -2.272   1.602  -0.938  0.00  0.00    +0.056 C 
BRANCH  20  21
ATOM     21  C   UNL     1      -3.076   2.138  -2.095  0.00  0.00    +0.106 A 
ATOM     22  N   UNL     1      -3.876   1.389  -2.900  0.00  0.00    -0.342 N 
ATOM     23  H   UNL     1      -4.031   0.403  -2.831  0.00  0.00    +0.167 HD
ATOM     24  C   UNL     1      -4.434   2.242  -3.832  0.00  0.00    +0.066 A 
ATOM     25  C   UNL     1      -5.314   2.071  -4.892  0.00  0.00    +0.029 A 
ATOM     26  C   UNL     1      -5.689   3.156  -5.654  0.00  0.00    +0.022 A 
ATOM     27  C   UNL     1      -5.193   4.421  -5.369  0.00  0.00    +0.043 A 
ATOM     28  C   UNL     1      -4.319   4.610  -4.321  0.00  0.00    +0.050 A 
ATOM     29  C   UNL     1      -3.929   3.519  -3.539  0.00  0.00    +0.090 A 
ATOM     30  N   UNL     1      -3.110   3.385  -2.464  0.00  0.00    -0.233 NA
ATOM     31 CL   UNL     1      -5.677   5.776  -6.341  0.00  0.00    -0.083 Cl
ENDBRANCH  20  21
ENDBRANCH  19  20
ENDBRANCH   2  19
TORSDOF 10
