REMARK  Name = ZINC57875414
REMARK  6 active torsions:
REMARK  status: ('A' for Active; 'I' for Inactive)
REMARK    1  A    between atoms: C_1  and  C_2
REMARK    2  A    between atoms: C_2  and  C_3
REMARK    3  A    between atoms: N_11  and  C_14
REMARK    4  A    between atoms: C_14  and  C_15
REMARK    5  A    between atoms: C_18  and  C_21
REMARK    6  A    between atoms: C_21  and  N_22
REMARK                            x       y       z     vdW  Elec       q    Type
REMARK                         _______ _______ _______ _____ _____    ______ ____
ROOT
ATOM      1  C   UNL     1       0.707  -0.490  -1.238  0.00  0.00    -0.047 A 
ATOM      2  C   UNL     1      -0.023  -0.717  -2.397  0.00  0.00    +0.004 A 
ATOM      3  C   UNL     1       0.589  -1.158  -3.538  0.00  0.00    +0.014 A 
ATOM      4  C   UNL     1       1.966  -1.383  -3.535  0.00  0.00    +0.047 A 
ATOM      5  C   UNL     1       2.710  -1.152  -2.355  0.00  0.00    -0.011 A 
ATOM      6  C   UNL     1       2.059  -0.697  -1.208  0.00  0.00    +0.012 A 
ATOM      7  C   UNL     1       4.152  -1.398  -2.384  0.00  0.00    +0.026 A 
ATOM      8  C   UNL     1       4.725  -1.831  -3.518  0.00  0.00    +0.090 A 
ATOM      9  N   UNL     1       4.011  -2.054  -4.660  0.00  0.00    -0.310 N 
ATOM     10  C   UNL     1       2.679  -1.856  -4.726  0.00  0.00    +0.259 A 
ATOM     11  O   UNL     1       2.076  -2.066  -5.763  0.00  0.00    -0.267 OA
ENDROOT
BRANCH   1  13
ATOM     12  C   UNL     1      -0.019   1.526   0.010  0.00  0.00    +0.009 C 
ATOM     13  C   UNL     1       0.002  -0.004   0.002  0.00  0.00    +0.032 C 
ENDBRANCH   1  13
BRANCH   9  14
ATOM     14  C   UNL     1       4.716  -2.526  -5.855  0.00  0.00    +0.160 C 
BRANCH  14  15
ATOM     15  C   UNL     1       4.737  -4.033  -5.863  0.00  0.00    -0.028 A 
ATOM     16  C   UNL     1       5.776  -4.713  -5.257  0.00  0.00    +0.005 A 
ATOM     17  C   UNL     1       5.796  -6.095  -5.265  0.00  0.00    +0.002 A 
ATOM     18  C   UNL     1       4.775  -6.798  -5.878  0.00  0.00    -0.065 A 
ATOM     19  C   UNL     1       3.735  -6.117  -6.484  0.00  0.00    +0.002 A 
ATOM     20  C   UNL     1       3.713  -4.735  -6.472  0.00  0.00    +0.005 A 
BRANCH  18  21
ATOM     21  C   UNL     1       4.797  -8.304  -5.888  0.00  0.00    -0.051 C 
BRANCH  21  22
ATOM     22  N   UNL     1       4.099  -8.811  -4.698  0.00  0.00    +0.381 N 
ATOM     23  H   UNL     1       4.114  -9.820  -4.705  0.00  0.00    -0.090 HD
ATOM     24  H   UNL     1       4.561  -8.473  -3.868  0.00  0.00    -0.090 HD
ATOM     25  H   UNL     1       3.143  -8.489  -4.706  0.00  0.00    -0.090 HD
ENDBRANCH  21  22
ENDBRANCH  18  21
ENDBRANCH  14  15
ENDBRANCH   9  14
TORSDOF 5
