REMARK  Name = ZINC13495958
REMARK  15 active torsions:
REMARK  status: ('A' for Active; 'I' for Inactive)
REMARK    1  A    between atoms: C_1  and  C_2
REMARK    2  A    between atoms: C_2  and  C_3
REMARK    3  A    between atoms: C_3  and  C_5
REMARK    4  A    between atoms: C_3  and  N_77
REMARK    5  A    between atoms: N_9  and  C_10
REMARK    6  A    between atoms: C_10  and  C_11
REMARK    7  A    between atoms: C_17  and  C_18
REMARK    8  A    between atoms: C_17  and  N_77
REMARK    9  A    between atoms: C_18  and  C_19
REMARK   10  A    between atoms: C_23  and  C_25
REMARK   11  A    between atoms: C_26  and  C_27
REMARK   12  A    between atoms: C_26  and  N_77
REMARK   13  A    between atoms: C_31  and  O_39
REMARK   14  A    between atoms: O_39  and  C_40
REMARK   15  A    between atoms: C_40  and  C_41
REMARK                            x       y       z     vdW  Elec       q    Type
REMARK                         _______ _______ _______ _____ _____    ______ ____
ROOT
ATOM      1  N   UNL     1       4.370   4.430  -1.294  0.00  0.00    +0.389 N 
ATOM      2  H   UNL     1       5.016   3.874  -0.721  0.00  0.00    -0.080 HD
ENDROOT
BRANCH   1   3
ATOM      3  C   UNL     1       4.828   4.399  -2.699  0.00  0.00    +0.003 C 
BRANCH   3   4
ATOM      4  C   UNL     1       4.695   2.994  -3.229  0.00  0.00    +0.138 A 
ATOM      5  N   UNL     1       5.033   1.889  -2.610  0.00  0.00    -0.115 NA
ATOM      6  N   UNL     1       4.765   0.899  -3.389  0.00  0.00    -0.023 NA
ATOM      7  N   UNL     1       4.265   1.343  -4.489  0.00  0.00    -0.044 NA
ATOM      8  N   UNL     1       4.200   2.630  -4.426  0.00  0.00    -0.228 N 
BRANCH   8   9
ATOM      9  C   UNL     1       3.689   3.527  -5.465  0.00  0.00    +0.178 C 
BRANCH   9  10
ATOM     10  C   UNL     1       4.831   3.929  -6.400  0.00  0.00    +0.140 C 
ATOM     11  C   UNL     1       4.327   4.964  -7.428  0.00  0.00    +0.035 C 
ATOM     12  C   UNL     1       5.054   4.520  -8.727  0.00  0.00    +0.031 C 
ATOM     13  C   UNL     1       5.085   2.983  -8.535  0.00  0.00    +0.160 C 
ATOM     14  O   UNL     1       5.290   2.784  -7.128  0.00  0.00    -0.375 OA
ENDBRANCH   9  10
ENDBRANCH   8   9
ENDBRANCH   3   4
BRANCH   3  16
ATOM     15  C   UNL     1       7.130   3.894  -1.867  0.00  0.00    +0.002 C 
ATOM     16  C   UNL     1       6.296   4.826  -2.750  0.00  0.00    -0.011 C 
ENDBRANCH   3  16
ENDBRANCH   1   3
BRANCH   1  17
ATOM     17  C   UNL     1       3.015   3.850  -1.191  0.00  0.00    -0.073 C 
BRANCH  17  18
ATOM     18  C   UNL     1       2.671   3.659   0.287  0.00  0.00    +0.016 C 
BRANCH  18  19
ATOM     19  C   UNL     1       1.355   2.934   0.407  0.00  0.00    -0.049 A 
ATOM     20  C   UNL     1       1.320   1.553   0.358  0.00  0.00    +0.003 A 
ATOM     21  C   UNL     1       0.113   0.888   0.469  0.00  0.00    +0.001 A 
ATOM     22  C   UNL     1      -1.059   1.605   0.624  0.00  0.00    +0.003 A 
ATOM     23  C   UNL     1      -1.023   2.986   0.678  0.00  0.00    -0.050 A 
ATOM     24  C   UNL     1       0.184   3.650   0.568  0.00  0.00    +0.007 A 
ATOM     25  C   UNL     1      -2.300   3.766   0.852  0.00  0.00    +0.044 C 
ENDBRANCH  18  19
ENDBRANCH  17  18
ENDBRANCH   1  17
BRANCH   1  26
ATOM     26  C   UNL     1       4.363   5.822  -0.796  0.00  0.00    -0.037 C 
BRANCH  26  27
ATOM     27  C   UNL     1       3.304   6.630  -1.501  0.00  0.00    +0.001 A 
ATOM     28  C   UNL     1       2.071   6.754  -0.951  0.00  0.00    +0.017 A 
ATOM     29  C   UNL     1       1.066   7.550  -1.658  0.00  0.00    +0.002 A 
ATOM     30  C   UNL     1      -0.220   7.718  -1.135  0.00  0.00    +0.055 A 
ATOM     31  C   UNL     1      -1.145   8.472  -1.829  0.00  0.00    +0.121 A 
ATOM     32  C   UNL     1      -0.801   9.062  -3.044  0.00  0.00    +0.047 A 
ATOM     33  C   UNL     1       0.462   8.903  -3.569  0.00  0.00    +0.030 A 
ATOM     34  C   UNL     1       1.409   8.148  -2.885  0.00  0.00    +0.049 A 
ATOM     35  N   UNL     1       2.680   7.978  -3.394  0.00  0.00    -0.322 N 
ATOM     36  H   UNL     1       2.915   8.390  -4.240  0.00  0.00    +0.169 HD
ATOM     37  C   UNL     1       3.598   7.249  -2.735  0.00  0.00    +0.251 A 
ATOM     38  O   UNL     1       4.711   7.120  -3.215  0.00  0.00    -0.268 OA
BRANCH  31  39
ATOM     39  O   UNL     1      -2.397   8.638  -1.326  0.00  0.00    -0.492 OA
BRANCH  39  40
ATOM     40  C   UNL     1      -3.305   9.429  -2.095  0.00  0.00    +0.225 C 
ATOM     41  C   UNL     1      -4.653   9.503  -1.375  0.00  0.00    +0.048 C 
ENDBRANCH  39  40
ENDBRANCH  31  39
ENDBRANCH  26  27
ENDBRANCH   1  26
TORSDOF 12
