REMARK  Name = ZINC62828657
REMARK  6 active torsions:
REMARK  status: ('A' for Active; 'I' for Inactive)
REMARK    1  A    between atoms: C_1  and  C_2
REMARK    2  A    between atoms: C_2  and  C_4
REMARK    3  A    between atoms: C_2  and  O_22
REMARK    4  A    between atoms: C_9  and  N_10
REMARK    5  A    between atoms: N_13  and  C_14
REMARK    6  A    between atoms: C_15  and  C_19
REMARK                            x       y       z     vdW  Elec       q    Type
REMARK                         _______ _______ _______ _____ _____    ______ ____
ROOT
ATOM      1  N   UNL     1      -1.505  -0.314  -2.391  0.00  0.00    -0.269 N 
ATOM      2  C   UNL     1      -1.775  -1.022  -3.506  0.00  0.00    +0.309 C 
ATOM      3  O   UNL     1      -2.612  -1.903  -3.480  0.00  0.00    -0.252 OA
ATOM      4  N   UNL     1      -1.116  -0.753  -4.651  0.00  0.00    -0.263 N 
ATOM      5  H   UNL     1      -0.885   0.431  -2.428  0.00  0.00    +0.156 HD
ATOM      6  H   UNL     1      -0.448  -0.050  -4.672  0.00  0.00    +0.157 HD
ENDROOT
BRANCH   1  12
ATOM      7  C   UNL     1      -1.427  -0.516   0.014  0.00  0.00    +0.002 A 
ATOM      8  C   UNL     1      -2.038  -0.848   1.208  0.00  0.00    +0.008 A 
ATOM      9  C   UNL     1      -3.336  -1.323   1.212  0.00  0.00    +0.000 A 
ATOM     10  C   UNL     1      -4.027  -1.468   0.023  0.00  0.00    +0.002 A 
ATOM     11  C   UNL     1      -3.422  -1.139  -1.173  0.00  0.00    +0.024 A 
ATOM     12  C   UNL     1      -2.120  -0.655  -1.181  0.00  0.00    +0.040 A 
BRANCH   7  14
ATOM     13  C   UNL     1      -0.028   1.531   0.012  0.00  0.00    +0.043 C 
ATOM     14  C   UNL     1      -0.011   0.001   0.010  0.00  0.00    +0.143 C 
BRANCH  14  15
ATOM     15  O   UNL     1       0.672  -0.470   1.173  0.00  0.00    -0.387 OA
ATOM     16  H   UNL     1       1.590  -0.174   1.236  0.00  0.00    +0.210 HD
ENDBRANCH  14  15
ENDBRANCH   7  14
ENDBRANCH   1  12
BRANCH   4  17
ATOM     17  C   UNL     1      -1.393  -1.480  -5.796  0.00  0.00    +0.087 A 
ATOM     18  C   UNL     1      -0.814  -1.347  -7.054  0.00  0.00    +0.092 A 
ATOM     19  C   UNL     1      -1.295  -2.245  -8.082  0.00  0.00    +0.024 A 
ATOM     20  C   UNL     1      -2.252  -3.110  -7.704  0.00  0.00    +0.048 A 
ATOM     21  S   UNL     1      -2.498  -2.728  -5.984  0.00  0.00    -0.081 S 
BRANCH  18  22
ATOM     22  C   UNL     1       0.192  -0.384  -7.315  0.00  0.00    +0.389 C 
ATOM     23  O   UNL     1       0.679  -0.295  -8.435  0.00  0.00    -0.241 OA
ATOM     24  O   UNL     1       0.575   0.360  -6.420  0.00  0.00    -0.241 OA
ENDBRANCH  18  22
ENDBRANCH   4  17
TORSDOF 5
