REMARK  Name = ZINC40019584
REMARK  21 active torsions:
REMARK  status: ('A' for Active; 'I' for Inactive)
REMARK    1  A    between atoms: C_1  and  C_2
REMARK    2  A    between atoms: C_2  and  C_3
REMARK    3  A    between atoms: C_3  and  C_4
REMARK    4  A    between atoms: C_4  and  N_5
REMARK    5  A    between atoms: N_5  and  C_6
REMARK    6  A    between atoms: N_5  and  C_10
REMARK    7  A    between atoms: C_6  and  C_7
REMARK    8  A    between atoms: C_7  and  C_8
REMARK    9  A    between atoms: C_8  and  C_9
REMARK   10  A    between atoms: C_10  and  C_11
REMARK   11  A    between atoms: C_11  and  C_12
REMARK   12  A    between atoms: C_12  and  N_13
REMARK   13  A    between atoms: C_14  and  C_35
REMARK   14  A    between atoms: C_16  and  C_21
REMARK   15  A    between atoms: C_21  and  C_23
REMARK   16  A    between atoms: C_26  and  O_30
REMARK   17  A    between atoms: C_27  and  C_29
REMARK   18  A    between atoms: O_30  and  C_31
REMARK   19  A    between atoms: C_31  and  C_32
REMARK   20  A    between atoms: C_32  and  C_33
REMARK   21  A    between atoms: C_32  and  C_34
REMARK                            x       y       z     vdW  Elec       q    Type
REMARK                         _______ _______ _______ _____ _____    ______ ____
ROOT
ATOM      1  N   UNL     1      -2.486  -6.444  -3.702  0.00  0.00    -0.284 N 
ATOM      2  C   UNL     1      -3.606  -6.735  -2.799  0.00  0.00    +0.145 C 
ATOM      3  C   UNL     1      -4.764  -7.140  -3.680  0.00  0.00    +0.076 C 
ATOM      4  C   UNL     1      -4.322  -7.079  -4.958  0.00  0.00    +0.249 C 
ATOM      5  C   UNL     1      -2.911  -6.641  -4.963  0.00  0.00    +0.288 C 
ATOM      6  O   UNL     1      -2.233  -6.485  -5.960  0.00  0.00    -0.266 OA
ATOM      7  O   UNL     1      -5.058  -7.369  -6.056  0.00  0.00    -0.282 OA
ENDROOT
BRANCH   2   8
ATOM      8  C   UNL     1      -3.963  -5.505  -2.005  0.00  0.00    -0.022 A 
ATOM      9  C   UNL     1      -4.163  -4.299  -2.651  0.00  0.00    +0.006 A 
ATOM     10  C   UNL     1      -4.491  -3.171  -1.922  0.00  0.00    +0.000 A 
ATOM     11  C   UNL     1      -4.619  -3.248  -0.548  0.00  0.00    +0.000 A 
ATOM     12  C   UNL     1      -4.420  -4.454   0.098  0.00  0.00    +0.000 A 
ATOM     13  C   UNL     1      -4.096  -5.583  -0.631  0.00  0.00    +0.006 A 
ENDBRANCH   2   8
BRANCH   3  14
ATOM     14  C   UNL     1      -6.107  -7.526  -3.236  0.00  0.00    +0.195 C 
ATOM     15  O   UNL     1      -7.063  -6.822  -3.507  0.00  0.00    -0.287 OA
BRANCH  14  16
ATOM     16  C   UNL     1      -6.301  -8.767  -2.461  0.00  0.00    +0.023 A 
ATOM     17  C   UNL     1      -5.210  -9.597  -2.182  0.00  0.00    +0.015 A 
ATOM     18  C   UNL     1      -5.395 -10.753  -1.459  0.00  0.00    +0.046 A 
ATOM     19  C   UNL     1      -6.664 -11.097  -1.007  0.00  0.00    +0.123 A 
ATOM     20  C   UNL     1      -7.751 -10.275  -1.282  0.00  0.00    -0.008 A 
ATOM     21  C   UNL     1      -7.574  -9.113  -1.999  0.00  0.00    +0.018 A 
ATOM     22  C   UNL     1      -9.124 -10.653  -0.790  0.00  0.00    +0.047 C 
BRANCH  19  23
ATOM     23  O   UNL     1      -6.843 -12.239  -0.295  0.00  0.00    -0.491 OA
BRANCH  23  24
ATOM     24  C   UNL     1      -5.683 -13.037  -0.049  0.00  0.00    +0.232 C 
BRANCH  24  25
ATOM     25  C   UNL     1      -6.078 -14.273   0.761  0.00  0.00    +0.020 C 
ATOM     26  C   UNL     1      -7.007 -15.156  -0.075  0.00  0.00    +0.010 C 
ATOM     27  C   UNL     1      -4.822 -15.063   1.132  0.00  0.00    +0.010 C 
ENDBRANCH  24  25
ENDBRANCH  23  24
ENDBRANCH  19  23
ENDBRANCH  14  16
ENDBRANCH   3  14
BRANCH   1  28
ATOM     28  C   UNL     1      -1.145  -6.011  -3.302  0.00  0.00    +0.107 C 
BRANCH  28  29
ATOM     29  C   UNL     1      -1.102  -4.483  -3.235  0.00  0.00    +0.000 C 
BRANCH  29  30
ATOM     30  C   UNL     1       0.298  -4.030  -2.817  0.00  0.00    -0.077 C 
BRANCH  30  31
ATOM     31  N   UNL     1       0.340  -2.563  -2.753  0.00  0.00    +0.380 N 
ATOM     32  H   UNL     1       0.040  -2.179  -3.637  0.00  0.00    -0.082 HD
BRANCH  31  33
ATOM     33  C   UNL     1       1.713  -2.124  -2.469  0.00  0.00    -0.079 C 
BRANCH  33  34
ATOM     34  C   UNL     1       2.619  -2.487  -3.648  0.00  0.00    -0.019 C 
BRANCH  34  35
ATOM     35  C   UNL     1       4.018  -1.916  -3.410  0.00  0.00    -0.005 C 
ATOM     36  C   UNL     1       4.924  -2.279  -4.589  0.00  0.00    +0.004 C 
ENDBRANCH  34  35
ENDBRANCH  33  34
ENDBRANCH  31  33
BRANCH  31  37
ATOM     37  C   UNL     1      -0.555  -2.094  -1.687  0.00  0.00    -0.079 C 
BRANCH  37  38
ATOM     38  C   UNL     1      -0.620  -0.565  -1.712  0.00  0.00    -0.019 C 
BRANCH  38  40
ATOM     39  C   UNL     1      -1.717   1.446  -0.716  0.00  0.00    +0.004 C 
ATOM     40  C   UNL     1      -1.651  -0.082  -0.690  0.00  0.00    -0.005 C 
ENDBRANCH  38  40
ENDBRANCH  37  38
ENDBRANCH  31  37
ENDBRANCH  30  31
ENDBRANCH  29  30
ENDBRANCH  28  29
ENDBRANCH   1  28
TORSDOF 16
