REMARK  Name = ZINC09060294
REMARK  10 active torsions:
REMARK  status: ('A' for Active; 'I' for Inactive)
REMARK    1  A    between atoms: C_1  and  C_2
REMARK    2  A    between atoms: C_6  and  O_25
REMARK    3  A    between atoms: C_12  and  C_13
REMARK    4  A    between atoms: C_13  and  C_14
REMARK    5  A    between atoms: N_16  and  C_17
REMARK    6  A    between atoms: C_17  and  C_18
REMARK    7  A    between atoms: C_18  and  C_19
REMARK    8  A    between atoms: O_25  and  C_26
REMARK    9  A    between atoms: C_26  and  C_27
REMARK   10  A    between atoms: C_27  and  C_29
REMARK                            x       y       z     vdW  Elec       q    Type
REMARK                         _______ _______ _______ _____ _____    ______ ____
ROOT
ATOM      1  C   UNL     1      -0.018   1.503   0.010  0.00  0.00    +0.045 C 
ATOM      2  C   UNL     1       0.002  -0.004   0.002  0.00  0.00    -0.029 A 
ATOM      3  C   UNL     1       0.006  -0.749  -1.258  0.00  0.00    +0.022 A 
ATOM      4  C   UNL     1      -0.008  -0.083  -2.490  0.00  0.00    +0.035 A 
ATOM      5  C   UNL     1      -0.003  -0.802  -3.650  0.00  0.00    +0.083 A 
ATOM      6  C   UNL     1       0.016  -2.196  -3.617  0.00  0.00    +0.143 A 
ATOM      7  C   UNL     1       0.030  -2.871  -2.408  0.00  0.00    +0.094 A 
ATOM      8  C   UNL     1       0.026  -2.156  -1.219  0.00  0.00    +0.143 A 
ATOM      9  O   UNL     1       0.041  -2.795  -0.029  0.00  0.00    -0.422 OA
ATOM     10  C   UNL     1       0.038  -2.117   1.129  0.00  0.00    +0.341 A 
ATOM     11  O   UNL     1       0.052  -2.736   2.178  0.00  0.00    -0.245 OA
ATOM     12  C   UNL     1       0.023  -0.708   1.164  0.00  0.00    +0.049 A 
ATOM     13 CL   UNL     1      -0.021   0.024  -5.177  0.00  0.00    -0.080 Cl
ENDROOT
BRANCH  12  14
ATOM     14  C   UNL     1       0.025   0.016   2.486  0.00  0.00    +0.138 C 
BRANCH  14  15
ATOM     15  C   UNL     1      -1.388   0.129   2.999  0.00  0.00    +0.218 C 
ATOM     16  O   UNL     1      -2.306  -0.333   2.355  0.00  0.00    -0.275 OA
ATOM     17  N   UNL     1      -1.631   0.743   4.174  0.00  0.00    -0.315 N 
ATOM     18  H   UNL     1      -0.896   1.112   4.689  0.00  0.00    +0.149 HD
BRANCH  17  19
ATOM     19  C   UNL     1      -3.004   0.852   4.673  0.00  0.00    +0.110 C 
BRANCH  19  20
ATOM     20  C   UNL     1      -3.002   1.587   6.015  0.00  0.00    +0.073 C 
BRANCH  20  21
ATOM     21  C   UNL     1      -4.414   1.700   6.528  0.00  0.00    +0.035 A 
ATOM     22  C   UNL     1      -5.311   2.651   6.206  0.00  0.00    +0.105 A 
ATOM     23  N   UNL     1      -6.446   2.394   6.874  0.00  0.00    -0.352 N 
ATOM     24  C   UNL     1      -6.285   1.320   7.598  0.00  0.00    +0.171 A 
ATOM     25  N   UNL     1      -5.033   0.852   7.406  0.00  0.00    -0.350 N 
ATOM     26  H   UNL     1      -4.645   0.063   7.816  0.00  0.00    +0.166 HD
ATOM     27  H   UNL     1      -7.257   2.924   6.827  0.00  0.00    +0.166 HD
ENDBRANCH  20  21
ENDBRANCH  19  20
ENDBRANCH  17  19
ENDBRANCH  14  15
ENDBRANCH  12  14
BRANCH   6  28
ATOM     28  O   UNL     1       0.019  -2.897  -4.779  0.00  0.00    -0.486 OA
BRANCH  28  29
ATOM     29  C   UNL     1       0.039  -4.323  -4.677  0.00  0.00    +0.259 C 
BRANCH  29  30
ATOM     30  C   UNL     1       0.041  -4.926  -6.058  0.00  0.00    -0.043 C 
ATOM     31  C   UNL     1       0.025  -4.148  -7.112  0.00  0.00    +0.011 C 
ATOM     32  C   UNL     1       0.060  -6.423  -6.227  0.00  0.00    +0.042 C 
ENDBRANCH  29  30
ENDBRANCH  28  29
ENDBRANCH   6  28
TORSDOF 8
