REMARK  Name = ZINC02130248
REMARK  4 active torsions:
REMARK  status: ('A' for Active; 'I' for Inactive)
REMARK    1  A    between atoms: C_1  and  C_2
REMARK    2  A    between atoms: C_2  and  C_3
REMARK    3  A    between atoms: C_6  and  C_9
REMARK    4  A    between atoms: C_19  and  C_30
REMARK                            x       y       z     vdW  Elec       q    Type
REMARK                         _______ _______ _______ _____ _____    ______ ____
ROOT
ATOM      1  C   UNL     1       4.277   3.251  -0.010  0.00  0.00    +0.069 C 
ATOM      2  C   UNL     1       5.741   3.222  -0.466  0.00  0.00    +0.122 C 
ATOM      3  N   UNL     1       6.432   2.117   0.223  0.00  0.00    -0.280 N 
ATOM      4  C   UNL     1       7.412   2.412   1.065  0.00  0.00    +0.234 C 
ATOM      5  O   UNL     1       7.800   3.560   1.115  0.00  0.00    -0.274 OA
ATOM      6  C   UNL     1       8.062   1.415   1.969  0.00  0.00    +0.200 C 
ATOM      7  N   UNL     1       7.475   0.092   1.838  0.00  0.00    -0.305 N 
ATOM      8  C   UNL     1       6.546  -0.219   0.934  0.00  0.00    +0.243 C 
ATOM      9  O   UNL     1       6.124  -1.356   0.917  0.00  0.00    -0.273 OA
ATOM     10  C   UNL     1       5.995   0.750  -0.059  0.00  0.00    +0.151 C 
ATOM     11  C   UNL     1       4.485   0.727  -0.040  0.00  0.00    +0.054 A 
ATOM     12  C   UNL     1       3.729   1.847  -0.022  0.00  0.00    -0.008 A 
ATOM     13  C   UNL     1       2.344   1.422  -0.013  0.00  0.00    +0.004 A 
ATOM     14  C   UNL     1       1.137   2.126   0.003  0.00  0.00    +0.010 A 
ATOM     15  C   UNL     1      -0.017   1.381   0.010  0.00  0.00    +0.001 A 
ATOM     16  C   UNL     1       0.002  -0.004   0.002  0.00  0.00    +0.002 A 
ATOM     17  C   UNL     1       1.182  -0.727  -0.014  0.00  0.00    +0.026 A 
ATOM     18  C   UNL     1       2.369   0.003  -0.022  0.00  0.00    +0.047 A 
ATOM     19  N   UNL     1       3.679  -0.380  -0.038  0.00  0.00    -0.356 N 
ATOM     20  H   UNL     1       3.992  -1.298  -0.047  0.00  0.00    +0.166 HD
ATOM     21  C   UNL     1       6.478   0.355  -1.456  0.00  0.00    +0.048 C 
ATOM     22  H   UNL     1       7.777  -0.604   2.442  0.00  0.00    +0.149 HD
ENDROOT
BRANCH   1  26
ATOM     23  C   UNL     1       2.001   5.698  -2.671  0.00  0.00    -0.048 A 
ATOM     24  C   UNL     1       2.070   6.016  -1.327  0.00  0.00    +0.004 A 
ATOM     25  C   UNL     1       2.806   5.224  -0.466  0.00  0.00    +0.004 A 
ATOM     26  C   UNL     1       3.474   4.114  -0.948  0.00  0.00    -0.038 A 
ATOM     27  C   UNL     1       3.410   3.799  -2.293  0.00  0.00    +0.004 A 
ATOM     28  C   UNL     1       2.669   4.588  -3.153  0.00  0.00    +0.004 A 
BRANCH  23  30
ATOM     29  C   UNL     1       2.094   7.664  -4.179  0.00  0.00    +0.009 C 
ATOM     30  C   UNL     1       1.199   6.561  -3.610  0.00  0.00    +0.032 C 
ENDBRANCH  23  30
ENDBRANCH   1  26
TORSDOF 2
