REMARK  Name = ZINC36945637
REMARK  5 active torsions:
REMARK  status: ('A' for Active; 'I' for Inactive)
REMARK    1  A    between atoms: C_1  and  C_2
REMARK    2  A    between atoms: C_2  and  C_4
REMARK    3  A    between atoms: C_2  and  N_11
REMARK    4  A    between atoms: N_11  and  C_12
REMARK    5  A    between atoms: C_20  and  O_22
REMARK                            x       y       z     vdW  Elec       q    Type
REMARK                         _______ _______ _______ _____ _____    ______ ____
ROOT
ATOM      1  N   UNL     1       0.814  -0.489   1.126  0.00  0.00    +0.390 N 
ATOM      2  H   UNL     1       0.451  -0.247   2.036  0.00  0.00    -0.084 HD
ATOM      3  H   UNL     1       0.816  -1.492   1.021  0.00  0.00    -0.084 HD
ENDROOT
BRANCH   1   4
ATOM      4  C   UNL     1       2.186   0.020   0.995  0.00  0.00    +0.002 C 
ATOM      5  C   UNL     1       3.115  -0.617   2.055  0.00  0.00    +0.218 C 
ATOM      6  O   UNL     1       3.660  -1.752   1.360  0.00  0.00    -0.493 OA
ATOM      7  C   UNL     1       3.677  -1.495   0.024  0.00  0.00    +0.126 A 
ATOM      8  C   UNL     1       2.817  -0.451  -0.301  0.00  0.00    -0.016 A 
ATOM      9  C   UNL     1       2.671  -0.033  -1.605  0.00  0.00    +0.009 A 
ATOM     10  C   UNL     1       3.391  -0.648  -2.614  0.00  0.00    +0.046 A 
ATOM     11  C   UNL     1       4.258  -1.686  -2.305  0.00  0.00    +0.120 A 
ATOM     12  C   UNL     1       4.403  -2.109  -0.993  0.00  0.00    +0.091 A 
BRANCH  11  13
ATOM     13  O   UNL     1       4.970  -2.290  -3.293  0.00  0.00    -0.507 OA
ATOM     14  H   UNL     1       5.830  -1.883  -3.464  0.00  0.00    +0.292 HD
ENDBRANCH  11  13
ENDBRANCH   1   4
BRANCH   1  16
ATOM     15  C   UNL     1      -0.156   1.615   0.333  0.00  0.00    -0.009 C 
ATOM     16  C   UNL     1      -0.032   0.110   0.086  0.00  0.00    -0.042 C 
BRANCH  16  17
ATOM     17  C   UNL     1      -1.401  -0.520   0.126  0.00  0.00    -0.048 A 
ATOM     18  C   UNL     1      -1.869  -1.080   1.300  0.00  0.00    +0.003 A 
ATOM     19  C   UNL     1      -3.124  -1.658   1.338  0.00  0.00    +0.000 A 
ATOM     20  C   UNL     1      -3.912  -1.675   0.201  0.00  0.00    +0.001 A 
ATOM     21  C   UNL     1      -3.445  -1.115  -0.972  0.00  0.00    +0.015 A 
ATOM     22  C   UNL     1      -2.190  -0.532  -1.009  0.00  0.00    +0.019 A 
ATOM     23 BR   UNL     1      -1.553   0.240  -2.613  0.00  0.00    -0.050 Br
ENDBRANCH  16  17
ENDBRANCH   1  16
TORSDOF 4
