REMARK  Name = ZINC34726273
REMARK  10 active torsions:
REMARK  status: ('A' for Active; 'I' for Inactive)
REMARK    1  A    between atoms: C_1  and  C_2
REMARK    2  A    between atoms: C_2  and  C_3
REMARK    3  A    between atoms: C_3  and  C_4
REMARK    4  A    between atoms: C_4  and  N_5
REMARK    5  A    between atoms: N_13  and  C_16
REMARK    6  A    between atoms: C_16  and  C_17
REMARK    7  A    between atoms: N_19  and  C_20
REMARK    8  A    between atoms: C_25  and  C_26
REMARK    9  A    between atoms: C_28  and  C_31
REMARK   10  A    between atoms: C_29  and  C_30
REMARK                            x       y       z     vdW  Elec       q    Type
REMARK                         _______ _______ _______ _____ _____    ______ ____
ROOT
ATOM      1  N   UNL     1       1.423  -2.515  -2.485  0.00  0.00    -0.260 N 
ATOM      2  C   UNL     1       0.708  -2.723  -3.606  0.00  0.00    +0.265 A 
ATOM      3  O   UNL     1      -0.494  -2.530  -3.615  0.00  0.00    -0.267 OA
ATOM      4  C   UNL     1       1.400  -3.190  -4.824  0.00  0.00    +0.078 A 
ATOM      5  C   UNL     1       0.817  -3.480  -6.152  0.00  0.00    +0.003 A 
ATOM      6  C   UNL     1       1.686  -3.900  -7.110  0.00  0.00    +0.004 A 
ATOM      7  S   UNL     1       3.270  -3.928  -6.315  0.00  0.00    -0.074 S 
ATOM      8  C   UNL     1       2.773  -3.379  -4.703  0.00  0.00    +0.098 A 
ATOM      9  N   UNL     1       3.428  -3.144  -3.526  0.00  0.00    -0.278 N 
ATOM     10  C   UNL     1       2.750  -2.714  -2.443  0.00  0.00    +0.333 A 
ATOM     11  O   UNL     1       3.352  -2.506  -1.407  0.00  0.00    -0.246 OA
ATOM     12  C   UNL     1       0.922  -4.143  -8.376  0.00  0.00    +0.073 C 
ATOM     13  C   UNL     1      -0.512  -3.810  -8.033  0.00  0.00    -0.064 C 
ATOM     14  C   UNL     1      -0.540  -3.437  -6.767  0.00  0.00    -0.042 C 
ATOM     15  C   UNL     1      -1.789  -3.020  -6.035  0.00  0.00    +0.044 C 
ATOM     16  C   UNL     1      -1.693  -3.888  -8.966  0.00  0.00    +0.039 C 
ENDROOT
BRANCH   1  17
ATOM     17  C   UNL     1       0.734  -2.053  -1.278  0.00  0.00    +0.130 C 
BRANCH  17  18
ATOM     18  C   UNL     1       0.712  -0.523  -1.258  0.00  0.00    +0.022 C 
BRANCH  18  20
ATOM     19  C   UNL     1      -0.030   1.490   0.024  0.00  0.00    +0.004 C 
ATOM     20  C   UNL     1      -0.007  -0.040   0.004  0.00  0.00    -0.002 C 
ENDBRANCH  18  20
ENDBRANCH  17  18
ENDBRANCH   1  17
BRANCH   9  21
ATOM     21  C   UNL     1       4.875  -3.356  -3.443  0.00  0.00    +0.223 C 
BRANCH  21  22
ATOM     22  C   UNL     1       5.591  -2.081  -3.804  0.00  0.00    +0.237 C 
ATOM     23  O   UNL     1       4.955  -1.092  -4.103  0.00  0.00    -0.274 OA
ATOM     24  N   UNL     1       6.938  -2.039  -3.797  0.00  0.00    -0.284 N 
ATOM     25  H   UNL     1       7.446  -2.803  -3.482  0.00  0.00    +0.155 HD
BRANCH  24  26
ATOM     26  C   UNL     1       7.605  -0.892  -4.243  0.00  0.00    +0.036 A 
ATOM     27  C   UNL     1       6.987  -0.033  -5.142  0.00  0.00    +0.023 A 
ATOM     28  C   UNL     1       7.647   1.097  -5.581  0.00  0.00    +0.002 A 
ATOM     29  C   UNL     1       8.924   1.374  -5.126  0.00  0.00    +0.000 A 
ATOM     30  C   UNL     1       9.543   0.520  -4.232  0.00  0.00    +0.005 A 
ATOM     31  C   UNL     1       8.884  -0.609  -3.784  0.00  0.00    -0.029 A 
ATOM     32  C   UNL     1       9.557  -1.535  -2.803  0.00  0.00    +0.045 C 
ENDBRANCH  24  26
ENDBRANCH  21  22
ENDBRANCH   9  21
TORSDOF 6
