REMARK  Name = ZINC02777214
REMARK  13 active torsions:
REMARK  status: ('A' for Active; 'I' for Inactive)
REMARK    1  A    between atoms: C_1  and  C_2
REMARK    2  A    between atoms: C_2  and  C_3
REMARK    3  A    between atoms: C_3  and  C_5
REMARK    4  A    between atoms: C_3  and  O_25
REMARK    5  A    between atoms: N_7  and  C_8
REMARK    6  A    between atoms: C_9  and  C_22
REMARK    7  A    between atoms: C_14  and  C_18
REMARK    8  A    between atoms: C_18  and  C_19
REMARK    9  A    between atoms: C_18  and  C_20
REMARK   10  A    between atoms: C_18  and  C_21
REMARK   11  A    between atoms: O_25  and  C_26
REMARK   12  A    between atoms: C_29  and  C_33
REMARK   13  A    between atoms: C_30  and  C_32
REMARK                            x       y       z     vdW  Elec       q    Type
REMARK                         _______ _______ _______ _____ _____    ______ ____
ROOT
ATOM      1  C   UNL     1      -1.909   2.290   6.120  0.00  0.00    +0.084 A 
ATOM      2  C   UNL     1      -2.728   2.481   5.016  0.00  0.00    +0.068 A 
ATOM      3  C   UNL     1      -2.113   2.409   3.702  0.00  0.00    -0.023 A 
ATOM      4  C   UNL     1      -0.785   2.159   3.702  0.00  0.00    -0.004 A 
ATOM      5  S   UNL     1      -0.351   2.020   5.413  0.00  0.00    -0.077 S 
ATOM      6  C   UNL     1       0.110   2.031   2.508  0.00  0.00    +0.046 C 
ATOM      7  C   UNL     1      -0.630   2.596   1.287  0.00  0.00    -0.000 C 
ATOM      8  C   UNL     1      -2.046   2.015   1.251  0.00  0.00    +0.009 C 
ATOM      9  C   UNL     1      -2.876   2.595   2.397  0.00  0.00    +0.037 C 
ENDROOT
BRANCH   2  10
ATOM     10  C   UNL     1      -4.162   2.747   5.170  0.00  0.00    +0.244 C 
ATOM     11  O   UNL     1      -4.562   3.892   5.269  0.00  0.00    -0.270 OA
ATOM     12  N   UNL     1      -5.037   1.722   5.203  0.00  0.00    -0.325 N 
ATOM     13  H   UNL     1      -4.719   0.809   5.124  0.00  0.00    +0.145 HD
ATOM     14  H   UNL     1      -5.986   1.898   5.305  0.00  0.00    +0.145 HD
ENDBRANCH   2  10
BRANCH   1  17
ATOM     15  C   UNL     1      -1.312   2.101   8.404  0.00  0.00    +0.258 C 
ATOM     16  O   UNL     1      -0.163   1.896   8.076  0.00  0.00    -0.271 OA
ATOM     17  N   UNL     1      -2.254   2.309   7.463  0.00  0.00    -0.276 N 
ATOM     18  H   UNL     1      -3.174   2.473   7.725  0.00  0.00    +0.155 HD
BRANCH  15  19
ATOM     19  C   UNL     1      -1.687   2.122   9.863  0.00  0.00    +0.259 C 
BRANCH  19  21
ATOM     20  C   UNL     1      -3.114   1.053  11.614  0.00  0.00    +0.008 C 
ATOM     21  C   UNL     1      -2.635   0.959  10.163  0.00  0.00    +0.051 C 
ENDBRANCH  19  21
BRANCH  19  22
ATOM     22  O   UNL     1      -0.508   1.994  10.660  0.00  0.00    -0.480 OA
BRANCH  22  23
ATOM     23  C   UNL     1      -0.442   2.746  11.790  0.00  0.00    +0.122 A 
ATOM     24  C   UNL     1      -1.534   3.506  12.184  0.00  0.00    +0.046 A 
ATOM     25  C   UNL     1      -1.466   4.265  13.336  0.00  0.00    +0.007 A 
ATOM     26  C   UNL     1      -0.307   4.276  14.090  0.00  0.00    -0.047 A 
ATOM     27  C   UNL     1       0.784   3.524  13.697  0.00  0.00    -0.044 A 
ATOM     28  C   UNL     1       0.720   2.759  12.549  0.00  0.00    +0.049 A 
ATOM     29  C   UNL     1       2.045   3.539  14.522  0.00  0.00    +0.044 C 
ATOM     30  C   UNL     1      -0.234   5.110  15.344  0.00  0.00    +0.044 C 
ENDBRANCH  22  23
ENDBRANCH  19  22
ENDBRANCH  15  19
ENDBRANCH   1  17
BRANCH   7  31
ATOM     31  C   UNL     1       0.117   2.206   0.009  0.00  0.00    -0.035 C 
ATOM     32  C   UNL     1       0.189   0.681  -0.093  0.00  0.00    +0.011 C 
ATOM     33  C   UNL     1       1.533   2.783   0.050  0.00  0.00    +0.011 C 
ATOM     34  C   UNL     1      -0.626   2.765  -1.206  0.00  0.00    +0.011 C 
ENDBRANCH   7  31
TORSDOF 7
