REMARK  Name = ZINC17299991
REMARK  6 active torsions:
REMARK  status: ('A' for Active; 'I' for Inactive)
REMARK    1  A    between atoms: C_1  and  C_2
REMARK    2  A    between atoms: C_5  and  N_8
REMARK    3  A    between atoms: C_9  and  C_30
REMARK    4  A    between atoms: C_11  and  C_14
REMARK    5  A    between atoms: C_12  and  C_13
REMARK    6  A    between atoms: N_21  and  C_24
REMARK                            x       y       z     vdW  Elec       q    Type
REMARK                         _______ _______ _______ _____ _____    ______ ____
ROOT
ATOM      1  C   UNL     1       3.531   0.831  -0.028  0.00  0.00    +0.028 C 
ATOM      2  C   UNL     1       4.269  -0.337   0.063  0.00  0.00    +0.100 C 
ATOM      3  C   UNL     1       3.619  -1.661   0.066  0.00  0.00    +0.257 C 
ATOM      4  O   UNL     1       2.409  -1.763  -0.011  0.00  0.00    -0.270 OA
ATOM      5  N   UNL     1       4.403  -2.755   0.157  0.00  0.00    -0.236 N 
ATOM      6  C   UNL     1       5.737  -2.657   0.243  0.00  0.00    +0.316 C 
ATOM      7  O   UNL     1       6.385  -3.682   0.322  0.00  0.00    -0.252 OA
ATOM      8  N   UNL     1       6.394  -1.489   0.245  0.00  0.00    -0.218 N 
ATOM      9  C   UNL     1       5.741  -0.312   0.155  0.00  0.00    +0.259 C 
ATOM     10  O   UNL     1       6.349   0.741   0.154  0.00  0.00    -0.269 OA
ATOM     11  H   UNL     1       3.991  -3.634   0.160  0.00  0.00    +0.159 HD
ENDROOT
BRANCH   1  15
ATOM     12  N   UNL     1      -0.033   1.129  -0.311  0.00  0.00    -0.317 N 
ATOM     13  C   UNL     1       0.034   0.283   0.762  0.00  0.00    +0.022 A 
ATOM     14  C   UNL     1       1.322   0.032   1.048  0.00  0.00    +0.031 A 
ATOM     15  C   UNL     1       2.120   0.785   0.069  0.00  0.00    -0.003 A 
ATOM     16  C   UNL     1       1.204   1.441  -0.741  0.00  0.00    +0.028 A 
ATOM     17  C   UNL     1       1.536   2.345  -1.900  0.00  0.00    +0.064 C 
ATOM     18  C   UNL     1      -1.150  -0.278   1.506  0.00  0.00    +0.064 C 
BRANCH  12  23
ATOM     19  C   UNL     1      -4.848   3.030  -2.637  0.00  0.00    +0.044 C 
ATOM     20  C   UNL     1      -3.569   2.526  -2.019  0.00  0.00    -0.050 A 
ATOM     21  C   UNL     1      -3.238   2.885  -0.726  0.00  0.00    +0.005 A 
ATOM     22  C   UNL     1      -2.067   2.424  -0.157  0.00  0.00    +0.026 A 
ATOM     23  C   UNL     1      -1.222   1.599  -0.885  0.00  0.00    +0.047 A 
ATOM     24  C   UNL     1      -1.553   1.244  -2.187  0.00  0.00    +0.026 A 
ATOM     25  C   UNL     1      -2.728   1.704  -2.748  0.00  0.00    +0.005 A 
ENDBRANCH  12  23
ENDBRANCH   1  15
BRANCH   8  26
ATOM     26  C   UNL     1       7.856  -1.491   0.343  0.00  0.00    +0.086 C 
ATOM     27  C   UNL     1       8.445  -2.257  -0.843  0.00  0.00    +0.023 C 
ATOM     28  C   UNL     1       9.972  -2.259  -0.741  0.00  0.00    +0.002 C 
ATOM     29  C   UNL     1      10.395  -2.936   0.565  0.00  0.00    +0.000 C 
ATOM     30  C   UNL     1       9.805  -2.170   1.751  0.00  0.00    +0.002 C 
ATOM     31  C   UNL     1       8.279  -2.168   1.648  0.00  0.00    +0.023 C 
ENDBRANCH   8  26
TORSDOF 3
