REMARK  Name = ZINC20503264
REMARK  4 active torsions:
REMARK  status: ('A' for Active; 'I' for Inactive)
REMARK    1  A    between atoms: C_4  and  N_7
REMARK    2  A    between atoms: C_8  and  C_10
REMARK    3  A    between atoms: C_10  and  N_11
REMARK    4  A    between atoms: C_25  and  C_27
REMARK                            x       y       z     vdW  Elec       q    Type
REMARK                         _______ _______ _______ _____ _____    ______ ____
ROOT
ATOM      1  N   UNL     1      -2.212   3.267  -3.300  0.00  0.00    -0.305 N 
ATOM      2  C   UNL     1      -1.399   2.638  -4.221  0.00  0.00    +0.052 A 
ATOM      3  C   UNL     1      -1.660   2.712  -5.577  0.00  0.00    +0.025 A 
ATOM      4  C   UNL     1      -0.844   2.059  -6.483  0.00  0.00    +0.002 A 
ATOM      5  C   UNL     1       0.240   1.327  -6.031  0.00  0.00    +0.002 A 
ATOM      6  C   UNL     1       0.519   1.248  -4.686  0.00  0.00    +0.025 A 
ATOM      7  C   UNL     1      -0.288   1.909  -3.748  0.00  0.00    +0.052 A 
ATOM      8  N   UNL     1       0.035   1.851  -2.449  0.00  0.00    -0.316 N 
ATOM      9  C   UNL     1      -0.628   1.749  -1.350  0.00  0.00    +0.017 C 
ATOM     10  C   UNL     1       0.185   1.401  -0.115  0.00  0.00    +0.051 C 
ATOM     11  C   UNL     1      -0.527   1.906   1.138  0.00  0.00    +0.014 C 
ATOM     12  C   UNL     1      -1.924   1.280   1.178  0.00  0.00    +0.080 C 
ATOM     13  C   UNL     1      -2.661   1.694  -0.063  0.00  0.00    +0.163 C 
ATOM     14  C   UNL     1      -2.026   1.923  -1.232  0.00  0.00    +0.040 C 
ATOM     15  C   UNL     1      -2.858   2.365  -2.385  0.00  0.00    +0.175 C 
ATOM     16  O   UNL     1      -4.003   1.841  -0.008  0.00  0.00    -0.292 OA
ATOM     17  H   UNL     1       1.133   1.911  -2.424  0.00  0.00    +0.152 HD
ENDROOT
BRANCH  15  18
ATOM     18  C   UNL     1      -4.092   3.041  -1.845  0.00  0.00    +0.130 A 
ATOM     19  C   UNL     1      -5.352   2.583  -1.954  0.00  0.00    +0.047 A 
ATOM     20  C   UNL     1      -6.188   3.524  -1.312  0.00  0.00    +0.041 A 
ATOM     21  C   UNL     1      -5.389   4.502  -0.848  0.00  0.00    +0.195 A 
ATOM     22  O   UNL     1      -4.120   4.202  -1.169  0.00  0.00    -0.466 OA
ENDBRANCH  15  18
BRANCH   1  23
ATOM     23  C   UNL     1      -3.194   4.131  -3.969  0.00  0.00    +0.202 C 
BRANCH  23  25
ATOM     24  N   UNL     1      -5.075   3.866  -5.554  0.00  0.00    -0.284 N 
ATOM     25  C   UNL     1      -4.151   3.281  -4.766  0.00  0.00    +0.235 C 
ATOM     26  O   UNL     1      -4.088   2.072  -4.699  0.00  0.00    -0.274 OA
ATOM     27  H   UNL     1      -5.183   4.960  -5.556  0.00  0.00    +0.155 HD
BRANCH  24  31
ATOM     28  C   UNL     1      -7.525   1.525  -7.978  0.00  0.00    +0.000 A 
ATOM     29  C   UNL     1      -7.141   1.061  -6.733  0.00  0.00    +0.002 A 
ATOM     30  C   UNL     1      -6.329   1.835  -5.927  0.00  0.00    +0.023 A 
ATOM     31  C   UNL     1      -5.898   3.079  -6.368  0.00  0.00    +0.033 A 
ATOM     32  C   UNL     1      -6.291   3.545  -7.616  0.00  0.00    +0.023 A 
ATOM     33  C   UNL     1      -7.098   2.764  -8.420  0.00  0.00    +0.002 A 
ENDBRANCH  24  31
ENDBRANCH  23  25
ENDBRANCH   1  23
TORSDOF 4
