REMARK  Name = ZINC35845811
REMARK  6 active torsions:
REMARK  status: ('A' for Active; 'I' for Inactive)
REMARK    1  A    between atoms: N_8  and  C_18
REMARK    2  A    between atoms: C_9  and  C_11
REMARK    3  A    between atoms: C_18  and  C_19
REMARK    4  A    between atoms: N_21  and  C_22
REMARK    5  A    between atoms: C_22  and  C_23
REMARK    6  A    between atoms: C_23  and  C_24
REMARK                            x       y       z     vdW  Elec       q    Type
REMARK                         _______ _______ _______ _____ _____    ______ ____
ROOT
ATOM      1  C   UNL     1      -0.016   1.347   0.009  0.00  0.00    +0.019 A 
ATOM      2  C   UNL     1       1.324   1.789  -0.001  0.00  0.00    +0.021 A 
ATOM      3  C   UNL     1       2.104   0.699  -0.015  0.00  0.00    +0.009 A 
ATOM      4  N   UNL     1       1.297  -0.409  -0.010  0.00  0.00    -0.353 N 
ATOM      5  C   UNL     1       0.002  -0.004   0.002  0.00  0.00    +0.086 A 
ATOM      6  C   UNL     1       1.820  -1.781  -0.014  0.00  0.00    +0.103 C 
ATOM      7  C   UNL     1       3.301  -1.724   0.382  0.00  0.00    -0.055 C 
ATOM      8  N   UNL     1       4.001  -0.733  -0.445  0.00  0.00    +0.395 N 
ATOM      9  C   UNL     1       3.611   0.627  -0.036  0.00  0.00    +0.011 C 
ATOM     10  H   UNL     1       3.758  -0.874  -1.415  0.00  0.00    -0.080 HD
ENDROOT
BRANCH   9  11
ATOM     11  C   UNL     1       4.155   1.630  -1.021  0.00  0.00    -0.055 A 
ATOM     12  C   UNL     1       4.155   1.341  -2.373  0.00  0.00    +0.004 A 
ATOM     13  C   UNL     1       4.653   2.260  -3.276  0.00  0.00    +0.020 A 
ATOM     14  C   UNL     1       5.152   3.470  -2.828  0.00  0.00    +0.041 A 
ATOM     15  C   UNL     1       5.152   3.759  -1.475  0.00  0.00    +0.020 A 
ATOM     16  C   UNL     1       4.648   2.841  -0.573  0.00  0.00    +0.004 A 
ATOM     17 CL   UNL     1       5.779   4.625  -3.962  0.00  0.00    -0.084 Cl
ENDBRANCH   9  11
BRANCH   8  18
ATOM     18  C   UNL     1       5.452  -0.896  -0.279  0.00  0.00    +0.020 C 
BRANCH  18  19
ATOM     19  C   UNL     1       5.872  -2.237  -0.822  0.00  0.00    +0.197 C 
ATOM     20  O   UNL     1       5.045  -2.984  -1.300  0.00  0.00    -0.278 OA
ATOM     21  N   UNL     1       7.167  -2.607  -0.777  0.00  0.00    -0.317 N 
ATOM     22  H   UNL     1       7.829  -2.009  -0.394  0.00  0.00    +0.149 HD
BRANCH  21  23
ATOM     23  C   UNL     1       7.576  -3.911  -1.304  0.00  0.00    +0.109 C 
BRANCH  23  24
ATOM     24  C   UNL     1       9.086  -4.080  -1.131  0.00  0.00    +0.055 C 
BRANCH  24  25
ATOM     25  C   UNL     1       9.507  -5.422  -1.675  0.00  0.00    -0.027 A 
ATOM     26  C   UNL     1       9.615  -6.508  -0.826  0.00  0.00    +0.006 A 
ATOM     27  C   UNL     1      10.001  -7.738  -1.323  0.00  0.00    +0.020 A 
ATOM     28  C   UNL     1      10.278  -7.884  -2.671  0.00  0.00    +0.042 A 
ATOM     29  C   UNL     1      10.169  -6.798  -3.521  0.00  0.00    +0.040 A 
ATOM     30  C   UNL     1       9.778  -5.568  -3.023  0.00  0.00    +0.046 A 
ATOM     31 CL   UNL     1       9.636  -4.206  -4.090  0.00  0.00    -0.083 Cl
ATOM     32 CL   UNL     1      10.763  -9.430  -3.295  0.00  0.00    -0.083 Cl
ENDBRANCH  24  25
ENDBRANCH  23  24
ENDBRANCH  21  23
ENDBRANCH  18  19
ENDBRANCH   8  18
TORSDOF 6
