REMARK  Name = ZINC35453131
REMARK  5 active torsions:
REMARK  status: ('A' for Active; 'I' for Inactive)
REMARK    1  A    between atoms: C_1  and  C_2
REMARK    2  A    between atoms: C_2  and  C_3
REMARK    3  A    between atoms: C_6  and  C_9
REMARK    4  A    between atoms: N_19  and  S_21
REMARK    5  A    between atoms: S_21  and  C_24
REMARK                            x       y       z     vdW  Elec       q    Type
REMARK                         _______ _______ _______ _____ _____    ______ ____
ROOT
ATOM      1  C   UNL     1      -5.396  -1.995   0.043  0.00  0.00    +0.141 A 
ATOM      2  N   UNL     1      -6.033  -2.231  -1.139  0.00  0.00    -0.307 N 
ATOM      3  H   UNL     1      -5.578  -2.071  -1.980  0.00  0.00    +0.170 HD
ATOM      4  C   UNL     1      -7.301  -2.688  -1.127  0.00  0.00    +0.256 A 
ATOM      5  O   UNL     1      -7.890  -2.905  -2.173  0.00  0.00    -0.267 OA
ATOM      6  C   UNL     1      -7.938  -2.913   0.114  0.00  0.00    +0.054 A 
ATOM      7  C   UNL     1      -7.251  -2.676   1.260  0.00  0.00    +0.054 A 
ATOM      8  N   UNL     1      -5.993  -2.220   1.191  0.00  0.00    -0.234 NA
ATOM      9  C   UNL     1      -7.830  -2.923   2.628  0.00  0.00    +0.073 C 
ATOM     10  C   UNL     1      -9.357  -2.958   2.574  0.00  0.00    +0.116 C 
ATOM     11  N   UNL     1      -9.750  -3.828   1.452  0.00  0.00    -0.172 NA
ATOM     12  C   UNL     1      -9.364  -3.399   0.103  0.00  0.00    +0.151 C 
ENDROOT
BRANCH   1  16
ATOM     13  C   UNL     1      -1.412  -0.526   0.013  0.00  0.00    -0.048 A 
ATOM     14  C   UNL     1      -2.048  -0.765   1.218  0.00  0.00    +0.004 A 
ATOM     15  C   UNL     1      -3.343  -1.242   1.235  0.00  0.00    +0.012 A 
ATOM     16  C   UNL     1      -4.010  -1.483   0.032  0.00  0.00    +0.017 A 
ATOM     17  C   UNL     1      -3.362  -1.240  -1.180  0.00  0.00    +0.012 A 
ATOM     18  C   UNL     1      -2.069  -0.758  -1.183  0.00  0.00    +0.004 A 
BRANCH  13  20
ATOM     19  C   UNL     1      -0.019   1.526   0.010  0.00  0.00    +0.009 C 
ATOM     20  C   UNL     1       0.002  -0.004   0.002  0.00  0.00    +0.032 C 
ENDBRANCH  13  20
ENDBRANCH   1  16
BRANCH  11  21
ATOM     21  S   UNL     1     -10.593  -5.231   1.703  0.00  0.00    +0.061 S 
ATOM     22  O   UNL     1     -10.329  -6.068   0.586  0.00  0.00    -0.153 OA
ATOM     23  O   UNL     1     -10.323  -5.634   3.039  0.00  0.00    -0.153 OA
BRANCH  21  24
ATOM     24  C   UNL     1     -12.307  -4.828   1.636  0.00  0.00    +0.106 A 
ATOM     25  C   UNL     1     -12.975  -4.456   2.788  0.00  0.00    +0.031 A 
ATOM     26  C   UNL     1     -14.319  -4.139   2.737  0.00  0.00    +0.040 A 
ATOM     27  C   UNL     1     -14.997  -4.195   1.531  0.00  0.00    +0.124 A 
ATOM     28  C   UNL     1     -14.328  -4.568   0.378  0.00  0.00    +0.040 A 
ATOM     29  C   UNL     1     -12.982  -4.879   0.431  0.00  0.00    +0.031 A 
ATOM     30  F   UNL     1     -16.311  -3.886   1.480  0.00  0.00    -0.205 F 
ENDBRANCH  21  24
ENDBRANCH  11  21
TORSDOF 4
