REMARK  Name = ZINC38546901
REMARK  10 active torsions:
REMARK  status: ('A' for Active; 'I' for Inactive)
REMARK    1  A    between atoms: C_1  and  C_2
REMARK    2  A    between atoms: C_6  and  N_8
REMARK    3  A    between atoms: N_8  and  C_9
REMARK    4  A    between atoms: C_9  and  C_11
REMARK    5  A    between atoms: C_9  and  C_19
REMARK    6  A    between atoms: C_14  and  O_17
REMARK    7  A    between atoms: O_17  and  C_18
REMARK    8  A    between atoms: C_21  and  C_32
REMARK    9  A    between atoms: C_23  and  N_24
REMARK   10  A    between atoms: C_25  and  C_27
REMARK                            x       y       z     vdW  Elec       q    Type
REMARK                         _______ _______ _______ _____ _____    ______ ____
ROOT
ATOM      1  C   UNL     1       0.157  -4.098   2.400  0.00  0.00    +0.135 C 
ENDROOT
BRANCH   1   2
ATOM      2  C   UNL     1      -1.132  -4.538   1.755  0.00  0.00    -0.023 A 
ATOM      3  C   UNL     1      -1.570  -3.921   0.598  0.00  0.00    +0.009 A 
ATOM      4  C   UNL     1      -2.752  -4.322   0.005  0.00  0.00    +0.046 A 
ATOM      5  C   UNL     1      -3.498  -5.345   0.571  0.00  0.00    +0.120 A 
ATOM      6  C   UNL     1      -3.055  -5.963   1.732  0.00  0.00    +0.046 A 
ATOM      7  C   UNL     1      -1.871  -5.561   2.318  0.00  0.00    +0.009 A 
BRANCH   5   8
ATOM      8  O   UNL     1      -4.661  -5.741  -0.011  0.00  0.00    -0.495 OA
ATOM      9  C   UNL     1      -5.377  -6.801   0.627  0.00  0.00    +0.277 C 
ENDBRANCH   5   8
ENDBRANCH   1   2
BRANCH   1  10
ATOM     10  C   UNL     1       1.323  -4.585   1.578  0.00  0.00    +0.006 A 
ATOM     11  C   UNL     1       1.890  -3.776   0.611  0.00  0.00    +0.018 A 
ATOM     12  C   UNL     1       2.937  -4.245  -0.109  0.00  0.00    -0.011 A 
ATOM     13  S   UNL     1       3.155  -5.881   0.572  0.00  0.00    -0.078 S 
ATOM     14  C   UNL     1       1.840  -5.830   1.778  0.00  0.00    +0.078 A 
ATOM     15  C   UNL     1       3.716  -3.563  -1.205  0.00  0.00    +0.051 C 
BRANCH  14  16
ATOM     16  N   UNL     1       1.442  -6.812   2.688  0.00  0.00    -0.273 N 
ATOM     17  C   UNL     1       2.090  -7.993   2.731  0.00  0.00    +0.284 C 
ATOM     18  O   UNL     1       3.022  -8.204   1.976  0.00  0.00    -0.266 OA
ATOM     19  H   UNL     1       0.700  -6.644   3.289  0.00  0.00    +0.156 HD
BRANCH  17  20
ATOM     20  C   UNL     1       1.673  -9.024   3.686  0.00  0.00    +0.189 A 
ATOM     21  C   UNL     1       2.243 -10.256   3.838  0.00  0.00    +0.054 A 
ATOM     22  C   UNL     1       1.532 -10.907   4.858  0.00  0.00    +0.042 A 
ATOM     23  C   UNL     1       0.571 -10.055   5.279  0.00  0.00    +0.196 A 
ATOM     24  O   UNL     1       0.662  -8.920   4.574  0.00  0.00    -0.458 OA
ENDBRANCH  17  20
ENDBRANCH  14  16
ENDBRANCH   1  10
BRANCH   1  25
ATOM     25  N   UNL     1       0.191  -2.635   2.475  0.00  0.00    -0.320 N 
ATOM     26  H   UNL     1      -0.367  -2.106   1.884  0.00  0.00    +0.148 HD
BRANCH  25  32
ATOM     27  C   UNL     1       1.985   1.456   4.198  0.00  0.00    +0.063 C 
ATOM     28  C   UNL     1       1.904  -0.049   4.243  0.00  0.00    +0.014 A 
ATOM     29  C   UNL     1       2.645  -0.743   5.178  0.00  0.00    +0.021 A 
ATOM     30  C   UNL     1       2.567  -2.128   5.216  0.00  0.00    +0.005 A 
ATOM     31  C   UNL     1       1.742  -2.768   4.308  0.00  0.00    +0.041 A 
ATOM     32  C   UNL     1       1.024  -2.005   3.393  0.00  0.00    +0.097 A 
ATOM     33  N   UNL     1       1.121  -0.685   3.393  0.00  0.00    -0.347 N 
ATOM     34  H   UNL     1       0.607  -0.173   2.749  0.00  0.00    +0.167 HD
ENDBRANCH  25  32
ENDBRANCH   1  25
TORSDOF 7
