REMARK  Name = ZINC02546418
REMARK  10 active torsions:
REMARK  status: ('A' for Active; 'I' for Inactive)
REMARK    1  A    between atoms: C_1  and  C_2
REMARK    2  A    between atoms: C_3  and  C_32
REMARK    3  A    between atoms: C_5  and  N_23
REMARK    4  A    between atoms: C_6  and  C_7
REMARK    5  A    between atoms: C_7  and  C_9
REMARK    6  A    between atoms: C_7  and  N_17
REMARK    7  A    between atoms: C_12  and  S_15
REMARK    8  A    between atoms: S_15  and  C_16
REMARK    9  A    between atoms: N_17  and  C_18
REMARK   10  A    between atoms: C_24  and  C_26
REMARK                            x       y       z     vdW  Elec       q    Type
REMARK                         _______ _______ _______ _____ _____    ______ ____
ROOT
ATOM      1  C   UNL     1       7.569   1.307  -0.201  0.00  0.00    +0.135 C 
ENDROOT
BRANCH   1   7
ATOM      2  C   UNL     1       9.869  -0.477  -0.069  0.00  0.00    +0.045 C 
ATOM      3  C   UNL     1       8.476  -1.034  -0.211  0.00  0.00    -0.033 A 
ATOM      4  C   UNL     1       8.276  -2.372  -0.285  0.00  0.00    -0.008 A 
ATOM      5  S   UNL     1       6.501  -2.476  -0.440  0.00  0.00    -0.078 S 
ATOM      6  C   UNL     1       6.141  -0.728  -0.396  0.00  0.00    +0.078 A 
ATOM      7  C   UNL     1       7.385  -0.187  -0.273  0.00  0.00    +0.009 A 
ATOM      8  C   UNL     1       9.291  -3.486  -0.247  0.00  0.00    +0.052 C 
BRANCH   6   9
ATOM      9  N   UNL     1       4.905  -0.082  -0.474  0.00  0.00    -0.276 N 
ATOM     10  C   UNL     1       3.767  -0.803  -0.472  0.00  0.00    +0.249 C 
ATOM     11  O   UNL     1       3.810  -2.007  -0.308  0.00  0.00    -0.270 OA
ATOM     12  H   UNL     1       4.866   0.885  -0.529  0.00  0.00    +0.156 HD
BRANCH  10  13
ATOM     13  C   UNL     1       2.465  -0.131  -0.668  0.00  0.00    +0.037 A 
ATOM     14  C   UNL     1       1.295  -0.885  -0.772  0.00  0.00    +0.013 A 
ATOM     15  C   UNL     1       0.083  -0.251  -0.955  0.00  0.00    +0.001 A 
ATOM     16  C   UNL     1       0.027   1.129  -1.036  0.00  0.00    +0.000 A 
ATOM     17  C   UNL     1       1.183   1.883  -0.934  0.00  0.00    +0.001 A 
ATOM     18  C   UNL     1       2.401   1.261  -0.751  0.00  0.00    +0.013 A 
ENDBRANCH  10  13
ENDBRANCH   6   9
ENDBRANCH   1   7
BRANCH   1  19
ATOM     19  C   UNL     1       7.243   1.787   1.190  0.00  0.00    -0.023 A 
ATOM     20  C   UNL     1       5.924   1.922   1.582  0.00  0.00    +0.007 A 
ATOM     21  C   UNL     1       5.621   2.357   2.857  0.00  0.00    +0.015 A 
ATOM     22  C   UNL     1       6.645   2.668   3.744  0.00  0.00    +0.008 A 
ATOM     23  C   UNL     1       7.970   2.536   3.346  0.00  0.00    +0.015 A 
ATOM     24  C   UNL     1       8.264   2.096   2.071  0.00  0.00    +0.007 A 
BRANCH  22  25
ATOM     25  S   UNL     1       6.264   3.230   5.370  0.00  0.00    -0.129 S 
ATOM     26  C   UNL     1       4.450   3.239   5.418  0.00  0.00    +0.090 C 
ENDBRANCH  22  25
ENDBRANCH   1  19
BRANCH   1  27
ATOM     27  N   UNL     1       6.675   1.956  -1.163  0.00  0.00    -0.320 N 
ATOM     28  H   UNL     1       5.838   2.343  -0.862  0.00  0.00    +0.148 HD
BRANCH  27  29
ATOM     29  C   UNL     1       7.027   2.017  -2.506  0.00  0.00    +0.097 A 
ATOM     30  C   UNL     1       8.177   1.371  -2.948  0.00  0.00    +0.041 A 
ATOM     31  C   UNL     1       8.514   1.439  -4.287  0.00  0.00    +0.005 A 
ATOM     32  C   UNL     1       7.688   2.155  -5.144  0.00  0.00    +0.018 A 
ATOM     33  C   UNL     1       6.562   2.772  -4.637  0.00  0.00    +0.084 A 
ATOM     34  N   UNL     1       6.196   2.721  -3.328  0.00  0.00    -0.350 N 
ATOM     35  H   UNL     1       5.347   3.183  -2.981  0.00  0.00    +0.166 HD
ENDBRANCH  27  29
ENDBRANCH   1  27
TORSDOF 7
