REMARK  Name = ZINC11898483
REMARK  10 active torsions:
REMARK  status: ('A' for Active; 'I' for Inactive)
REMARK    1  A    between atoms: C_1  and  C_2
REMARK    2  A    between atoms: C_4  and  C_33
REMARK    3  A    between atoms: C_5  and  N_9
REMARK    4  A    between atoms: C_6  and  C_8
REMARK    5  A    between atoms: C_10  and  C_12
REMARK    6  A    between atoms: N_14  and  C_15
REMARK    7  A    between atoms: C_15  and  C_16
REMARK    8  A    between atoms: C_16  and  C_18
REMARK    9  A    between atoms: C_16  and  N_65
REMARK   10  A    between atoms: N_22  and  C_23
REMARK                            x       y       z     vdW  Elec       q    Type
REMARK                         _______ _______ _______ _____ _____    ______ ____
ROOT
ATOM      1  C   UNL     1      -3.254   0.960  -1.465  0.00  0.00    +0.095 C 
ENDROOT
BRANCH   1   4
ATOM      2  C   UNL     1      -4.377  -0.702  -2.849  0.00  0.00    +0.299 C 
ATOM      3  O   UNL     1      -3.699  -0.336  -3.787  0.00  0.00    -0.265 OA
ATOM      4  N   UNL     1      -4.231  -0.117  -1.643  0.00  0.00    -0.309 N 
ATOM      5  H   UNL     1      -4.772  -0.410  -0.893  0.00  0.00    +0.149 HD
BRANCH   2   7
ATOM      6  N   UNL     1      -5.519  -2.384  -4.236  0.00  0.00    -0.277 N 
ATOM      7  C   UNL     1      -5.373  -1.800  -3.031  0.00  0.00    +0.303 C 
ATOM      8  O   UNL     1      -6.050  -2.166  -2.093  0.00  0.00    -0.265 OA
ATOM      9  H   UNL     1      -4.954  -2.114  -4.978  0.00  0.00    +0.155 HD
BRANCH   6  14
ATOM     10  C   UNL     1      -9.433  -6.421  -4.976  0.00  0.00    +0.044 C 
ATOM     11  C   UNL     1      -8.393  -5.348  -4.779  0.00  0.00    -0.050 A 
ATOM     12  C   UNL     1      -8.403  -4.222  -5.582  0.00  0.00    +0.008 A 
ATOM     13  C   UNL     1      -7.452  -3.237  -5.405  0.00  0.00    -0.029 A 
ATOM     14  C   UNL     1      -6.483  -3.379  -4.419  0.00  0.00    +0.040 A 
ATOM     15  C   UNL     1      -6.472  -4.514  -3.618  0.00  0.00    -0.029 A 
ATOM     16  C   UNL     1      -7.430  -5.492  -3.797  0.00  0.00    +0.008 A 
ATOM     17  C   UNL     1      -5.420  -4.675  -2.551  0.00  0.00    +0.045 C 
ATOM     18  C   UNL     1      -7.464  -2.010  -6.280  0.00  0.00    +0.045 C 
ENDBRANCH   6  14
ENDBRANCH   2   7
ENDBRANCH   1   4
BRANCH   1  19
ATOM     19  C   UNL     1      -3.199   1.359   0.011  0.00  0.00    -0.003 C 
BRANCH  19  29
ATOM     20  C   UNL     1      -2.870   0.516   2.260  0.00  0.00    -0.073 C 
ATOM     21  C   UNL     1      -2.979  -0.769   3.080  0.00  0.00    +0.017 C 
ATOM     22  C   UNL     1      -2.003  -1.794   2.562  0.00  0.00    -0.048 A 
ATOM     23  C   UNL     1      -1.693  -2.879   3.369  0.00  0.00    +0.004 A 
ATOM     24  C   UNL     1      -0.807  -3.843   2.931  0.00  0.00    +0.000 A 
ATOM     25  C   UNL     1      -0.225  -3.726   1.682  0.00  0.00    +0.000 A 
ATOM     26  C   UNL     1      -0.531  -2.646   0.880  0.00  0.00    +0.002 A 
ATOM     27  C   UNL     1      -1.421  -1.676   1.319  0.00  0.00    -0.061 A 
ATOM     28  C   UNL     1      -1.720  -0.513   0.409  0.00  0.00    -0.042 C 
ATOM     29  N   UNL     1      -2.965   0.149   0.832  0.00  0.00    +0.389 N 
ATOM     30  H   UNL     1      -3.750  -0.499   0.704  0.00  0.00    -0.080 HD
ENDBRANCH  19  29
BRANCH  19  31
ATOM     31  C   UNL     1      -2.089   2.356   0.221  0.00  0.00    +0.006 A 
ATOM     32  C   UNL     1      -0.994   2.171   0.986  0.00  0.00    +0.021 A 
ATOM     33  C   UNL     1      -0.218   3.344   0.904  0.00  0.00    +0.019 A 
ATOM     34  C   UNL     1      -0.869   4.202   0.092  0.00  0.00    +0.085 A 
ATOM     35  N   UNL     1      -2.018   3.601  -0.330  0.00  0.00    -0.355 N 
ATOM     36  C   UNL     1      -3.009   4.193  -1.232  0.00  0.00    +0.148 C 
ENDBRANCH  19  31
ENDBRANCH   1  19
TORSDOF 6
