REMARK  Name = ZINC23447892
REMARK  6 active torsions:
REMARK  status: ('A' for Active; 'I' for Inactive)
REMARK    1  A    between atoms: C_1  and  C_2
REMARK    2  A    between atoms: C_2  and  C_3
REMARK    3  A    between atoms: C_3  and  C_5
REMARK    4  A    between atoms: C_3  and  C_6
REMARK    5  A    between atoms: N_8  and  N_9
REMARK    6  A    between atoms: C_10  and  C_12
REMARK                            x       y       z     vdW  Elec       q    Type
REMARK                         _______ _______ _______ _____ _____    ______ ____
ROOT
ATOM      1  N   UNL     1      -2.017   5.372   4.008  0.00  0.00    -0.230 N 
ATOM      2  C   UNL     1      -2.137   6.694   4.239  0.00  0.00    +0.267 C 
ATOM      3  O   UNL     1      -1.765   7.494   3.401  0.00  0.00    -0.268 OA
ATOM      4  H   UNL     1      -2.354   4.648   4.765  0.00  0.00    +0.173 HD
ENDROOT
BRANCH   2   5
ATOM      5  C   UNL     1      -2.716   7.168   5.500  0.00  0.00    +0.076 A 
ATOM      6  C   UNL     1      -2.926   8.459   5.931  0.00  0.00    +0.024 A 
ATOM      7  C   UNL     1      -3.513   8.653   7.184  0.00  0.00    -0.036 A 
ATOM      8  C   UNL     1      -3.780   7.550   7.912  0.00  0.00    -0.006 A 
ATOM      9  S   UNL     1      -3.341   6.226   6.877  0.00  0.00    -0.088 S 
ATOM     10  C   UNL     1      -4.270   7.349   9.322  0.00  0.00    +0.043 C 
ATOM     11  C   UNL     1      -4.484   8.674  10.057  0.00  0.00    +0.005 C 
ATOM     12  C   UNL     1      -5.808   9.304   9.655  0.00  0.00    +0.000 C 
ATOM     13  C   UNL     1      -6.126   9.114   8.185  0.00  0.00    +0.000 C 
ATOM     14  C   UNL     1      -5.409  10.233   7.423  0.00  0.00    +0.005 C 
ATOM     15  C   UNL     1      -3.900  10.065   7.601  0.00  0.00    +0.036 C 
ENDBRANCH   2   5
BRANCH   1  18
ATOM     16  C   UNL     1      -1.345   3.596   2.571  0.00  0.00    +0.232 C 
ATOM     17  O   UNL     1      -1.715   2.798   3.406  0.00  0.00    -0.274 OA
ATOM     18  N   UNL     1      -1.464   4.919   2.803  0.00  0.00    -0.234 N 
ATOM     19  H   UNL     1      -1.128   5.642   2.046  0.00  0.00    +0.173 HD
BRANCH  16  20
ATOM     20  C   UNL     1      -0.750   3.109   1.275  0.00  0.00    +0.073 C 
ATOM     21  C   UNL     1      -1.595   3.614   0.104  0.00  0.00    +0.017 C 
BRANCH  20  23
ATOM     22  C   UNL     1      -0.013   1.086   0.008  0.00  0.00    +0.004 C 
ATOM     23  C   UNL     1      -0.729   1.579   1.267  0.00  0.00    +0.009 C 
ENDBRANCH  20  23
ENDBRANCH  16  20
ENDBRANCH   1  18
TORSDOF 4
