REMARK  Name = ZINC09601966
REMARK  11 active torsions:
REMARK  status: ('A' for Active; 'I' for Inactive)
REMARK    1  A    between atoms: C_1  and  C_2
REMARK    2  A    between atoms: C_4  and  C_35
REMARK    3  A    between atoms: C_8  and  C_29
REMARK    4  A    between atoms: C_9  and  C_23
REMARK    5  A    between atoms: N_10  and  C_11
REMARK    6  A    between atoms: C_11  and  C_12
REMARK    7  A    between atoms: C_12  and  C_14
REMARK    8  A    between atoms: C_12  and  O_22
REMARK    9  A    between atoms: C_14  and  N_67
REMARK   10  A    between atoms: C_15  and  C_16
REMARK   11  A    between atoms: C_15  and  N_67
REMARK                            x       y       z     vdW  Elec       q    Type
REMARK                         _______ _______ _______ _____ _____    ______ ____
ROOT
ATOM      1  C   UNL     1      -0.245   1.453   0.005  0.00  0.00    +0.044 C 
ATOM      2  C   UNL     1      -0.303  -0.052  -0.018  0.00  0.00    -0.049 A 
ATOM      3  C   UNL     1      -0.360  -0.758   1.176  0.00  0.00    +0.008 A 
ATOM      4  C   UNL     1      -0.413  -2.134   1.177  0.00  0.00    -0.026 A 
ATOM      5  C   UNL     1      -0.410  -2.828  -0.029  0.00  0.00    +0.053 A 
ATOM      6  C   UNL     1      -0.351  -2.108  -1.235  0.00  0.00    +0.009 A 
ATOM      7  C   UNL     1      -0.303  -0.714  -1.214  0.00  0.00    +0.014 A 
ATOM      8  C   UNL     1      -0.363  -3.107  -2.314  0.00  0.00    +0.015 A 
ATOM      9  C   UNL     1      -0.426  -4.342  -1.703  0.00  0.00    +0.058 A 
ATOM     10  N   UNL     1      -0.454  -4.170  -0.340  0.00  0.00    -0.337 N 
ATOM     11  C   UNL     1      -0.476  -2.887   2.482  0.00  0.00    +0.046 C 
ENDROOT
BRANCH   9  12
ATOM     12  C   UNL     1      -0.458  -5.641  -2.403  0.00  0.00    -0.001 A 
ATOM     13  C   UNL     1       0.350  -6.694  -1.966  0.00  0.00    +0.010 A 
ATOM     14  C   UNL     1       0.311  -7.907  -2.621  0.00  0.00    +0.001 A 
ATOM     15  C   UNL     1      -0.518  -8.079  -3.715  0.00  0.00    +0.000 A 
ATOM     16  C   UNL     1      -1.317  -7.040  -4.157  0.00  0.00    +0.001 A 
ATOM     17  C   UNL     1      -1.292  -5.823  -3.509  0.00  0.00    +0.010 A 
ENDBRANCH   9  12
BRANCH   8  18
ATOM     18  C   UNL     1      -0.315  -2.840  -3.769  0.00  0.00    -0.015 A 
ATOM     19  C   UNL     1       0.785  -3.252  -4.521  0.00  0.00    +0.008 A 
ATOM     20  C   UNL     1       0.821  -3.005  -5.878  0.00  0.00    +0.001 A 
ATOM     21  C   UNL     1      -0.226  -2.340  -6.491  0.00  0.00    +0.000 A 
ATOM     22  C   UNL     1      -1.318  -1.924  -5.749  0.00  0.00    +0.001 A 
ATOM     23  C   UNL     1      -1.368  -2.170  -4.393  0.00  0.00    +0.008 A 
ENDBRANCH   8  18
BRANCH  10  24
ATOM     24  C   UNL     1      -0.521  -5.257   0.640  0.00  0.00    +0.151 C 
BRANCH  24  25
ATOM     25  C   UNL     1      -1.975  -5.472   1.064  0.00  0.00    +0.117 C 
BRANCH  25  26
ATOM     26  O   UNL     1      -2.736  -5.927  -0.056  0.00  0.00    -0.392 OA
ATOM     27  H   UNL     1      -2.422  -6.761  -0.432  0.00  0.00    +0.210 HD
ENDBRANCH  25  26
BRANCH  25  28
ATOM     28  C   UNL     1      -2.032  -6.520   2.178  0.00  0.00    -0.049 C 
BRANCH  28  29
ATOM     29  N   UNL     1      -3.436  -6.721   2.581  0.00  0.00    +0.382 N 
ATOM     30  H   UNL     1      -3.978  -7.044   1.771  0.00  0.00    -0.086 HD
ATOM     31  H   UNL     1      -3.822  -5.832   2.919  0.00  0.00    -0.086 HD
BRANCH  29  32
ATOM     32  C   UNL     1      -3.521  -7.728   3.656  0.00  0.00    -0.051 C 
BRANCH  32  33
ATOM     33  C   UNL     1      -4.987  -7.915   4.053  0.00  0.00    +0.101 C 
ATOM     34  C   UNL     1      -5.095  -8.959   5.181  0.00  0.00    +0.032 C 
ATOM     35  C   UNL     1      -5.782  -8.196   6.339  0.00  0.00    +0.030 C 
ATOM     36  C   UNL     1      -6.467  -7.022   5.594  0.00  0.00    +0.160 C 
ATOM     37  O   UNL     1      -5.518  -6.679   4.558  0.00  0.00    -0.378 OA
ENDBRANCH  32  33
ENDBRANCH  29  32
ENDBRANCH  28  29
ENDBRANCH  25  28
ENDBRANCH  24  25
ENDBRANCH  10  24
TORSDOF 9
