REMARK  Name = ZINC09619408
REMARK  13 active torsions:
REMARK  status: ('A' for Active; 'I' for Inactive)
REMARK    1  A    between atoms: C_1  and  C_2
REMARK    2  A    between atoms: C_2  and  O_3
REMARK    3  A    between atoms: O_3  and  C_4
REMARK    4  A    between atoms: C_4  and  C_6
REMARK    5  A    between atoms: C_10  and  N_11
REMARK    6  A    between atoms: C_12  and  C_14
REMARK    7  A    between atoms: C_18  and  S_20
REMARK    8  A    between atoms: S_20  and  C_21
REMARK    9  A    between atoms: C_21  and  C_22
REMARK   10  A    between atoms: C_21  and  C_23
REMARK   11  A    between atoms: C_28  and  O_30
REMARK   12  A    between atoms: O_30  and  C_31
REMARK   13  A    between atoms: C_31  and  C_32
REMARK                            x       y       z     vdW  Elec       q    Type
REMARK                         _______ _______ _______ _____ _____    ______ ____
ROOT
ATOM      1  C   UNL     1       2.589   7.907   0.134  0.00  0.00    +0.091 A 
ATOM      2  C   UNL     1       2.391   9.348   0.130  0.00  0.00    -0.018 A 
ATOM      3  C   UNL     1       1.101   9.749   0.103  0.00  0.00    +0.013 A 
ATOM      4  S   UNL     1       0.158   8.252   0.083  0.00  0.00    -0.076 S 
ATOM      5  C   UNL     1       1.456   7.104   0.115  0.00  0.00    +0.087 A 
ATOM      6  C   UNL     1       0.599  11.161   0.088  0.00  0.00    +0.153 C 
ATOM      7  N   UNL     1       1.759  12.038   0.346  0.00  0.00    -0.262 N 
ATOM      8  C   UNL     1       3.022  11.711  -0.333  0.00  0.00    +0.116 C 
ATOM      9  C   UNL     1       3.533  10.356   0.160  0.00  0.00    +0.056 C 
ATOM     10  C   UNL     1       1.664  13.098   1.172  0.00  0.00    +0.403 C 
ATOM     11  O   UNL     1       2.632  13.805   1.368  0.00  0.00    -0.226 OA
ENDROOT
BRANCH   5  12
ATOM     12  N   UNL     1       1.382   5.721   0.115  0.00  0.00    -0.275 N 
ATOM     13  C   UNL     1       0.181   5.110   0.094  0.00  0.00    +0.249 C 
ATOM     14  O   UNL     1      -0.838   5.774   0.075  0.00  0.00    -0.270 OA
ATOM     15  H   UNL     1       2.195   5.192   0.130  0.00  0.00    +0.156 HD
BRANCH  13  16
ATOM     16  C   UNL     1       0.102   3.634   0.094  0.00  0.00    +0.038 A 
ATOM     17  C   UNL     1       1.270   2.870   0.115  0.00  0.00    +0.013 A 
ATOM     18  C   UNL     1       1.194   1.492   0.115  0.00  0.00    +0.002 A 
ATOM     19  C   UNL     1      -0.036   0.863   0.093  0.00  0.00    +0.015 A 
ATOM     20  C   UNL     1      -1.206   1.615   0.065  0.00  0.00    +0.009 A 
ATOM     21  C   UNL     1      -1.140   3.000   0.072  0.00  0.00    +0.027 A 
BRANCH  20  22
ATOM     22  S   UNL     1      -2.772   0.807   0.029  0.00  0.00    -0.122 S 
BRANCH  22  23
ATOM     23  C   UNL     1      -3.203   0.765  -1.733  0.00  0.00    +0.045 C 
ATOM     24  C   UNL     1      -2.236  -0.162  -2.473  0.00  0.00    +0.019 C 
ATOM     25  C   UNL     1      -4.633   0.244  -1.896  0.00  0.00    +0.019 C 
ENDBRANCH  22  23
ENDBRANCH  20  22
ENDBRANCH  13  16
ENDBRANCH   5  12
BRANCH   1  26
ATOM     26  C   UNL     1       3.932   7.326   0.157  0.00  0.00    +0.342 C 
ATOM     27  O   UNL     1       4.508   7.083  -0.886  0.00  0.00    -0.245 OA
BRANCH  26  28
ATOM     28  O   UNL     1       4.531   7.058   1.336  0.00  0.00    -0.461 OA
BRANCH  28  30
ATOM     29  C   UNL     1       6.375   6.250   2.706  0.00  0.00    +0.048 C 
ATOM     30  C   UNL     1       5.863   6.482   1.283  0.00  0.00    +0.229 C 
ENDBRANCH  28  30
ENDBRANCH  26  28
ENDBRANCH   1  26
BRANCH  10  31
ATOM     31  O   UNL     1       0.495  13.374   1.781  0.00  0.00    -0.451 OA
BRANCH  31  32
ATOM     32  C   UNL     1       0.466  14.532   2.658  0.00  0.00    +0.230 C 
ATOM     33  C   UNL     1      -0.935  14.684   3.254  0.00  0.00    +0.048 C 
ENDBRANCH  31  32
ENDBRANCH  10  31
TORSDOF 9
