REMARK  Name = ZINC39652799
REMARK  9 active torsions:
REMARK  status: ('A' for Active; 'I' for Inactive)
REMARK    1  A    between atoms: C_1  and  C_2
REMARK    2  A    between atoms: C_2  and  O_3
REMARK    3  A    between atoms: O_3  and  C_4
REMARK    4  A    between atoms: C_9  and  C_10
REMARK    5  A    between atoms: C_10  and  C_11
REMARK    6  A    between atoms: C_11  and  N_12
REMARK    7  A    between atoms: C_13  and  C_15
REMARK    8  A    between atoms: C_26  and  C_28
REMARK    9  A    between atoms: C_29  and  C_33
REMARK                            x       y       z     vdW  Elec       q    Type
REMARK                         _______ _______ _______ _____ _____    ______ ____
ROOT
ATOM      1  C   UNL     1       1.388   1.236   7.488  0.00  0.00    +0.100 C 
ATOM      2  C   UNL     1       1.982   2.502   6.830  0.00  0.00    +0.121 C 
ATOM      3  N   UNL     1       0.896   3.508   6.907  0.00  0.00    -0.296 N 
ATOM      4  C   UNL     1       0.284   3.288   8.239  0.00  0.00    +0.115 C 
ATOM      5  C   UNL     1       0.277   1.756   8.415  0.00  0.00    -0.004 C 
ATOM      6  C   UNL     1      -1.073   1.185   7.993  0.00  0.00    -0.010 C 
ATOM      7  C   UNL     1      -2.154   1.671   8.963  0.00  0.00    -0.082 C 
ATOM      8  N   UNL     1      -1.821   1.239  10.326  0.00  0.00    +0.379 N 
ATOM      9  C   UNL     1      -0.567   1.867  10.758  0.00  0.00    -0.082 C 
ATOM     10  C   UNL     1       0.581   1.389   9.864  0.00  0.00    -0.010 C 
ATOM     11  C   UNL     1       0.545   4.417   5.976  0.00  0.00    +0.254 C 
ATOM     12  O   UNL     1       1.081   4.407   4.883  0.00  0.00    -0.269 OA
ATOM     13  H   UNL     1      -2.564   1.508  10.953  0.00  0.00    -0.086 HD
ATOM     14  H   UNL     1      -1.716   0.236  10.343  0.00  0.00    -0.086 HD
ENDROOT
BRANCH  11  15
ATOM     15  C   UNL     1      -0.482   5.418   6.280  0.00  0.00    +0.077 A 
ATOM     16  C   UNL     1      -1.058   6.361   5.442  0.00  0.00    -0.031 A 
ATOM     17  C   UNL     1      -2.006   7.172   6.019  0.00  0.00    +0.011 A 
ATOM     18  C   UNL     1      -2.308   7.003   7.330  0.00  0.00    +0.046 A 
ATOM     19  S   UNL     1      -1.322   5.734   7.820  0.00  0.00    -0.092 S 
ATOM     20  C   UNL     1      -0.669   6.489   3.992  0.00  0.00    +0.045 C 
ENDBRANCH  11  15
BRANCH   1  22
ATOM     21  N   UNL     1       0.806  -1.012   6.636  0.00  0.00    -0.315 N 
ATOM     22  C   UNL     1       0.811   0.321   6.439  0.00  0.00    +0.218 C 
ATOM     23  O   UNL     1       0.351   0.784   5.417  0.00  0.00    -0.275 OA
ATOM     24  H   UNL     1       1.174  -1.383   7.454  0.00  0.00    +0.149 HD
BRANCH  21  25
ATOM     25  C   UNL     1       0.245  -1.902   5.617  0.00  0.00    +0.109 C 
BRANCH  25  26
ATOM     26  C   UNL     1       0.363  -3.354   6.086  0.00  0.00    +0.057 C 
BRANCH  26  32
ATOM     27  C   UNL     1       0.572  -4.689   3.973  0.00  0.00    +0.124 A 
ATOM     28  C   UNL     1       0.039  -5.535   3.012  0.00  0.00    +0.046 A 
ATOM     29  C   UNL     1      -1.273  -5.954   3.113  0.00  0.00    +0.004 A 
ATOM     30  C   UNL     1      -2.056  -5.530   4.171  0.00  0.00    +0.000 A 
ATOM     31  C   UNL     1      -1.528  -4.686   5.130  0.00  0.00    +0.007 A 
ATOM     32  C   UNL     1      -0.214  -4.269   5.037  0.00  0.00    -0.004 A 
BRANCH  27  33
ATOM     33  O   UNL     1       1.863  -4.276   3.877  0.00  0.00    -0.492 OA
BRANCH  33  35
ATOM     34  C   UNL     1       4.033  -4.181   2.817  0.00  0.00    +0.048 C 
ATOM     35  C   UNL     1       2.613  -4.747   2.756  0.00  0.00    +0.225 C 
ENDBRANCH  33  35
ENDBRANCH  27  33
ENDBRANCH  26  32
ENDBRANCH  25  26
ENDBRANCH  21  25
ENDBRANCH   1  22
TORSDOF 7
