REMARK  Name = ZINC23887996
REMARK  11 active torsions:
REMARK  status: ('A' for Active; 'I' for Inactive)
REMARK    1  A    between atoms: C_1  and  C_2
REMARK    2  A    between atoms: C_7  and  C_9
REMARK    3  A    between atoms: C_7  and  C_10
REMARK    4  A    between atoms: N_13  and  C_17
REMARK    5  A    between atoms: C_17  and  C_18
REMARK    6  A    between atoms: C_18  and  O_20
REMARK    7  A    between atoms: O_20  and  C_21
REMARK    8  A    between atoms: C_21  and  C_22
REMARK    9  A    between atoms: N_24  and  C_25
REMARK   10  A    between atoms: C_30  and  C_31
REMARK   11  A    between atoms: N_33  and  C_34
REMARK                            x       y       z     vdW  Elec       q    Type
REMARK                         _______ _______ _______ _____ _____    ______ ____
ROOT
ATOM      1  C   UNL     1      -1.443  -5.493  -2.760  0.00  0.00    +0.326 C 
ATOM      2  O   UNL     1      -1.085  -5.774  -1.641  0.00  0.00    -0.249 OA
ENDROOT
BRANCH   1   3
ATOM      3  C   UNL     1      -2.036  -4.136  -3.042  0.00  0.00    +0.238 C 
BRANCH   3  15
ATOM      4  C   UNL     1      -0.047   1.509   0.057  0.00  0.00    +0.007 C 
ATOM      5  C   UNL     1      -0.029  -0.023   0.042  0.00  0.00    -0.011 C 
ATOM      6  C   UNL     1      -1.468  -0.544   0.043  0.00  0.00    +0.038 C 
ATOM      7  C   UNL     1      -1.463  -2.066  -0.020  0.00  0.00    +0.113 C 
ATOM      8  C   UNL     1      -0.625  -2.698   1.073  0.00  0.00    +0.041 C 
ATOM      9  C   UNL     1       0.731  -2.056   1.313  0.00  0.00    -0.032 C 
ATOM     10  C   UNL     1       0.672  -0.533   1.299  0.00  0.00    +0.009 C 
ATOM     11  C   UNL     1       1.755  -2.551   0.286  0.00  0.00    +0.011 C 
ATOM     12  C   UNL     1       1.227  -2.495   2.708  0.00  0.00    +0.011 C 
ATOM     13  C   UNL     1      -1.065  -2.546  -1.394  0.00  0.00    +0.247 C 
ATOM     14  O   UNL     1      -0.070  -2.264  -2.028  0.00  0.00    -0.273 OA
ATOM     15  N   UNL     1      -2.068  -3.351  -1.807  0.00  0.00    -0.213 N 
ATOM     16  C   UNL     1      -3.091  -3.339  -0.946  0.00  0.00    +0.310 C 
ATOM     17  O   UNL     1      -4.116  -3.974  -1.105  0.00  0.00    -0.252 OA
ATOM     18  N   UNL     1      -2.855  -2.550   0.117  0.00  0.00    -0.285 N 
ATOM     19  H   UNL     1      -3.465  -2.332   0.837  0.00  0.00    +0.151 HD
ENDBRANCH   3  15
ENDBRANCH   1   3
BRANCH   1  20
ATOM     20  O   UNL     1      -1.314  -6.389  -3.751  0.00  0.00    -0.454 OA
BRANCH  20  21
ATOM     21  C   UNL     1      -0.745  -7.654  -3.412  0.00  0.00    +0.328 C 
BRANCH  21  22
ATOM     22  C   UNL     1      -0.679  -8.522  -4.642  0.00  0.00    +0.255 C 
ATOM     23  O   UNL     1      -1.081  -8.098  -5.705  0.00  0.00    -0.272 OA
ATOM     24  N   UNL     1      -0.175  -9.769  -4.561  0.00  0.00    -0.282 N 
ATOM     25  H   UNL     1       0.220 -10.080  -3.731  0.00  0.00    +0.155 HD
BRANCH  24  26
ATOM     26  C   UNL     1      -0.220 -10.612  -5.669  0.00  0.00    +0.046 A 
ATOM     27  C   UNL     1      -1.189 -10.428  -6.646  0.00  0.00    +0.024 A 
ATOM     28  C   UNL     1      -1.232 -11.265  -7.743  0.00  0.00    +0.002 A 
ATOM     29  C   UNL     1      -0.311 -12.292  -7.879  0.00  0.00    +0.001 A 
ATOM     30  C   UNL     1       0.657 -12.489  -6.919  0.00  0.00    +0.015 A 
ATOM     31  C   UNL     1       0.717 -11.647  -5.806  0.00  0.00    +0.058 A 
BRANCH  31  32
ATOM     32  C   UNL     1       1.756 -11.849  -4.778  0.00  0.00    +0.246 C 
ATOM     33  O   UNL     1       1.747 -11.176  -3.765  0.00  0.00    -0.270 OA
ATOM     34  N   UNL     1       2.714 -12.779  -4.961  0.00  0.00    -0.308 N 
ATOM     35  H   UNL     1       2.720 -13.316  -5.769  0.00  0.00    +0.149 HD
BRANCH  34  36
ATOM     36  C   UNL     1       3.745 -12.979  -3.940  0.00  0.00    +0.073 C 
ATOM     37  C   UNL     1       5.189 -13.142  -4.417  0.00  0.00    +0.024 C 
ATOM     38  C   UNL     1       4.421 -14.350  -3.878  0.00  0.00    +0.024 C 
ENDBRANCH  34  36
ENDBRANCH  31  32
ENDBRANCH  24  26
ENDBRANCH  21  22
ENDBRANCH  20  21
ENDBRANCH   1  20
TORSDOF 8
