REMARK  Name = ZINC14989326
REMARK  4 active torsions:
REMARK  status: ('A' for Active; 'I' for Inactive)
REMARK    1  A    between atoms: C_8  and  N_55
REMARK    2  A    between atoms: C_10  and  N_55
REMARK    3  A    between atoms: N_21  and  C_24
REMARK    4  A    between atoms: C_24  and  C_25
REMARK                            x       y       z     vdW  Elec       q    Type
REMARK                         _______ _______ _______ _____ _____    ______ ____
ROOT
ATOM      1  C   UNL     1       2.052   6.251   0.390  0.00  0.00    -0.066 C 
ATOM      2  C   UNL     1       0.824   5.859  -0.438  0.00  0.00    -0.011 C 
ATOM      3  C   UNL     1       0.300   4.498   0.022  0.00  0.00    +0.035 C 
ATOM      4  C   UNL     1       1.451   3.497   0.006  0.00  0.00    -0.023 A 
ATOM      5  C   UNL     1       2.733   3.919  -0.004  0.00  0.00    -0.006 A 
ATOM      6  S   UNL     1       3.705   2.437  -0.022  0.00  0.00    -0.073 S 
ATOM      7  C   UNL     1       2.384   1.252  -0.014  0.00  0.00    +0.116 A 
ATOM      8  C   UNL     1       1.229   2.051   0.001  0.00  0.00    +0.076 A 
ATOM      9  C   UNL     1      -0.016   1.342   0.009  0.00  0.00    +0.263 A 
ATOM     10  O   UNL     1      -1.074   1.947   0.018  0.00  0.00    -0.267 OA
ATOM     11  N   UNL     1       0.002  -0.004   0.002  0.00  0.00    -0.294 N 
ATOM     12  C   UNL     1       1.171  -0.695  -0.013  0.00  0.00    +0.203 A 
ATOM     13  N   UNL     1       2.322  -0.076  -0.021  0.00  0.00    -0.230 NA
ATOM     14  C   UNL     1       3.221   5.336  -0.000  0.00  0.00    +0.027 C 
ENDROOT
BRANCH   1  15
ATOM     15  N   UNL     1       2.404   7.654   0.104  0.00  0.00    +0.383 N 
ATOM     16  H   UNL     1       2.995   7.691  -0.735  0.00  0.00    -0.085 HD
ATOM     17  H   UNL     1       1.545   8.193  -0.058  0.00  0.00    -0.085 HD
BRANCH  15  25
ATOM     18  C   UNL     1       4.484  12.287   3.344  0.00  0.00    +0.000 A 
ATOM     19  C   UNL     1       3.443  11.957   4.191  0.00  0.00    +0.000 A 
ATOM     20  C   UNL     1       2.644  10.866   3.909  0.00  0.00    +0.004 A 
ATOM     21  C   UNL     1       2.882  10.101   2.779  0.00  0.00    -0.046 A 
ATOM     22  C   UNL     1       3.923  10.431   1.932  0.00  0.00    -0.046 A 
ATOM     23  C   UNL     1       4.723  11.525   2.217  0.00  0.00    +0.004 A 
ATOM     24  C   UNL     1       3.975   9.451   0.780  0.00  0.00    +0.020 C 
ATOM     25  C   UNL     1       3.138   8.240   1.242  0.00  0.00    -0.063 C 
ATOM     26  C   UNL     1       2.163   8.873   2.257  0.00  0.00    +0.020 C 
ENDBRANCH  15  25
ENDBRANCH   1  15
BRANCH  11  27
ATOM     27  C   UNL     1      -1.265  -0.739   0.010  0.00  0.00    +0.164 C 
BRANCH  27  28
ATOM     28  C   UNL     1      -1.713  -0.983  -1.408  0.00  0.00    +0.008 A 
ATOM     29  C   UNL     1      -1.591  -2.243  -1.964  0.00  0.00    +0.008 A 
ATOM     30  C   UNL     1      -2.002  -2.467  -3.265  0.00  0.00    +0.000 A 
ATOM     31  C   UNL     1      -2.537  -1.433  -4.010  0.00  0.00    +0.003 A 
ATOM     32  C   UNL     1      -2.661  -0.173  -3.456  0.00  0.00    +0.039 A 
ATOM     33  C   UNL     1      -2.253   0.052  -2.152  0.00  0.00    +0.128 A 
ATOM     34  F   UNL     1      -2.379   1.282  -1.607  0.00  0.00    -0.205 F 
ENDBRANCH  27  28
ENDBRANCH  11  27
TORSDOF 4
