REMARK  Name = ZINC11855639
REMARK  9 active torsions:
REMARK  status: ('A' for Active; 'I' for Inactive)
REMARK    1  A    between atoms: C_1  and  C_2
REMARK    2  A    between atoms: C_2  and  C_3
REMARK    3  A    between atoms: C_2  and  C_4
REMARK    4  A    between atoms: C_13  and  N_22
REMARK    5  A    between atoms: C_15  and  C_17
REMARK    6  A    between atoms: C_23  and  C_25
REMARK    7  A    between atoms: C_25  and  C_26
REMARK    8  A    between atoms: C_26  and  C_27
REMARK    9  A    between atoms: C_26  and  C_33
REMARK                            x       y       z     vdW  Elec       q    Type
REMARK                         _______ _______ _______ _____ _____    ______ ____
ROOT
ATOM      1  C   UNL     1      -1.276   2.178   6.867  0.00  0.00    +0.053 A 
ATOM      2  C   UNL     1      -1.343   1.995   8.217  0.00  0.00    +0.093 A 
ATOM      3  C   UNL     1      -0.513   1.028   8.814  0.00  0.00    +0.253 A 
ATOM      4  O   UNL     1      -0.546   0.837  10.018  0.00  0.00    -0.268 OA
ATOM      5  N   UNL     1       0.316   0.310   8.026  0.00  0.00    -0.291 N 
ATOM      6  H   UNL     1       0.894  -0.365   8.414  0.00  0.00    +0.172 HD
ATOM      7  C   UNL     1       0.342   0.541   6.686  0.00  0.00    +0.234 A 
ATOM      8  N   UNL     1      -0.436   1.447   6.135  0.00  0.00    -0.217 NA
ATOM      9  N   UNL     1       1.198  -0.194   5.888  0.00  0.00    -0.185 N 
ATOM     10  C   UNL     1       1.257  -0.152   4.524  0.00  0.00    +0.132 A 
ATOM     11  C   UNL     1       2.220  -1.022   4.127  0.00  0.00    +0.074 A 
ATOM     12  C   UNL     1       2.775  -1.609   5.284  0.00  0.00    +0.102 A 
ATOM     13  N   UNL     1       2.156  -1.112   6.335  0.00  0.00    -0.162 NA
ENDROOT
BRANCH  12  14
ATOM     14  C   UNL     1       3.858  -2.615   5.311  0.00  0.00    +0.039 A 
ATOM     15  C   UNL     1       4.439  -3.229   6.388  0.00  0.00    +0.018 A 
ATOM     16  C   UNL     1       5.444  -4.144   6.167  0.00  0.00    +0.008 A 
ATOM     17  C   UNL     1       5.827  -4.410   4.892  0.00  0.00    +0.046 A 
ATOM     18  S   UNL     1       4.745  -3.350   3.947  0.00  0.00    -0.095 S 
ENDBRANCH  12  14
BRANCH  10  19
ATOM     19  N   UNL     1       0.468   0.637   3.690  0.00  0.00    -0.270 N 
ATOM     20  C   UNL     1       0.552   0.497   2.352  0.00  0.00    +0.219 C 
ATOM     21  O   UNL     1       1.315  -0.316   1.874  0.00  0.00    -0.275 OA
ATOM     22  H   UNL     1      -0.142   1.287   4.072  0.00  0.00    +0.156 HD
BRANCH  20  23
ATOM     23  C   UNL     1      -0.302   1.350   1.450  0.00  0.00    +0.109 C 
BRANCH  23  24
ATOM     24  C   UNL     1      -0.015   0.995  -0.010  0.00  0.00    +0.058 C 
BRANCH  24  25
ATOM     25  C   UNL     1       1.408   1.360  -0.346  0.00  0.00    -0.040 A 
ATOM     26  C   UNL     1       2.251   0.417  -0.903  0.00  0.00    +0.004 A 
ATOM     27  C   UNL     1       3.555   0.753  -1.215  0.00  0.00    +0.000 A 
ATOM     28  C   UNL     1       4.018   2.030  -0.961  0.00  0.00    +0.000 A 
ATOM     29  C   UNL     1       3.177   2.972  -0.399  0.00  0.00    +0.000 A 
ATOM     30  C   UNL     1       1.872   2.637  -0.092  0.00  0.00    +0.004 A 
ENDBRANCH  24  25
BRANCH  24  31
ATOM     31  C   UNL     1      -0.955   1.758  -0.907  0.00  0.00    -0.040 A 
ATOM     32  C   UNL     1      -1.073   3.130  -0.777  0.00  0.00    +0.004 A 
ATOM     33  C   UNL     1      -1.932   3.831  -1.603  0.00  0.00    +0.000 A 
ATOM     34  C   UNL     1      -2.679   3.159  -2.553  0.00  0.00    +0.000 A 
ATOM     35  C   UNL     1      -2.565   1.788  -2.679  0.00  0.00    +0.000 A 
ATOM     36  C   UNL     1      -1.703   1.087  -1.856  0.00  0.00    +0.004 A 
ENDBRANCH  24  31
ENDBRANCH  23  24
ENDBRANCH  20  23
ENDBRANCH  10  19
BRANCH   1  38
ATOM     37  C   UNL     1      -1.277   4.245   5.497  0.00  0.00    +0.014 C 
ATOM     38  C   UNL     1      -2.153   3.207   6.202  0.00  0.00    +0.032 C 
ATOM     39  C   UNL     1      -3.057   2.521   5.176  0.00  0.00    +0.014 C 
ENDBRANCH   1  38
TORSDOF 7
