REMARK  Name = ZINC44785438
REMARK  5 active torsions:
REMARK  status: ('A' for Active; 'I' for Inactive)
REMARK    1  A    between atoms: C_1  and  C_2
REMARK    2  A    between atoms: C_2  and  C_3
REMARK    3  A    between atoms: C_2  and  C_4
REMARK    4  A    between atoms: C_2  and  C_8
REMARK    5  A    between atoms: N_5  and  O_6
REMARK                            x       y       z     vdW  Elec       q    Type
REMARK                         _______ _______ _______ _____ _____    ______ ____
ROOT
ATOM      1  C   UNL     1       0.773  -0.390  -1.235  0.00  0.00    +0.228 C 
ATOM      2  O   UNL     1       0.233  -1.031  -2.111  0.00  0.00    -0.275 OA
ATOM      3  N   UNL     1       2.067  -0.034  -1.361  0.00  0.00    -0.300 N 
ATOM      4  C   UNL     1       2.712   0.817  -0.351  0.00  0.00    +0.108 C 
ATOM      5  C   UNL     1       3.981   0.117   0.143  0.00  0.00    +0.023 C 
ATOM      6  C   UNL     1       4.874  -0.220  -1.054  0.00  0.00    -0.005 C 
ATOM      7  C   UNL     1       6.155  -0.891  -0.553  0.00  0.00    +0.004 C 
ATOM      8  C   UNL     1       7.051  -1.238  -1.743  0.00  0.00    +0.000 C 
ATOM      9  C   UNL     1       6.308  -2.195  -2.677  0.00  0.00    +0.000 C 
ATOM     10  C   UNL     1       5.030  -1.523  -3.182  0.00  0.00    +0.005 C 
ATOM     11  C   UNL     1       4.131  -1.171  -1.995  0.00  0.00    +0.010 C 
ATOM     12  C   UNL     1       2.862  -0.494  -2.507  0.00  0.00    +0.111 C 
ENDROOT
BRANCH   1  14
ATOM     13  C   UNL     1       0.647  -0.617   1.231  0.00  0.00    +0.028 C 
ATOM     14  C   UNL     1      -0.002   0.008  -0.005  0.00  0.00    +0.100 C 
ATOM     15  C   UNL     1      -1.444  -0.486  -0.129  0.00  0.00    +0.028 C 
BRANCH  14  16
ATOM     16  C   UNL     1       0.005   1.509   0.129  0.00  0.00    +0.146 C 
ATOM     17  N   UNL     1       0.513   2.062   1.180  0.00  0.00    -0.076 NA
ATOM     18  N   UNL     1      -0.530   2.292  -0.870  0.00  0.00    -0.343 N 
ATOM     19  H   UNL     1      -0.912   1.877  -1.659  0.00  0.00    +0.144 HD
ATOM     20  H   UNL     1      -0.526   3.258  -0.784  0.00  0.00    +0.144 HD
BRANCH  17  21
ATOM     21  O   UNL     1       0.519   3.472   1.306  0.00  0.00    -0.408 OA
ATOM     22  H   UNL     1       0.920   3.792   2.126  0.00  0.00    +0.328 HD
ENDBRANCH  17  21
ENDBRANCH  14  16
ENDBRANCH   1  14
TORSDOF 3
