REMARK  Name = ZINC24536214
REMARK  4 active torsions:
REMARK  status: ('A' for Active; 'I' for Inactive)
REMARK    1  A    between atoms: C_10  and  C_12
REMARK    2  A    between atoms: C_12  and  O_14
REMARK    3  A    between atoms: O_14  and  C_15
REMARK    4  A    between atoms: C_15  and  C_16
REMARK                            x       y       z     vdW  Elec       q    Type
REMARK                         _______ _______ _______ _____ _____    ______ ____
ROOT
ATOM      1  C   UNL     1      -5.944   4.665  -9.226  0.00  0.00    +0.001 A 
ATOM      2  C   UNL     1      -5.614   4.631 -10.570  0.00  0.00    +0.004 A 
ATOM      3  C   UNL     1      -4.359   4.219 -10.978  0.00  0.00    +0.046 A 
ATOM      4  C   UNL     1      -3.416   3.835 -10.043  0.00  0.00    +0.129 A 
ATOM      5  C   UNL     1      -3.751   3.885  -8.671  0.00  0.00    +0.031 A 
ATOM      6  C   UNL     1      -5.015   4.293  -8.274  0.00  0.00    +0.012 A 
ATOM      7  C   UNL     1      -2.692   3.490  -7.752  0.00  0.00    +0.030 A 
ATOM      8  C   UNL     1      -1.356   3.350  -8.159  0.00  0.00    +0.005 A 
ATOM      9  C   UNL     1      -0.465   2.972  -7.191  0.00  0.00    +0.030 A 
ATOM     10  C   UNL     1      -0.914   2.745  -5.896  0.00  0.00    +0.097 A 
ATOM     11  S   UNL     1      -2.664   3.089  -6.037  0.00  0.00    -0.081 S 
ATOM     12  C   UNL     1      -1.036   3.637  -9.622  0.00  0.00    +0.265 C 
ATOM     13  O   UNL     1      -2.194   3.387 -10.416  0.00  0.00    -0.487 OA
ENDROOT
BRANCH  10  14
ATOM     14  C   UNL     1      -0.151   2.337  -4.718  0.00  0.00    +0.346 C 
ATOM     15  O   UNL     1       1.047   2.145  -4.806  0.00  0.00    -0.244 OA
BRANCH  14  16
ATOM     16  O   UNL     1      -0.775   2.173  -3.533  0.00  0.00    -0.458 OA
BRANCH  16  17
ATOM     17  C   UNL     1       0.032   1.773  -2.424  0.00  0.00    +0.264 C 
BRANCH  17  18
ATOM     18  C   UNL     1      -0.844   1.640  -1.177  0.00  0.00    +0.156 C 
ATOM     19  C   UNL     1      -0.013   1.086   0.008  0.00  0.00    +0.037 C 
ATOM     20  C   UNL     1      -0.823   1.628   1.217  0.00  0.00    +0.031 C 
ATOM     21  C   UNL     1      -1.334   2.985   0.686  0.00  0.00    +0.160 C 
ATOM     22  O   UNL     1      -1.297   2.933  -0.745  0.00  0.00    -0.373 OA
ENDBRANCH  17  18
ENDBRANCH  16  17
ENDBRANCH  14  16
ENDBRANCH  10  14
TORSDOF 4
