REMARK  Name = ZINC02050180
REMARK  14 active torsions:
REMARK  status: ('A' for Active; 'I' for Inactive)
REMARK    1  A    between atoms: C_1  and  C_2
REMARK    2  A    between atoms: C_2  and  C_3
REMARK    3  A    between atoms: N_5  and  C_6
REMARK    4  A    between atoms: C_6  and  C_7
REMARK    5  A    between atoms: C_6  and  C_12
REMARK    6  A    between atoms: C_6  and  N_16
REMARK    7  A    between atoms: C_7  and  O_9
REMARK    8  A    between atoms: O_9  and  C_10
REMARK    9  A    between atoms: C_10  and  C_11
REMARK   10  A    between atoms: N_16  and  C_17
REMARK   11  A    between atoms: C_18  and  C_27
REMARK   12  A    between atoms: N_23  and  C_26
REMARK   13  A    between atoms: C_27  and  O_29
REMARK   14  A    between atoms: O_29  and  C_30
REMARK                            x       y       z     vdW  Elec       q    Type
REMARK                         _______ _______ _______ _____ _____    ______ ____
ROOT
ATOM      1  N   UNL     1       1.541  -3.642  -2.784  0.00  0.00    -0.301 N 
ATOM      2  H   UNL     1       1.173  -4.175  -2.062  0.00  0.00    +0.149 HD
ENDROOT
BRANCH   1   3
ATOM      3  C   UNL     1       2.033  -4.261  -3.917  0.00  0.00    +0.082 A 
ATOM      4  C   UNL     1       1.998  -5.613  -4.235  0.00  0.00    +0.090 A 
ATOM      5  C   UNL     1       2.591  -6.009  -5.499  0.00  0.00    -0.025 A 
ATOM      6  C   UNL     1       3.111  -4.986  -6.213  0.00  0.00    -0.021 A 
ATOM      7  S   UNL     1       2.805  -3.551  -5.229  0.00  0.00    -0.080 S 
ATOM      8  C   UNL     1       3.787  -5.092  -7.544  0.00  0.00    -0.036 C 
ATOM      9  N   UNL     1       4.135  -6.506  -7.775  0.00  0.00    +0.381 N 
ATOM     10  C   UNL     1       2.956  -7.350  -7.540  0.00  0.00    -0.074 C 
ATOM     11  C   UNL     1       2.654  -7.430  -6.040  0.00  0.00    +0.018 C 
ATOM     12  C   UNL     1       4.590  -6.678  -9.162  0.00  0.00    -0.096 C 
ATOM     13  H   UNL     1       4.874  -6.778  -7.144  0.00  0.00    -0.082 HD
BRANCH   4  14
ATOM     14  C   UNL     1       1.391  -6.594  -3.336  0.00  0.00    +0.342 C 
ATOM     15  O   UNL     1       0.209  -6.866  -3.441  0.00  0.00    -0.245 OA
BRANCH  14  16
ATOM     16  O   UNL     1       2.140  -7.198  -2.391  0.00  0.00    -0.464 OA
ATOM     17  C   UNL     1       1.482  -8.146  -1.548  0.00  0.00    +0.280 C 
ENDBRANCH  14  16
ENDBRANCH   4  14
ENDBRANCH   1   3
BRANCH   1  18
ATOM     18  C   UNL     1       1.575  -2.182  -2.674  0.00  0.00    +0.295 C 
BRANCH  18  21
ATOM     19  C   UNL     1       1.821  -2.067  -0.253  0.00  0.00    +0.215 C 
ATOM     20  O   UNL     1       2.829  -2.734  -0.351  0.00  0.00    -0.276 OA
ATOM     21  N   UNL     1       1.093  -1.780  -1.350  0.00  0.00    -0.278 N 
ATOM     22  H   UNL     1       0.250  -1.308  -1.263  0.00  0.00    +0.152 HD
BRANCH  19  24
ATOM     23  C   UNL     1       2.376  -2.022   2.164  0.00  0.00    +0.013 C 
ATOM     24  C   UNL     1       1.382  -1.559   1.096  0.00  0.00    +0.092 C 
ENDBRANCH  19  24
ENDBRANCH  18  21
BRANCH  18  25
ATOM     25  C   UNL     1       0.677  -1.568  -3.751  0.00  0.00    +0.438 C 
ATOM     26  F   UNL     1       0.758  -0.173  -3.686  0.00  0.00    -0.166 F 
ATOM     27  F   UNL     1       1.100  -2.002  -5.013  0.00  0.00    -0.166 F 
ATOM     28  F   UNL     1      -0.646  -1.969  -3.539  0.00  0.00    -0.166 F 
ENDBRANCH  18  25
BRANCH  18  29
ATOM     29  C   UNL     1       2.989  -1.696  -2.863  0.00  0.00    +0.359 C 
ATOM     30  O   UNL     1       3.824  -2.434  -3.330  0.00  0.00    -0.246 OA
BRANCH  29  31
ATOM     31  O   UNL     1       3.321  -0.444  -2.511  0.00  0.00    -0.462 OA
BRANCH  31  32
ATOM     32  C   UNL     1       4.680  -0.051  -2.718  0.00  0.00    +0.229 C 
ATOM     33  C   UNL     1       4.866   1.397  -2.261  0.00  0.00    +0.048 C 
ENDBRANCH  31  32
ENDBRANCH  29  31
ENDBRANCH  18  29
ENDBRANCH   1  18
TORSDOF 10
