REMARK  Name = ZINC22347200
REMARK  13 active torsions:
REMARK  status: ('A' for Active; 'I' for Inactive)
REMARK    1  A    between atoms: C_1  and  C_2
REMARK    2  A    between atoms: C_2  and  C_3
REMARK    3  A    between atoms: C_6  and  N_9
REMARK    4  A    between atoms: N_9  and  C_10
REMARK    5  A    between atoms: N_9  and  S_28
REMARK    6  A    between atoms: C_10  and  C_11
REMARK    7  A    between atoms: N_13  and  C_14
REMARK    8  A    between atoms: C_14  and  C_16
REMARK    9  A    between atoms: C_14  and  C_18
REMARK   10  A    between atoms: C_16  and  C_17
REMARK   11  A    between atoms: C_21  and  S_24
REMARK   12  A    between atoms: S_24  and  C_27
REMARK   13  A    between atoms: S_28  and  C_31
REMARK                            x       y       z     vdW  Elec       q    Type
REMARK                         _______ _______ _______ _____ _____    ______ ____
ROOT
ATOM      1  N   UNL     1      -2.539   5.887  -0.022  0.00  0.00    -0.194 N 
ENDROOT
BRANCH   1   5
ATOM      2  C   UNL     1      -2.059   6.411  -4.124  0.00  0.00    -0.048 A 
ATOM      3  C   UNL     1      -1.403   5.379  -3.479  0.00  0.00    +0.005 A 
ATOM      4  C   UNL     1      -1.560   5.202  -2.119  0.00  0.00    +0.025 A 
ATOM      5  C   UNL     1      -2.378   6.063  -1.398  0.00  0.00    +0.052 A 
ATOM      6  C   UNL     1      -3.039   7.096  -2.050  0.00  0.00    +0.025 A 
ATOM      7  C   UNL     1      -2.874   7.270  -3.410  0.00  0.00    +0.005 A 
BRANCH   2   9
ATOM      8  C   UNL     1      -2.953   5.798  -6.355  0.00  0.00    +0.009 C 
ATOM      9  C   UNL     1      -1.885   6.601  -5.609  0.00  0.00    +0.032 C 
ENDBRANCH   2   9
ENDBRANCH   1   5
BRANCH   1  10
ATOM     10  S   UNL     1      -4.047   5.617   0.607  0.00  0.00    +0.075 S 
ATOM     11  O   UNL     1      -4.870   5.202  -0.474  0.00  0.00    -0.150 OA
ATOM     12  O   UNL     1      -3.865   4.826   1.774  0.00  0.00    -0.150 OA
BRANCH  10  13
ATOM     13  C   UNL     1      -4.673   7.174   1.147  0.00  0.00    +0.109 A 
ATOM     14  C   UNL     1      -4.343   7.654   2.401  0.00  0.00    +0.029 A 
ATOM     15  C   UNL     1      -4.829   8.877   2.823  0.00  0.00    +0.002 A 
ATOM     16  C   UNL     1      -5.654   9.615   1.995  0.00  0.00    +0.000 A 
ATOM     17  C   UNL     1      -5.988   9.133   0.743  0.00  0.00    +0.002 A 
ATOM     18  C   UNL     1      -5.497   7.912   0.319  0.00  0.00    +0.029 A 
ENDBRANCH  10  13
ENDBRANCH   1  10
BRANCH   1  19
ATOM     19  C   UNL     1      -1.375   5.941   0.865  0.00  0.00    +0.227 C 
BRANCH  19  20
ATOM     20  C   UNL     1      -0.718   4.585   0.915  0.00  0.00    +0.233 C 
ATOM     21  O   UNL     1      -1.178   3.665   0.273  0.00  0.00    -0.274 OA
ATOM     22  N   UNL     1       0.380   4.396   1.673  0.00  0.00    -0.307 N 
ATOM     23  H   UNL     1       0.797   5.230   2.256  0.00  0.00    +0.149 HD
BRANCH  22  24
ATOM     24  C   UNL     1       1.018   3.078   1.721  0.00  0.00    +0.103 C 
BRANCH  24  25
ATOM     25  C   UNL     1       1.777   2.934   3.015  0.00  0.00    -0.027 A 
ATOM     26  C   UNL     1       2.497   4.003   3.517  0.00  0.00    +0.007 A 
ATOM     27  C   UNL     1       3.189   3.872   4.706  0.00  0.00    +0.027 A 
ATOM     28  C   UNL     1       3.170   2.671   5.389  0.00  0.00    +0.088 A 
ATOM     29  C   UNL     1       2.454   1.601   4.885  0.00  0.00    +0.027 A 
ATOM     30  C   UNL     1       1.758   1.732   3.698  0.00  0.00    +0.007 A 
BRANCH  28  31
ATOM     31  S   UNL     1       4.058   2.502   6.901  0.00  0.00    -0.006 S 
ATOM     32  O   UNL     1       4.133   3.821   7.426  0.00  0.00    -0.170 OA
ATOM     33  O   UNL     1       3.375   1.478   7.611  0.00  0.00    -0.170 OA
ATOM     34  C   UNL     1       5.708   1.930   6.412  0.00  0.00    +0.200 C 
ENDBRANCH  28  31
ENDBRANCH  24  25
BRANCH  24  35
ATOM     35  C   UNL     1       1.986   2.936   0.544  0.00  0.00    +0.024 C 
ATOM     36  C   UNL     1       1.199   2.957  -0.768  0.00  0.00    +0.006 C 
ENDBRANCH  24  35
ENDBRANCH  22  24
ENDBRANCH  19  20
ENDBRANCH   1  19
TORSDOF 10
