REMARK  Name = ZINC67613781
REMARK  5 active torsions:
REMARK  status: ('A' for Active; 'I' for Inactive)
REMARK    1  A    between atoms: C_9  and  N_14
REMARK    2  A    between atoms: N_17  and  C_18
REMARK    3  A    between atoms: C_18  and  C_19
REMARK    4  A    between atoms: N_24  and  C_25
REMARK    5  A    between atoms: C_25  and  C_26
REMARK                            x       y       z     vdW  Elec       q    Type
REMARK                         _______ _______ _______ _____ _____    ______ ____
ROOT
ATOM      1  N   UNL     1      -2.239  -0.042   0.920  0.00  0.00    -0.293 N 
ATOM      2  C   UNL     1      -2.951   1.026   0.509  0.00  0.00    +0.300 C 
ATOM      3  O   UNL     1      -2.835   1.431  -0.631  0.00  0.00    -0.253 OA
ATOM      4  N   UNL     1      -3.791   1.645   1.362  0.00  0.00    -0.301 N 
ATOM      5  H   UNL     1      -2.332  -0.366   1.830  0.00  0.00    +0.151 HD
ATOM      6  H   UNL     1      -3.884   1.321   2.272  0.00  0.00    +0.150 HD
ENDROOT
BRANCH   1  15
ATOM      7  C   UNL     1      -0.017   1.405   0.010  0.00  0.00    +0.012 A 
ATOM      8  C   UNL     1       1.153   2.100   0.002  0.00  0.00    +0.070 A 
ATOM      9  C   UNL     1       2.366   1.391  -0.015  0.00  0.00    +0.249 A 
ATOM     10  O   UNL     1       3.428   1.993  -0.026  0.00  0.00    -0.268 OA
ATOM     11  N   UNL     1       2.353   0.048  -0.018  0.00  0.00    -0.326 N 
ATOM     12  H   UNL     1       3.195  -0.433  -0.030  0.00  0.00    +0.169 HD
ATOM     13  C   UNL     1       1.182  -0.655  -0.005  0.00  0.00    +0.024 A 
ATOM     14  C   UNL     1       0.002  -0.004   0.002  0.00  0.00    -0.008 A 
ATOM     15  C   UNL     1      -1.326  -0.715  -0.007  0.00  0.00    +0.106 C 
ATOM     16  C   UNL     1      -1.162  -2.172   0.419  0.00  0.00    +0.027 C 
ATOM     17  C   UNL     1      -0.038  -2.793  -0.420  0.00  0.00    +0.008 C 
ATOM     18  C   UNL     1       1.284  -2.159   0.007  0.00  0.00    +0.054 C 
ENDBRANCH   1  15
BRANCH   4  19
ATOM     19  C   UNL     1      -4.565   2.806   0.915  0.00  0.00    +0.090 C 
BRANCH  19  20
ATOM     20  C   UNL     1      -5.433   3.315   2.068  0.00  0.00    -0.051 C 
ATOM     21  C   UNL     1      -6.122   4.634   1.663  0.00  0.00    -0.016 C 
ATOM     22  C   UNL     1      -6.074   5.470   2.969  0.00  0.00    -0.020 C 
ATOM     23  C   UNL     1      -4.707   5.044   3.562  0.00  0.00    -0.078 C 
ATOM     24  N   UNL     1      -4.589   3.602   3.242  0.00  0.00    +0.383 N 
ATOM     25  H   UNL     1      -3.628   3.377   3.033  0.00  0.00    -0.081 HD
BRANCH  24  26
ATOM     26  C   UNL     1      -5.044   2.800   4.386  0.00  0.00    -0.075 C 
BRANCH  26  27
ATOM     27  C   UNL     1      -4.092   3.007   5.565  0.00  0.00    -0.028 C 
ATOM     28  C   UNL     1      -2.711   2.454   5.208  0.00  0.00    +0.002 C 
ATOM     29  C   UNL     1      -1.758   2.660   6.387  0.00  0.00    +0.000 C 
ATOM     30  C   UNL     1      -2.299   1.925   7.615  0.00  0.00    +0.000 C 
ATOM     31  C   UNL     1      -3.680   2.478   7.972  0.00  0.00    +0.000 C 
ATOM     32  C   UNL     1      -4.633   2.272   6.793  0.00  0.00    +0.002 C 
ENDBRANCH  26  27
ENDBRANCH  24  26
ENDBRANCH  19  20
ENDBRANCH   4  19
TORSDOF 5
