REMARK  Name = ZINC39662602
REMARK  5 active torsions:
REMARK  status: ('A' for Active; 'I' for Inactive)
REMARK    1  A    between atoms: C_4  and  C_7
REMARK    2  A    between atoms: C_7  and  C_9
REMARK    3  A    between atoms: C_7  and  N_11
REMARK    4  A    between atoms: C_12  and  C_14
REMARK    5  A    between atoms: C_25  and  C_27
REMARK                            x       y       z     vdW  Elec       q    Type
REMARK                         _______ _______ _______ _____ _____    ______ ____
ROOT
ATOM      1  C   UNL     1       4.624  -3.561  -2.423  0.00  0.00    +0.100 C 
ATOM      2  C   UNL     1       4.209  -4.820  -1.629  0.00  0.00    +0.121 C 
ATOM      3  N   UNL     1       4.981  -5.924  -2.248  0.00  0.00    -0.295 N 
ATOM      4  C   UNL     1       6.311  -5.332  -2.527  0.00  0.00    +0.115 C 
ATOM      5  C   UNL     1       6.004  -3.901  -3.010  0.00  0.00    -0.004 C 
ATOM      6  C   UNL     1       7.056  -2.930  -2.483  0.00  0.00    -0.010 C 
ATOM      7  C   UNL     1       8.408  -3.251  -3.126  0.00  0.00    -0.082 C 
ATOM      8  N   UNL     1       8.297  -3.139  -4.585  0.00  0.00    +0.379 N 
ATOM      9  C   UNL     1       7.352  -4.141  -5.093  0.00  0.00    -0.082 C 
ATOM     10  C   UNL     1       5.955  -3.857  -4.534  0.00  0.00    -0.010 C 
ATOM     11  C   UNL     1       4.566  -7.181  -2.500  0.00  0.00    +0.265 C 
ATOM     12  O   UNL     1       5.347  -8.002  -2.939  0.00  0.00    -0.268 OA
ATOM     13  H   UNL     1       7.970  -2.216  -4.827  0.00  0.00    -0.086 HD
ATOM     14  H   UNL     1       9.203  -3.292  -5.003  0.00  0.00    -0.086 HD
ENDROOT
BRANCH  11  15
ATOM     15  C   UNL     1       3.157  -7.563  -2.242  0.00  0.00    +0.126 A 
ATOM     16  C   UNL     1       2.770  -8.902  -2.402  0.00  0.00    +0.033 A 
ATOM     17  C   UNL     1       1.475  -9.267  -2.167  0.00  0.00    +0.012 A 
ATOM     18  C   UNL     1       0.565  -8.270  -1.767  0.00  0.00    +0.000 A 
ATOM     19  C   UNL     1      -0.781  -8.575  -1.508  0.00  0.00    +0.010 A 
ATOM     20  C   UNL     1      -1.634  -7.585  -1.123  0.00  0.00    +0.001 A 
ATOM     21  C   UNL     1      -1.189  -6.272  -0.981  0.00  0.00    +0.002 A 
ATOM     22  C   UNL     1       0.108  -5.939  -1.223  0.00  0.00    +0.028 A 
ATOM     23  C   UNL     1       1.021  -6.934  -1.624  0.00  0.00    +0.072 A 
ATOM     24  N   UNL     1       2.298  -6.637  -1.862  0.00  0.00    -0.242 NA
ENDBRANCH  11  15
BRANCH   1  26
ATOM     25  N   UNL     1       4.653  -1.123  -2.009  0.00  0.00    -0.296 N 
ATOM     26  C   UNL     1       4.723  -2.370  -1.504  0.00  0.00    +0.219 C 
ATOM     27  O   UNL     1       4.865  -2.535  -0.311  0.00  0.00    -0.275 OA
ATOM     28  H   UNL     1       4.539  -0.991  -2.963  0.00  0.00    +0.150 HD
BRANCH  25  29
ATOM     29  C   UNL     1       4.750   0.035  -1.116  0.00  0.00    +0.207 C 
BRANCH  29  33
ATOM     30  C   UNL     1       6.178   3.409  -3.311  0.00  0.00    +0.000 A 
ATOM     31  C   UNL     1       6.626   3.183  -2.023  0.00  0.00    +0.000 A 
ATOM     32  C   UNL     1       6.164   2.091  -1.313  0.00  0.00    +0.006 A 
ATOM     33  C   UNL     1       5.253   1.226  -1.890  0.00  0.00    -0.013 A 
ATOM     34  C   UNL     1       4.804   1.453  -3.178  0.00  0.00    +0.006 A 
ATOM     35  C   UNL     1       5.268   2.545  -3.888  0.00  0.00    +0.000 A 
ENDBRANCH  29  33
BRANCH  29  36
ATOM     36  C   UNL     1       3.421   0.337  -0.559  0.00  0.00    +0.090 C 
ATOM     37  N   UNL     1       2.395   0.571  -0.130  0.00  0.00    -0.194 NA
ENDBRANCH  29  36
ENDBRANCH  25  29
ENDBRANCH   1  26
TORSDOF 5
