REMARK  Name = ZINC12992066
REMARK  8 active torsions:
REMARK  status: ('A' for Active; 'I' for Inactive)
REMARK    1  A    between atoms: C_1  and  C_2
REMARK    2  A    between atoms: C_5  and  C_8
REMARK    3  A    between atoms: N_13  and  C_14
REMARK    4  A    between atoms: C_14  and  C_15
REMARK    5  A    between atoms: N_17  and  C_18
REMARK    6  A    between atoms: C_18  and  C_19
REMARK    7  A    between atoms: C_18  and  C_20
REMARK    8  A    between atoms: C_25  and  C_26
REMARK                            x       y       z     vdW  Elec       q    Type
REMARK                         _______ _______ _______ _____ _____    ______ ____
ROOT
ATOM      1  C   UNL     1       0.868  -4.605   2.286  0.00  0.00    +0.221 C 
ENDROOT
BRANCH   1   7
ATOM      2  C   UNL     1      -0.120  -4.244  -0.031  0.00  0.00    +0.165 A 
ATOM      3  N   UNL     1      -0.450  -5.039  -1.022  0.00  0.00    -0.128 NA
ATOM      4  N   UNL     1      -0.208  -6.260  -0.705  0.00  0.00    -0.121 NA
ATOM      5  C   UNL     1       0.291  -6.320   0.510  0.00  0.00    +0.203 A 
ATOM      6  S   UNL     1       0.776  -7.780   1.369  0.00  0.00    -0.009 SA
ATOM      7  N   UNL     1       0.369  -5.040   0.979  0.00  0.00    -0.293 N 
BRANCH   2  12
ATOM      8  C   UNL     1      -0.609   1.489   0.064  0.00  0.00    +0.044 C 
ATOM      9  C   UNL     1      -0.481  -0.013   0.039  0.00  0.00    -0.050 A 
ATOM     10  C   UNL     1      -0.471  -0.683  -1.171  0.00  0.00    +0.004 A 
ATOM     11  C   UNL     1      -0.354  -2.057  -1.201  0.00  0.00    +0.012 A 
ATOM     12  C   UNL     1      -0.246  -2.771  -0.007  0.00  0.00    +0.019 A 
ATOM     13  C   UNL     1      -0.256  -2.089   1.211  0.00  0.00    +0.012 A 
ATOM     14  C   UNL     1      -0.368  -0.714   1.226  0.00  0.00    +0.004 A 
ENDBRANCH   2  12
ENDBRANCH   1   7
BRANCH   1  15
ATOM     15  C   UNL     1      -0.257  -4.637   3.288  0.00  0.00    +0.233 C 
ATOM     16  O   UNL     1      -1.366  -4.989   2.945  0.00  0.00    -0.274 OA
ATOM     17  N   UNL     1      -0.031  -4.276   4.567  0.00  0.00    -0.307 N 
ATOM     18  H   UNL     1       0.856  -3.994   4.841  0.00  0.00    +0.149 HD
BRANCH  17  19
ATOM     19  C   UNL     1      -1.124  -4.307   5.542  0.00  0.00    +0.100 C 
ATOM     20  C   UNL     1      -1.186  -5.689   6.194  0.00  0.00    +0.033 C 
BRANCH  19  21
ATOM     21  C   UNL     1      -0.883  -3.261   6.600  0.00  0.00    -0.025 A 
ATOM     22  C   UNL     1       0.407  -2.860   6.894  0.00  0.00    +0.006 A 
ATOM     23  C   UNL     1       0.628  -1.902   7.865  0.00  0.00    +0.000 A 
ATOM     24  C   UNL     1      -0.441  -1.344   8.542  0.00  0.00    +0.000 A 
ATOM     25  C   UNL     1      -1.731  -1.744   8.247  0.00  0.00    +0.004 A 
ATOM     26  C   UNL     1      -1.952  -2.700   7.273  0.00  0.00    -0.046 A 
ATOM     27  C   UNL     1      -3.358  -3.133   6.948  0.00  0.00    +0.044 C 
ENDBRANCH  19  21
ENDBRANCH  17  19
ENDBRANCH   1  15
TORSDOF 5
