REMARK  Name = ZINC41845425
REMARK  4 active torsions:
REMARK  status: ('A' for Active; 'I' for Inactive)
REMARK    1  A    between atoms: C_1  and  C_2
REMARK    2  A    between atoms: C_2  and  C_3
REMARK    3  A    between atoms: C_2  and  C_11
REMARK    4  A    between atoms: C_2  and  N_14
REMARK                            x       y       z     vdW  Elec       q    Type
REMARK                         _______ _______ _______ _____ _____    ______ ____
ROOT
ATOM      1  C   UNL     1       0.054   1.524  -0.041  0.00  0.00    +0.007 C 
ATOM      2  C   UNL     1       0.002  -0.004   0.002  0.00  0.00    +0.063 C 
ENDROOT
BRANCH   2   3
ATOM      3  N   UNL     1       0.683  -0.551  -1.179  0.00  0.00    +0.400 N 
ATOM      4  C   UNL     1       2.112  -0.205  -1.128  0.00  0.00    -0.057 C 
ATOM      5  C   UNL     1       2.848  -0.986  -2.219  0.00  0.00    +0.085 C 
ATOM      6  N   UNL     1       2.171  -0.807  -3.501  0.00  0.00    -0.319 N 
ATOM      7  C   UNL     1       0.914  -0.359  -3.596  0.00  0.00    +0.196 C 
ATOM      8  O   UNL     1       0.414  -0.260  -4.696  0.00  0.00    -0.278 OA
ATOM      9  C   UNL     1       0.097   0.026  -2.396  0.00  0.00    +0.021 C 
ATOM     10  H   UNL     1       2.652  -1.022  -4.315  0.00  0.00    +0.149 HD
ATOM     11  H   UNL     1       0.577  -1.554  -1.196  0.00  0.00    -0.079 HD
ENDBRANCH   2   3
BRANCH   2  12
ATOM     12  C   UNL     1       0.689  -0.495   1.250  0.00  0.00    -0.028 A 
ATOM     13  C   UNL     1       1.303   0.405   2.101  0.00  0.00    +0.024 A 
ATOM     14  C   UNL     1       1.934  -0.046   3.247  0.00  0.00    +0.041 A 
ATOM     15  C   UNL     1       1.950  -1.398   3.541  0.00  0.00    +0.021 A 
ATOM     16  C   UNL     1       1.336  -2.298   2.690  0.00  0.00    +0.021 A 
ATOM     17  C   UNL     1       0.701  -1.846   1.547  0.00  0.00    +0.043 A 
ATOM     18 CL   UNL     1      -0.077  -2.976   0.482  0.00  0.00    -0.083 Cl
ATOM     19 CL   UNL     1       2.705   1.084   4.315  0.00  0.00    -0.084 Cl
ENDBRANCH   2  12
BRANCH   2  20
ATOM     20  C   UNL     1      -1.435  -0.458   0.008  0.00  0.00    +0.350 C 
ATOM     21  O   UNL     1      -1.829  -1.245  -0.835  0.00  0.00    -0.248 OA
ATOM     22  O   UNL     1      -2.203  -0.037   0.856  0.00  0.00    -0.248 OA
ENDBRANCH   2  20
TORSDOF 3
