REMARK  Name = ZINC40038429
REMARK  8 active torsions:
REMARK  status: ('A' for Active; 'I' for Inactive)
REMARK    1  A    between atoms: C_1  and  C_2
REMARK    2  A    between atoms: C_4  and  C_37
REMARK    3  A    between atoms: C_6  and  C_36
REMARK    4  A    between atoms: C_7  and  C_11
REMARK    5  A    between atoms: N_13  and  C_14
REMARK    6  A    between atoms: C_15  and  C_25
REMARK    7  A    between atoms: C_20  and  C_24
REMARK    8  A    between atoms: N_27  and  C_28
REMARK                            x       y       z     vdW  Elec       q    Type
REMARK                         _______ _______ _______ _____ _____    ______ ____
ROOT
ATOM      1  C   UNL     1       0.542  -6.590   4.575  0.00  0.00    +0.085 A 
ATOM      2  C   UNL     1       0.487  -6.721   5.954  0.00  0.00    +0.069 A 
ATOM      3  C   UNL     1       0.553  -8.067   6.496  0.00  0.00    -0.023 A 
ATOM      4  C   UNL     1       0.663  -9.035   5.561  0.00  0.00    -0.004 A 
ATOM      5  S   UNL     1       0.668  -8.170   4.018  0.00  0.00    -0.077 S 
ATOM      6  C   UNL     1       0.754 -10.510   5.800  0.00  0.00    +0.046 C 
ATOM      7  C   UNL     1       1.084 -10.739   7.282  0.00  0.00    -0.009 C 
ATOM      8  C   UNL     1       0.146  -9.882   8.137  0.00  0.00    +0.008 C 
ATOM      9  C   UNL     1       0.506  -8.402   7.980  0.00  0.00    +0.037 C 
ATOM     10  C   UNL     1       0.888 -12.217   7.628  0.00  0.00    +0.008 C 
ENDROOT
BRANCH   1  13
ATOM     11  C   UNL     1       0.559  -5.485   2.482  0.00  0.00    +0.284 C 
ATOM     12  O   UNL     1       0.652  -6.562   1.924  0.00  0.00    -0.266 OA
ATOM     13  N   UNL     1       0.498  -5.425   3.827  0.00  0.00    -0.273 N 
ATOM     14  H   UNL     1       0.424  -4.566   4.272  0.00  0.00    +0.156 HD
BRANCH  11  21
ATOM     15  C   UNL     1       0.206   1.492   0.014  0.00  0.00    +0.044 C 
ATOM     16  C   UNL     1       0.304  -0.012   0.013  0.00  0.00    -0.047 A 
ATOM     17  C   UNL     1       0.400  -0.693  -1.193  0.00  0.00    +0.007 A 
ATOM     18  C   UNL     1       0.490  -2.056  -1.213  0.00  0.00    -0.039 A 
ATOM     19  C   UNL     1       0.487  -2.768  -0.011  0.00  0.00    +0.027 A 
ATOM     20  C   UNL     1       0.565  -4.187   0.333  0.00  0.00    +0.008 A 
ATOM     21  C   UNL     1       0.512  -4.249   1.689  0.00  0.00    +0.194 A 
ATOM     22  O   UNL     1       0.409  -3.003   2.198  0.00  0.00    -0.450 OA
ATOM     23  C   UNL     1       0.390  -2.083   1.214  0.00  0.00    +0.137 A 
ATOM     24  C   UNL     1       0.304  -0.695   1.210  0.00  0.00    +0.050 A 
ATOM     25  C   UNL     1       0.681  -5.346  -0.623  0.00  0.00    +0.048 C 
ATOM     26  C   UNL     1       0.593  -2.789  -2.526  0.00  0.00    +0.044 C 
ENDBRANCH  11  21
ENDBRANCH   1  13
BRANCH   2  27
ATOM     27  C   UNL     1       0.367  -5.550   6.828  0.00  0.00    +0.247 C 
ATOM     28  O   UNL     1      -0.733  -5.136   7.142  0.00  0.00    -0.270 OA
ATOM     29  N   UNL     1       1.476  -4.933   7.283  0.00  0.00    -0.307 N 
ATOM     30  H   UNL     1       2.352  -5.264   7.033  0.00  0.00    +0.149 HD
BRANCH  29  31
ATOM     31  C   UNL     1       1.356  -3.763   8.157  0.00  0.00    +0.096 C 
ATOM     32  C   UNL     1       1.217  -2.491   7.304  0.00  0.00    +0.046 C 
ATOM     33  C   UNL     1       1.411  -1.238   8.191  0.00  0.00    +0.168 C 
ATOM     34  S   UNL     1       2.517  -1.855   9.526  0.00  0.00    -0.029 S 
ATOM     35  O   UNL     1       1.833  -1.770  10.769  0.00  0.00    -0.174 OA
ATOM     36  O   UNL     1       3.793  -1.247   9.387  0.00  0.00    -0.174 OA
ATOM     37  C   UNL     1       2.637  -3.624   9.028  0.00  0.00    +0.188 C 
ENDBRANCH  29  31
ENDBRANCH   2  27
TORSDOF 4
