REMARK  Name = ZINC36782177
REMARK  6 active torsions:
REMARK  status: ('A' for Active; 'I' for Inactive)
REMARK    1  A    between atoms: C_2  and  N_20
REMARK    2  A    between atoms: C_5  and  S_8
REMARK    3  A    between atoms: S_8  and  N_11
REMARK    4  A    between atoms: N_11  and  C_12
REMARK    5  A    between atoms: C_12  and  C_13
REMARK    6  A    between atoms: N_15  and  C_16
REMARK                            x       y       z     vdW  Elec       q    Type
REMARK                         _______ _______ _______ _____ _____    ______ ____
ROOT
ATOM      1  S   UNL     1       1.229  -2.443  -0.024  0.00  0.00    +0.062 S 
ATOM      2  O   UNL     1      -0.017  -2.860  -0.565  0.00  0.00    -0.153 OA
ATOM      3  O   UNL     1       2.474  -2.831  -0.589  0.00  0.00    -0.153 OA
ENDROOT
BRANCH   1   8
ATOM      4  C   UNL     1      -0.017   1.378   0.010  0.00  0.00    +0.044 A 
ATOM      5  C   UNL     1       1.177   2.088   0.002  0.00  0.00    +0.027 A 
ATOM      6  C   UNL     1       2.387   1.406  -0.013  0.00  0.00    +0.044 A 
ATOM      7  C   UNL     1       2.400   0.023  -0.021  0.00  0.00    +0.070 A 
ATOM      8  C   UNL     1       1.209  -0.681  -0.014  0.00  0.00    +0.142 A 
ATOM      9  C   UNL     1       0.002  -0.004   0.002  0.00  0.00    +0.070 A 
ATOM     10 CL   UNL     1      -1.490  -0.892   0.011  0.00  0.00    -0.081 Cl
ATOM     11 CL   UNL     1       3.912  -0.830  -0.040  0.00  0.00    -0.081 Cl
BRANCH   5  12
ATOM     12  N   UNL     1       1.161   3.484   0.009  0.00  0.00    -0.358 N 
ATOM     13  H   UNL     1       0.316   3.959   0.019  0.00  0.00    +0.142 HD
ATOM     14  H   UNL     1       1.996   3.979   0.004  0.00  0.00    +0.142 HD
ENDBRANCH   5  12
ENDBRANCH   1   8
BRANCH   1  15
ATOM     15  N   UNL     1       1.250  -2.941   1.555  0.00  0.00    -0.181 NA
ATOM     16  H   UNL     1       2.020  -3.417   1.904  0.00  0.00    +0.149 HD
BRANCH  15  17
ATOM     17  C   UNL     1       0.104  -2.664   2.426  0.00  0.00    +0.201 C 
BRANCH  17  18
ATOM     18  C   UNL     1       0.198  -3.515   3.666  0.00  0.00    +0.229 C 
ATOM     19  O   UNL     1       1.129  -4.279   3.808  0.00  0.00    -0.274 OA
ATOM     20  N   UNL     1      -0.753  -3.429   4.616  0.00  0.00    -0.311 N 
ATOM     21  H   UNL     1      -1.498  -2.818   4.502  0.00  0.00    +0.149 HD
BRANCH  20  22
ATOM     22  C   UNL     1      -0.663  -4.256   5.821  0.00  0.00    +0.073 C 
ATOM     23  C   UNL     1      -1.943  -4.937   6.309  0.00  0.00    +0.024 C 
ATOM     24  C   UNL     1      -1.366  -3.749   7.082  0.00  0.00    +0.024 C 
ENDBRANCH  20  22
ENDBRANCH  17  18
ENDBRANCH  15  17
ENDBRANCH   1  15
TORSDOF 6
