REMARK  Name = ZINC63698407
REMARK  9 active torsions:
REMARK  status: ('A' for Active; 'I' for Inactive)
REMARK    1  A    between atoms: C_4  and  S_7
REMARK    2  A    between atoms: S_7  and  N_10
REMARK    3  A    between atoms: C_15  and  C_17
REMARK    4  A    between atoms: C_17  and  C_18
REMARK    5  A    between atoms: C_18  and  N_19
REMARK    6  A    between atoms: C_20  and  C_22
REMARK    7  A    between atoms: N_24  and  C_25
REMARK    8  A    between atoms: C_25  and  C_26
REMARK    9  A    between atoms: C_26  and  C_27
REMARK                            x       y       z     vdW  Elec       q    Type
REMARK                         _______ _______ _______ _____ _____    ______ ____
ROOT
ATOM      1  N   UNL     1       3.222  -4.214  -0.658  0.00  0.00    -0.308 N 
ATOM      2  C   UNL     1       3.771  -4.758  -1.763  0.00  0.00    +0.299 C 
ATOM      3  O   UNL     1       4.937  -4.551  -2.026  0.00  0.00    -0.265 OA
ATOM      4  H   UNL     1       2.290  -4.380  -0.449  0.00  0.00    +0.149 HD
ENDROOT
BRANCH   2   5
ATOM      5  C   UNL     1       2.943  -5.615  -2.664  0.00  0.00    +0.299 C 
ATOM      6  O   UNL     1       1.776  -5.822  -2.402  0.00  0.00    -0.265 OA
ATOM      7  N   UNL     1       3.492  -6.159  -3.769  0.00  0.00    -0.307 N 
ATOM      8  H   UNL     1       4.424  -5.993  -3.979  0.00  0.00    +0.149 HD
BRANCH   7   9
ATOM      9  C   UNL     1       2.680  -6.999  -4.652  0.00  0.00    +0.109 C 
BRANCH   9  10
ATOM     10  C   UNL     1       3.537  -7.485  -5.823  0.00  0.00    +0.052 C 
BRANCH  10  11
ATOM     11  C   UNL     1       2.702  -8.350  -6.732  0.00  0.00    -0.040 C 
ATOM     12  C   UNL     1       2.048  -7.961  -7.850  0.00  0.00    -0.001 A 
ATOM     13  C   UNL     1       1.922  -6.665  -8.528  0.00  0.00    +0.010 A 
ATOM     14  C   UNL     1       1.181  -6.584  -9.656  0.00  0.00    +0.001 A 
ATOM     15  C   UNL     1       0.532  -7.704 -10.193  0.00  0.00    +0.002 A 
ATOM     16  C   UNL     1       0.600  -8.928  -9.627  0.00  0.00    +0.026 A 
ATOM     17  C   UNL     1       1.353  -9.128  -8.437  0.00  0.00    +0.043 A 
ATOM     18  N   UNL     1       1.568 -10.198  -7.711  0.00  0.00    -0.380 N 
ATOM     19  C   UNL     1       2.431  -9.831  -6.582  0.00  0.00    +0.144 C 
ATOM     20  H   UNL     1       1.219 -11.085  -7.891  0.00  0.00    +0.160 HD
ENDBRANCH  10  11
ENDBRANCH   9  10
ENDBRANCH   7   9
ENDBRANCH   2   5
BRANCH   1  21
ATOM     21  C   UNL     1       4.034  -3.373   0.225  0.00  0.00    +0.106 C 
BRANCH  21  22
ATOM     22  C   UNL     1       3.177  -2.887   1.395  0.00  0.00    +0.039 C 
BRANCH  22  28
ATOM     23  N   UNL     1       3.265  -1.750   3.565  0.00  0.00    -0.173 NA
ATOM     24  C   UNL     1       3.949  -1.116   4.700  0.00  0.00    +0.110 C 
ATOM     25  C   UNL     1       5.154  -1.977   5.092  0.00  0.00    +0.017 C 
ATOM     26  C   UNL     1       6.042  -2.193   3.865  0.00  0.00    +0.003 C 
ATOM     27  C   UNL     1       5.250  -2.934   2.785  0.00  0.00    +0.021 C 
ATOM     28  C   UNL     1       4.048  -2.090   2.369  0.00  0.00    +0.081 C 
BRANCH  23  29
ATOM     29  S   UNL     1       1.644  -2.081   3.634  0.00  0.00    +0.061 S 
ATOM     30  O   UNL     1       1.146  -1.952   2.310  0.00  0.00    -0.153 OA
ATOM     31  O   UNL     1       1.122  -1.328   4.721  0.00  0.00    -0.153 OA
BRANCH  29  35
ATOM     32  C   UNL     1       1.212  -6.444   4.761  0.00  0.00    +0.000 A 
ATOM     33  C   UNL     1       1.433  -5.495   5.742  0.00  0.00    +0.002 A 
ATOM     34  C   UNL     1       1.565  -4.163   5.398  0.00  0.00    +0.028 A 
ATOM     35  C   UNL     1       1.477  -3.779   4.073  0.00  0.00    +0.105 A 
ATOM     36  C   UNL     1       1.257  -4.728   3.092  0.00  0.00    +0.028 A 
ATOM     37  C   UNL     1       1.124  -6.060   3.436  0.00  0.00    +0.002 A 
ENDBRANCH  29  35
ENDBRANCH  23  29
ENDBRANCH  22  28
ENDBRANCH  21  22
ENDBRANCH   1  21
TORSDOF 9
