REMARK  Name = ZINC19940672
REMARK  10 active torsions:
REMARK  status: ('A' for Active; 'I' for Inactive)
REMARK    1  A    between atoms: C_1  and  O_2
REMARK    2  A    between atoms: O_2  and  C_3
REMARK    3  A    between atoms: C_6  and  N_9
REMARK    4  A    between atoms: N_12  and  C_15
REMARK    5  A    between atoms: C_15  and  C_17
REMARK    6  A    between atoms: C_15  and  C_31
REMARK    7  A    between atoms: C_21  and  O_29
REMARK    8  A    between atoms: O_29  and  C_30
REMARK    9  A    between atoms: N_35  and  C_36
REMARK   10  A    between atoms: C_36  and  C_37
REMARK                            x       y       z     vdW  Elec       q    Type
REMARK                         _______ _______ _______ _____ _____    ______ ____
ROOT
ATOM      1  C   UNL     1       3.512   0.638  -0.028  0.00  0.00    +0.162 C 
ENDROOT
BRANCH   1   2
ATOM      2  C   UNL     1       4.027   0.263   1.338  0.00  0.00    +0.042 A 
ATOM      3  C   UNL     1       4.726   1.167   2.068  0.00  0.00    +0.021 A 
ATOM      4  C   UNL     1       5.213   0.772   3.391  0.00  0.00    +0.002 A 
ATOM      5  C   UNL     1       5.940   1.663   4.188  0.00  0.00    +0.055 A 
ATOM      6  C   UNL     1       6.384   1.258   5.431  0.00  0.00    +0.121 A 
ATOM      7  C   UNL     1       6.112  -0.029   5.890  0.00  0.00    +0.047 A 
ATOM      8  C   UNL     1       5.397  -0.914   5.114  0.00  0.00    +0.030 A 
ATOM      9  C   UNL     1       4.941  -0.527   3.859  0.00  0.00    +0.049 A 
ATOM     10  N   UNL     1       4.223  -1.400   3.066  0.00  0.00    -0.322 N 
ATOM     11  H   UNL     1       4.009  -2.418   3.423  0.00  0.00    +0.169 HD
ATOM     12  C   UNL     1       3.775  -1.025   1.855  0.00  0.00    +0.254 A 
ATOM     13  O   UNL     1       3.139  -1.821   1.185  0.00  0.00    -0.268 OA
BRANCH   6  14
ATOM     14  O   UNL     1       7.091   2.119   6.210  0.00  0.00    -0.495 OA
ATOM     15  C   UNL     1       7.521   1.637   7.484  0.00  0.00    +0.277 C 
ENDBRANCH   6  14
ENDBRANCH   1   2
BRANCH   1  19
ATOM     16  N   UNL     1       5.431  -1.171  -3.327  0.00  0.00    -0.327 N 
ATOM     17  C   UNL     1       3.965  -1.079  -3.349  0.00  0.00    +0.120 C 
ATOM     18  C   UNL     1       3.509  -0.001  -2.364  0.00  0.00    +0.104 C 
ATOM     19  N   UNL     1       3.993  -0.335  -1.017  0.00  0.00    -0.286 NA
ATOM     20  C   UNL     1       5.460  -0.427  -0.995  0.00  0.00    +0.104 C 
ATOM     21  C   UNL     1       5.915  -1.506  -1.981  0.00  0.00    +0.120 C 
BRANCH  16  25
ATOM     22  C   UNL     1       6.797  -3.933  -6.135  0.00  0.00    +0.120 A 
ATOM     23  C   UNL     1       7.703  -3.248  -5.338  0.00  0.00    +0.047 A 
ATOM     24  C   UNL     1       7.252  -2.333  -4.408  0.00  0.00    +0.027 A 
ATOM     25  C   UNL     1       5.890  -2.098  -4.270  0.00  0.00    +0.030 A 
ATOM     26  C   UNL     1       4.983  -2.788  -5.064  0.00  0.00    +0.027 A 
ATOM     27  C   UNL     1       5.437  -3.698  -5.998  0.00  0.00    +0.047 A 
BRANCH  22  29
ATOM     28  C   UNL     1       6.255  -5.502  -7.838  0.00  0.00    +0.277 C 
ATOM     29  O   UNL     1       7.243  -4.833  -7.051  0.00  0.00    -0.495 OA
ENDBRANCH  22  29
ENDBRANCH  16  25
ENDBRANCH   1  19
BRANCH   1  30
ATOM     30  C   UNL     1       2.005   0.637  -0.014  0.00  0.00    +0.173 A 
ATOM     31  N   UNL     1       1.223  -0.415  -0.012  0.00  0.00    -0.111 NA
ATOM     32  N   UNL     1       0.002  -0.004   0.002  0.00  0.00    -0.023 NA
ATOM     33  N   UNL     1      -0.015   1.283   0.009  0.00  0.00    -0.044 NA
ATOM     34  N   UNL     1       1.200   1.716  -0.000  0.00  0.00    -0.225 N 
BRANCH  34  35
ATOM     35  C   UNL     1       1.625   3.118   0.003  0.00  0.00    +0.179 C 
BRANCH  35  36
ATOM     36  C   UNL     1       1.787   3.599   1.446  0.00  0.00    +0.140 C 
ATOM     37  C   UNL     1       2.288   5.064   1.472  0.00  0.00    +0.035 C 
ATOM     38  C   UNL     1       1.773   5.528   2.862  0.00  0.00    +0.031 C 
ATOM     39  C   UNL     1       0.447   4.749   2.996  0.00  0.00    +0.160 C 
ATOM     40  O   UNL     1       0.512   3.627   2.108  0.00  0.00    -0.375 OA
ENDBRANCH  35  36
ENDBRANCH  34  35
ENDBRANCH   1  30
TORSDOF 8
