REMARK  Name = ZINC64971568
REMARK  5 active torsions:
REMARK  status: ('A' for Active; 'I' for Inactive)
REMARK    1  A    between atoms: N_11  and  C_12
REMARK    2  A    between atoms: C_12  and  C_13
REMARK    3  A    between atoms: N_15  and  C_16
REMARK    4  A    between atoms: C_16  and  C_17
REMARK    5  A    between atoms: N_24  and  C_25
REMARK                            x       y       z     vdW  Elec       q    Type
REMARK                         _______ _______ _______ _____ _____    ______ ____
ROOT
ATOM      1  C   UNL     1       1.076   1.120   1.982  0.00  0.00    +0.002 A 
ATOM      2  C   UNL     1       2.352   1.643   1.871  0.00  0.00    +0.002 A 
ATOM      3  C   UNL     1       3.364   0.899   1.293  0.00  0.00    +0.025 A 
ATOM      4  C   UNL     1       3.099  -0.376   0.820  0.00  0.00    +0.058 A 
ATOM      5  C   UNL     1       1.810  -0.900   0.930  0.00  0.00    +0.060 A 
ATOM      6  C   UNL     1       0.802  -0.152   1.512  0.00  0.00    +0.025 A 
ATOM      7  N   UNL     1       1.561  -2.189   0.433  0.00  0.00    -0.245 N 
ATOM      8  C   UNL     1       2.376  -2.660  -0.697  0.00  0.00    +0.211 C 
ATOM      9  C   UNL     1       3.810  -2.254  -0.471  0.00  0.00    +0.238 C 
ATOM     10  O   UNL     1       4.704  -2.932  -0.931  0.00  0.00    -0.273 OA
ATOM     11  N   UNL     1       4.110  -1.148   0.237  0.00  0.00    -0.260 N 
ATOM     12  C   UNL     1       0.606  -2.971   0.974  0.00  0.00    +0.311 C 
ATOM     13  O   UNL     1       0.012  -2.603   1.970  0.00  0.00    -0.252 OA
ATOM     14  N   UNL     1       0.309  -4.159   0.412  0.00  0.00    -0.269 N 
ATOM     15  H   UNL     1       0.833  -4.487  -0.335  0.00  0.00    +0.156 HD
ENDROOT
BRANCH  14  16
ATOM     16  C   UNL     1      -0.757  -4.921   0.907  0.00  0.00    +0.035 A 
ATOM     17  C   UNL     1      -1.883  -4.291   1.421  0.00  0.00    +0.026 A 
ATOM     18  C   UNL     1      -2.933  -5.044   1.908  0.00  0.00    +0.040 A 
ATOM     19  C   UNL     1      -2.864  -6.426   1.885  0.00  0.00    +0.124 A 
ATOM     20  C   UNL     1      -1.742  -7.057   1.373  0.00  0.00    +0.040 A 
ATOM     21  C   UNL     1      -0.692  -6.308   0.880  0.00  0.00    +0.026 A 
ATOM     22  F   UNL     1      -3.892  -7.161   2.363  0.00  0.00    -0.205 F 
ENDBRANCH  14  16
BRANCH  11  23
ATOM     23  C   UNL     1       5.510  -0.749   0.397  0.00  0.00    +0.209 C 
BRANCH  23  24
ATOM     24  C   UNL     1       6.078  -1.392   1.636  0.00  0.00    +0.231 C 
ATOM     25  O   UNL     1       5.381  -2.114   2.318  0.00  0.00    -0.274 OA
ATOM     26  N   UNL     1       7.359  -1.166   1.986  0.00  0.00    -0.309 N 
ATOM     27  H   UNL     1       7.917  -0.589   1.441  0.00  0.00    +0.149 HD
BRANCH  26  28
ATOM     28  C   UNL     1       7.911  -1.792   3.190  0.00  0.00    +0.146 C 
BRANCH  28  29
ATOM     29  C   UNL     1       9.351  -1.381   3.355  0.00  0.00    +0.007 A 
ATOM     30  C   UNL     1       9.865  -0.320   4.024  0.00  0.00    +0.013 A 
ATOM     31  C   UNL     1      11.235  -0.138   4.042  0.00  0.00    +0.008 A 
ATOM     32  C   UNL     1      12.025  -1.026   3.391  0.00  0.00    +0.045 A 
ATOM     33  S   UNL     1      10.825  -2.170   2.727  0.00  0.00    -0.100 S 
ENDBRANCH  28  29
ENDBRANCH  26  28
ENDBRANCH  23  24
ENDBRANCH  11  23
TORSDOF 5
