REMARK  Name = ZINC08175655
REMARK  11 active torsions:
REMARK  status: ('A' for Active; 'I' for Inactive)
REMARK    1  A    between atoms: C_1  and  C_2
REMARK    2  A    between atoms: C_2  and  C_4
REMARK    3  A    between atoms: C_2  and  S_14
REMARK    4  A    between atoms: N_6  and  C_7
REMARK    5  A    between atoms: C_8  and  C_12
REMARK    6  A    between atoms: S_14  and  C_15
REMARK    7  A    between atoms: C_18  and  C_20
REMARK    8  A    between atoms: C_23  and  C_26
REMARK    9  A    between atoms: C_26  and  C_27
REMARK   10  A    between atoms: C_26  and  C_28
REMARK   11  A    between atoms: C_26  and  C_29
REMARK                            x       y       z     vdW  Elec       q    Type
REMARK                         _______ _______ _______ _____ _____    ______ ____
ROOT
ATOM      1  C   UNL     1       0.972   3.718   1.413  0.00  0.00    +0.278 A 
ATOM      2  N   UNL     1       1.931   2.823   1.482  0.00  0.00    -0.101 NA
ATOM      3  N   UNL     1       3.067   3.419   1.574  0.00  0.00    -0.106 NA
ATOM      4  C   UNL     1       2.881   4.716   1.569  0.00  0.00    +0.249 A 
ATOM      5  O   UNL     1       1.551   4.933   1.461  0.00  0.00    -0.411 OA
ENDROOT
BRANCH   4   6
ATOM      6  C   UNL     1       3.931   5.751   1.658  0.00  0.00    +0.039 A 
ATOM      7  C   UNL     1       3.586   7.104   1.636  0.00  0.00    +0.013 A 
ATOM      8  C   UNL     1       4.571   8.065   1.726  0.00  0.00    +0.005 A 
ATOM      9  C   UNL     1       5.900   7.691   1.827  0.00  0.00    -0.042 A 
ATOM     10  C   UNL     1       6.249   6.353   1.844  0.00  0.00    +0.005 A 
ATOM     11  C   UNL     1       5.273   5.381   1.761  0.00  0.00    +0.013 A 
BRANCH   9  12
ATOM     12  C   UNL     1       6.971   8.747   1.918  0.00  0.00    -0.013 C 
ATOM     13  C   UNL     1       7.935   8.599   0.739  0.00  0.00    +0.015 C 
ATOM     14  C   UNL     1       6.326  10.134   1.878  0.00  0.00    +0.015 C 
ATOM     15  C   UNL     1       7.741   8.581   3.229  0.00  0.00    +0.015 C 
ENDBRANCH   9  12
ENDBRANCH   4   6
BRANCH   1  16
ATOM     16  S   UNL     1      -0.753   3.389   1.277  0.00  0.00    -0.053 S 
BRANCH  16  18
ATOM     17  C   UNL     1      -0.013   1.086   0.008  0.00  0.00    +0.029 C 
ATOM     18  C   UNL     1      -0.729   1.579   1.267  0.00  0.00    +0.139 C 
BRANCH  18  19
ATOM     19  C   UNL     1      -2.143   1.058   1.278  0.00  0.00    +0.231 C 
ATOM     20  O   UNL     1      -3.045   1.743   0.846  0.00  0.00    -0.274 OA
ATOM     21  N   UNL     1      -2.404  -0.171   1.767  0.00  0.00    -0.278 N 
ATOM     22  H   UNL     1      -1.682  -0.719   2.112  0.00  0.00    +0.155 HD
BRANCH  21  23
ATOM     23  C   UNL     1      -3.706  -0.651   1.777  0.00  0.00    +0.089 A 
ATOM     24  C   UNL     1      -4.169  -1.880   2.229  0.00  0.00    +0.080 A 
ATOM     25  C   UNL     1      -5.588  -2.119   2.123  0.00  0.00    +0.028 A 
ATOM     26  C   UNL     1      -6.338  -1.139   1.587  0.00  0.00    +0.048 A 
ATOM     27  S   UNL     1      -5.146   0.133   1.220  0.00  0.00    -0.081 S 
BRANCH  24  28
ATOM     28  C   UNL     1      -3.281  -2.861   2.778  0.00  0.00    +0.102 C 
ATOM     29  N   UNL     1      -2.577  -3.638   3.214  0.00  0.00    -0.191 NA
ENDBRANCH  24  28
ENDBRANCH  21  23
ENDBRANCH  18  19
ENDBRANCH  16  18
ENDBRANCH   1  16
TORSDOF 7
