REMARK  Name = ZINC06549405
REMARK  6 active torsions:
REMARK  status: ('A' for Active; 'I' for Inactive)
REMARK    1  A    between atoms: C_1  and  C_2
REMARK    2  A    between atoms: C_5  and  S_9
REMARK    3  A    between atoms: C_7  and  C_8
REMARK    4  A    between atoms: S_9  and  N_12
REMARK    5  A    between atoms: N_12  and  C_13
REMARK    6  A    between atoms: C_22  and  O_23
REMARK                            x       y       z     vdW  Elec       q    Type
REMARK                         _______ _______ _______ _____ _____    ______ ____
ROOT
ATOM      1  N   UNL     1      -2.510   3.781   0.045  0.00  0.00    -0.216 N 
ATOM      2  H   UNL     1      -2.625   4.584  -0.488  0.00  0.00    +0.174 HD
ENDROOT
BRANCH   1   3
ATOM      3  C   UNL     1      -1.243   3.222   0.200  0.00  0.00    +0.056 A 
ATOM      4  C   UNL     1      -1.089   1.854   0.267  0.00  0.00    +0.025 A 
ATOM      5  C   UNL     1       0.171   1.286   0.427  0.00  0.00    +0.003 A 
ATOM      6  C   UNL     1       1.286   2.064   0.510  0.00  0.00    +0.012 A 
ATOM      7  C   UNL     1       1.174   3.462   0.440  0.00  0.00    +0.025 A 
ATOM      8  C   UNL     1      -0.104   4.052   0.283  0.00  0.00    +0.008 A 
ATOM      9  C   UNL     1      -0.215   5.450   0.213  0.00  0.00    +0.010 A 
ATOM     10  C   UNL     1       0.904   6.222   0.297  0.00  0.00    +0.004 A 
ATOM     11  C   UNL     1       2.163   5.647   0.451  0.00  0.00    +0.046 A 
ATOM     12  C   UNL     1       2.311   4.291   0.523  0.00  0.00    +0.125 A 
BRANCH  12  13
ATOM     13  O   UNL     1       3.546   3.745   0.674  0.00  0.00    -0.506 OA
ATOM     14  H   UNL     1       3.994   3.551  -0.161  0.00  0.00    +0.292 HD
ENDBRANCH  12  13
ENDBRANCH   1   3
BRANCH   1  15
ATOM     15  S   UNL     1      -3.821   3.076   0.772  0.00  0.00    +0.072 S 
ATOM     16  O   UNL     1      -4.926   3.940   0.543  0.00  0.00    -0.150 OA
ATOM     17  O   UNL     1      -3.823   1.713   0.369  0.00  0.00    -0.150 OA
BRANCH  15  22
ATOM     18  C   UNL     1      -2.801   3.117   6.718  0.00  0.00    +0.044 C 
ATOM     19  C   UNL     1      -3.056   3.107   5.233  0.00  0.00    -0.047 A 
ATOM     20  C   UNL     1      -2.643   2.031   4.468  0.00  0.00    +0.005 A 
ATOM     21  C   UNL     1      -2.881   2.020   3.107  0.00  0.00    +0.029 A 
ATOM     22  C   UNL     1      -3.523   3.088   2.508  0.00  0.00    +0.109 A 
ATOM     23  C   UNL     1      -3.936   4.163   3.273  0.00  0.00    +0.032 A 
ATOM     24  C   UNL     1      -3.703   4.172   4.636  0.00  0.00    -0.046 A 
ATOM     25  C   UNL     1      -4.153   5.344   5.469  0.00  0.00    +0.044 C 
ENDBRANCH  15  22
ENDBRANCH   1  15
TORSDOF 4
