REMARK  Name = ZINC46561746
REMARK  9 active torsions:
REMARK  status: ('A' for Active; 'I' for Inactive)
REMARK    1  A    between atoms: C_1  and  C_2
REMARK    2  A    between atoms: C_8  and  N_10
REMARK    3  A    between atoms: C_14  and  C_16
REMARK    4  A    between atoms: C_16  and  N_17
REMARK    5  A    between atoms: N_17  and  C_18
REMARK    6  A    between atoms: N_17  and  C_29
REMARK    7  A    between atoms: C_18  and  C_19
REMARK    8  A    between atoms: C_22  and  C_25
REMARK    9  A    between atoms: N_27  and  C_28
REMARK                            x       y       z     vdW  Elec       q    Type
REMARK                         _______ _______ _______ _____ _____    ______ ____
ROOT
ATOM      1  N   UNL     1       6.574   1.381   5.141  0.00  0.00    +0.390 N 
ATOM      2  H   UNL     1       5.928   1.959   5.659  0.00  0.00    -0.080 HD
ENDROOT
BRANCH   1   3
ATOM      3  C   UNL     1       6.697   0.074   5.799  0.00  0.00    -0.068 C 
ATOM      4  C   UNL     1       5.817  -0.187   7.023  0.00  0.00    -0.017 C 
ATOM      5  C   UNL     1       7.320   0.042   7.197  0.00  0.00    -0.017 C 
ENDBRANCH   1   3
BRANCH   1   6
ATOM      6  C   UNL     1       6.076   1.196   3.772  0.00  0.00    +0.020 C 
BRANCH   6  11
ATOM      7  N   UNL     1       2.101  -0.367   1.565  0.00  0.00    -0.296 N 
ATOM      8  C   UNL     1       2.763  -0.113   2.712  0.00  0.00    +0.306 C 
ATOM      9  O   UNL     1       2.231  -0.334   3.782  0.00  0.00    -0.252 OA
ATOM     10  N   UNL     1       4.014   0.385   2.671  0.00  0.00    -0.242 N 
ATOM     11  C   UNL     1       4.676   0.638   3.817  0.00  0.00    +0.204 C 
ATOM     12  O   UNL     1       4.146   0.418   4.885  0.00  0.00    -0.277 OA
ATOM     13  H   UNL     1       2.525  -0.190   0.711  0.00  0.00    +0.151 HD
ATOM     14  H   UNL     1       4.439   0.561   1.817  0.00  0.00    +0.159 HD
BRANCH   7  21
ATOM     15  C   UNL     1      -0.061   0.988   0.194  0.00  0.00    +0.009 C 
ATOM     16  C   UNL     1       0.001  -0.535   0.323  0.00  0.00    +0.006 C 
ATOM     17  C   UNL     1      -1.420  -1.101   0.369  0.00  0.00    +0.005 C 
ATOM     18  C   UNL     1      -1.358  -2.624   0.499  0.00  0.00    +0.000 C 
ATOM     19  C   UNL     1      -0.619  -2.998   1.785  0.00  0.00    +0.002 C 
ATOM     20  C   UNL     1       0.802  -2.432   1.739  0.00  0.00    +0.022 C 
ATOM     21  C   UNL     1       0.741  -0.908   1.609  0.00  0.00    +0.077 C 
ENDBRANCH   7  21
ENDBRANCH   6  11
ENDBRANCH   1   6
BRANCH   1  22
ATOM     22  C   UNL     1       7.889   2.035   5.100  0.00  0.00    -0.042 C 
BRANCH  22  23
ATOM     23  C   UNL     1       7.741   3.425   4.536  0.00  0.00    -0.064 A 
ATOM     24  C   UNL     1       7.965   3.649   3.189  0.00  0.00    +0.002 A 
ATOM     25  C   UNL     1       7.832   4.919   2.667  0.00  0.00    +0.013 A 
ATOM     26  C   UNL     1       7.471   5.979   3.500  0.00  0.00    +0.037 A 
ATOM     27  C   UNL     1       7.247   5.746   4.858  0.00  0.00    +0.013 A 
ATOM     28  C   UNL     1       7.378   4.470   5.366  0.00  0.00    +0.002 A 
BRANCH  26  29
ATOM     29  C   UNL     1       7.327   7.342   2.947  0.00  0.00    +0.244 C 
ATOM     30  O   UNL     1       7.523   7.542   1.764  0.00  0.00    -0.270 OA
ATOM     31  N   UNL     1       6.978   8.363   3.754  0.00  0.00    -0.314 N 
ATOM     32  C   UNL     1       6.835   9.714   3.206  0.00  0.00    +0.128 C 
ATOM     33  H   UNL     1       6.821   8.204   4.698  0.00  0.00    +0.149 HD
ENDBRANCH  26  29
ENDBRANCH  22  23
ENDBRANCH   1  22
TORSDOF 7
