REMARK  Name = ZINC20734090
REMARK  10 active torsions:
REMARK  status: ('A' for Active; 'I' for Inactive)
REMARK    1  A    between atoms: C_1  and  C_2
REMARK    2  A    between atoms: C_5  and  C_36
REMARK    3  A    between atoms: N_8  and  C_10
REMARK    4  A    between atoms: C_10  and  C_11
REMARK    5  A    between atoms: C_11  and  C_12
REMARK    6  A    between atoms: C_12  and  N_13
REMARK    7  A    between atoms: C_14  and  C_16
REMARK    8  A    between atoms: C_26  and  C_27
REMARK    9  A    between atoms: C_30  and  O_33
REMARK   10  A    between atoms: O_33  and  C_34
REMARK                            x       y       z     vdW  Elec       q    Type
REMARK                         _______ _______ _______ _____ _____    ______ ____
ROOT
ATOM      1  C   UNL     1      -0.628  -0.164  -0.868  0.00  0.00    +0.039 A 
ATOM      2  C   UNL     1       0.666  -0.665  -0.698  0.00  0.00    +0.014 A 
ATOM      3  C   UNL     1       0.851  -2.010  -0.469  0.00  0.00    +0.017 A 
ATOM      4  C   UNL     1      -0.241  -2.866  -0.419  0.00  0.00    +0.034 A 
ATOM      5  C   UNL     1      -1.542  -2.382  -0.592  0.00  0.00    +0.048 A 
ATOM      6  C   UNL     1      -1.725  -1.024  -0.816  0.00  0.00    +0.037 A 
ATOM      7  N   UNL     1      -2.664  -3.202  -0.546  0.00  0.00    -0.280 N 
ATOM      8  C   UNL     1      -2.746  -4.411   0.015  0.00  0.00    +0.255 C 
ATOM      9  O   UNL     1      -3.818  -4.984   0.059  0.00  0.00    -0.269 OA
ATOM     10  C   UNL     1      -1.545  -5.059   0.584  0.00  0.00    +0.075 C 
ATOM     11  C   UNL     1      -1.626  -5.957   1.596  0.00  0.00    +0.028 C 
ATOM     12  S   UNL     1       0.008  -4.594  -0.135  0.00  0.00    -0.082 S 
ATOM     13  H   UNL     1      -3.607  -2.869  -1.004  0.00  0.00    +0.155 HD
ENDROOT
BRANCH  11  14
ATOM     14  C   UNL     1      -2.904  -6.168   2.290  0.00  0.00    -0.024 A 
ATOM     15  C   UNL     1      -3.773  -5.092   2.505  0.00  0.00    +0.011 A 
ATOM     16  C   UNL     1      -4.972  -5.297   3.152  0.00  0.00    +0.046 A 
ATOM     17  C   UNL     1      -5.314  -6.567   3.599  0.00  0.00    +0.120 A 
ATOM     18  C   UNL     1      -4.453  -7.638   3.393  0.00  0.00    +0.046 A 
ATOM     19  C   UNL     1      -3.254  -7.446   2.743  0.00  0.00    +0.011 A 
BRANCH  17  20
ATOM     20  O   UNL     1      -6.496  -6.763   4.240  0.00  0.00    -0.495 OA
ATOM     21  C   UNL     1      -7.334  -5.620   4.419  0.00  0.00    +0.277 C 
ENDBRANCH  17  20
ENDBRANCH  11  14
BRANCH   1  23
ATOM     22  N   UNL     1       0.226   2.109  -1.159  0.00  0.00    -0.311 N 
ATOM     23  C   UNL     1      -0.833   1.277  -1.109  0.00  0.00    +0.244 C 
ATOM     24  O   UNL     1      -1.957   1.713  -1.266  0.00  0.00    -0.270 OA
ATOM     25  H   UNL     1       1.243   1.714  -1.021  0.00  0.00    +0.149 HD
BRANCH  22  26
ATOM     26  C   UNL     1       0.022   3.540  -1.398  0.00  0.00    +0.102 C 
BRANCH  26  27
ATOM     27  C   UNL     1       1.375   4.253  -1.407  0.00  0.00    +0.000 C 
BRANCH  27  28
ATOM     28  C   UNL     1       1.163   5.748  -1.657  0.00  0.00    -0.077 C 
BRANCH  28  34
ATOM     29  C   UNL     1       5.152   6.939   0.962  0.00  0.00    +0.005 C 
ATOM     30  C   UNL     1       4.503   6.973  -0.423  0.00  0.00    -0.031 C 
ATOM     31  C   UNL     1       4.415   8.422  -0.910  0.00  0.00    +0.003 C 
ATOM     32  C   UNL     1       3.710   8.453  -2.269  0.00  0.00    -0.031 C 
ATOM     33  C   UNL     1       2.324   7.818  -2.134  0.00  0.00    -0.076 C 
ATOM     34  N   UNL     1       2.462   6.433  -1.666  0.00  0.00    +0.380 N 
ATOM     35  C   UNL     1       3.094   6.381  -0.341  0.00  0.00    -0.076 C 
ATOM     36  C   UNL     1       3.564   9.902  -2.737  0.00  0.00    +0.005 C 
ATOM     37  H   UNL     1       3.120   5.904  -2.372  0.00  0.00    -0.082 HD
ENDBRANCH  28  34
ENDBRANCH  27  28
ENDBRANCH  26  27
ENDBRANCH  22  26
ENDBRANCH   1  23
TORSDOF 7
