REMARK  Name = ZINC09505367
REMARK  9 active torsions:
REMARK  status: ('A' for Active; 'I' for Inactive)
REMARK    1  A    between atoms: C_1  and  C_2
REMARK    2  A    between atoms: C_5  and  C_8
REMARK    3  A    between atoms: C_8  and  S_9
REMARK    4  A    between atoms: S_9  and  C_10
REMARK    5  A    between atoms: C_10  and  C_11
REMARK    6  A    between atoms: C_18  and  C_23
REMARK    7  A    between atoms: N_28  and  C_31
REMARK    8  A    between atoms: C_34  and  O_37
REMARK    9  A    between atoms: O_37  and  C_38
REMARK                            x       y       z     vdW  Elec       q    Type
REMARK                         _______ _______ _______ _____ _____    ______ ____
ROOT
ATOM      1  C   UNL     1       3.280  -7.500  -0.026  0.00  0.00    +0.167 C 
ATOM      2  C   UNL     1       3.344  -9.005  -0.105  0.00  0.00    +0.238 C 
ATOM      3  O   UNL     1       3.485  -9.653   0.911  0.00  0.00    -0.273 OA
ATOM      4  N   UNL     1       3.246  -9.635  -1.290  0.00  0.00    -0.282 N 
ATOM      5  C   UNL     1       3.223  -8.910  -2.487  0.00  0.00    +0.055 A 
ATOM      6  C   UNL     1       2.920  -9.537  -3.680  0.00  0.00    +0.038 A 
ATOM      7  C   UNL     1       2.893  -8.797  -4.866  0.00  0.00    +0.039 A 
ATOM      8  C   UNL     1       3.172  -7.428  -4.843  0.00  0.00    +0.015 A 
ATOM      9  C   UNL     1       3.477  -6.806  -3.651  0.00  0.00    +0.025 A 
ATOM     10  C   UNL     1       3.508  -7.541  -2.475  0.00  0.00    +0.049 A 
ATOM     11  N   UNL     1       3.837  -6.930  -1.261  0.00  0.00    -0.331 N 
ATOM     12  H   UNL     1       3.190 -10.603  -1.314  0.00  0.00    +0.155 HD
ATOM     13  H   UNL     1       4.418  -6.153  -1.233  0.00  0.00    +0.147 HD
ENDROOT
BRANCH   7  14
ATOM     14  C   UNL     1       2.570  -9.462  -6.143  0.00  0.00    +0.247 C 
ATOM     15  O   UNL     1       3.090  -9.083  -7.174  0.00  0.00    -0.270 OA
ATOM     16  N   UNL     1       1.699 -10.491  -6.166  0.00  0.00    -0.295 N 
ATOM     17  C   UNL     1       0.968 -10.879  -4.951  0.00  0.00    +0.127 C 
ATOM     18  C   UNL     1      -0.534 -10.861  -5.256  0.00  0.00    +0.124 C 
ATOM     19  N   UNL     1      -0.771 -11.613  -6.497  0.00  0.00    -0.327 N 
ATOM     20  C   UNL     1      -0.040 -11.225  -7.711  0.00  0.00    +0.124 C 
ATOM     21  C   UNL     1       1.458 -11.239  -7.407  0.00  0.00    +0.127 C 
BRANCH  19  22
ATOM     22  C   UNL     1      -1.676 -12.680  -6.520  0.00  0.00    +0.030 A 
ATOM     23  C   UNL     1      -1.796 -13.463  -7.661  0.00  0.00    +0.027 A 
ATOM     24  C   UNL     1      -2.689 -14.517  -7.683  0.00  0.00    +0.047 A 
ATOM     25  C   UNL     1      -3.465 -14.793  -6.567  0.00  0.00    +0.120 A 
ATOM     26  C   UNL     1      -3.345 -14.012  -5.428  0.00  0.00    +0.047 A 
ATOM     27  C   UNL     1      -2.449 -12.961  -5.402  0.00  0.00    +0.027 A 
BRANCH  25  28
ATOM     28  O   UNL     1      -4.343 -15.831  -6.590  0.00  0.00    -0.495 OA
ATOM     29  C   UNL     1      -5.110 -16.058  -5.406  0.00  0.00    +0.277 C 
ENDBRANCH  25  28
ENDBRANCH  19  22
ENDBRANCH   7  14
BRANCH   1  30
ATOM     30  C   UNL     1       1.823  -7.058   0.130  0.00  0.00    +0.101 C 
BRANCH  30  31
ATOM     31  S   UNL     1       1.748  -5.247   0.218  0.00  0.00    -0.154 S 
BRANCH  31  32
ATOM     32  C   UNL     1      -0.021  -4.890   0.399  0.00  0.00    +0.104 C 
BRANCH  32  37
ATOM     33  C   UNL     1      -0.811   0.825   0.731  0.00  0.00    +0.044 C 
ATOM     34  C   UNL     1      -0.605  -0.665   0.644  0.00  0.00    -0.050 A 
ATOM     35  C   UNL     1      -0.621  -1.295  -0.586  0.00  0.00    +0.003 A 
ATOM     36  C   UNL     1      -0.431  -2.662  -0.665  0.00  0.00    +0.005 A 
ATOM     37  C   UNL     1      -0.226  -3.400   0.486  0.00  0.00    -0.038 A 
ATOM     38  C   UNL     1      -0.209  -2.770   1.716  0.00  0.00    +0.005 A 
ATOM     39  C   UNL     1      -0.394  -1.402   1.795  0.00  0.00    +0.003 A 
ENDBRANCH  32  37
ENDBRANCH  31  32
ENDBRANCH  30  31
ENDBRANCH   1  30
TORSDOF 7
