REMARK  Name = ZINC39791865
REMARK  5 active torsions:
REMARK  status: ('A' for Active; 'I' for Inactive)
REMARK    1  A    between atoms: C_1  and  C_2
REMARK    2  A    between atoms: C_5  and  N_9
REMARK    3  A    between atoms: C_10  and  C_12
REMARK    4  A    between atoms: C_12  and  O_13
REMARK    5  A    between atoms: O_13  and  C_14
REMARK                            x       y       z     vdW  Elec       q    Type
REMARK                         _______ _______ _______ _____ _____    ______ ____
ROOT
ATOM      1  O   UNL     1      -0.232  -6.814  -2.536  0.00  0.00    -0.483 OA
ENDROOT
BRANCH   1   2
ATOM      2  C   UNL     1      -0.324  -8.158  -2.715  0.00  0.00    +0.120 C 
ATOM      3  C   UNL     1      -0.326  -8.954  -1.627  0.00  0.00    +0.047 C 
ATOM      4  C   UNL     1      -0.519 -10.420  -1.802  0.00  0.00    +0.137 C 
ATOM      5  C   UNL     1      -0.075 -10.828  -3.191  0.00  0.00    -0.012 C 
ATOM      6  C   UNL     1       0.583 -12.022  -3.017  0.00  0.00    +0.003 A 
ATOM      7  C   UNL     1       1.102 -12.955  -3.943  0.00  0.00    +0.010 A 
ATOM      8  C   UNL     1       1.729 -14.052  -3.426  0.00  0.00    +0.001 A 
ATOM      9  C   UNL     1       1.871 -14.279  -2.059  0.00  0.00    +0.002 A 
ATOM     10  C   UNL     1       1.392 -13.434  -1.103  0.00  0.00    +0.026 A 
ATOM     11  C   UNL     1       0.717 -12.268  -1.556  0.00  0.00    +0.044 A 
ATOM     12  N   UNL     1       0.152 -11.309  -0.877  0.00  0.00    -0.374 N 
ATOM     13  C   UNL     1      -0.197  -9.988  -4.295  0.00  0.00    +0.010 C 
ATOM     14  C   UNL     1      -0.420  -8.660  -4.034  0.00  0.00    +0.046 C 
ATOM     15  H   UNL     1       0.177 -11.213   0.088  0.00  0.00    +0.161 HD
ENDBRANCH   1   2
BRANCH   1  16
ATOM     16  C   UNL     1      -0.136  -6.343  -1.190  0.00  0.00    +0.324 C 
BRANCH  16  18
ATOM     17  N   UNL     1       0.057  -4.171  -0.023  0.00  0.00    -0.282 N 
ATOM     18  C   UNL     1      -0.042  -4.839  -1.189  0.00  0.00    +0.255 C 
ATOM     19  O   UNL     1      -0.055  -4.230  -2.238  0.00  0.00    -0.272 OA
ATOM     20  H   UNL     1       0.149  -4.660   0.810  0.00  0.00    +0.155 HD
BRANCH  17  25
ATOM     21  C   UNL     1      -0.063   1.502   0.016  0.00  0.00    +0.044 C 
ATOM     22  C   UNL     1      -0.031  -0.005   0.006  0.00  0.00    -0.049 A 
ATOM     23  C   UNL     1      -0.622  -0.701  -1.033  0.00  0.00    +0.005 A 
ATOM     24  C   UNL     1      -0.594  -2.081  -1.045  0.00  0.00    +0.025 A 
ATOM     25  C   UNL     1       0.028  -2.771  -0.013  0.00  0.00    +0.048 A 
ATOM     26  C   UNL     1       0.621  -2.070   1.029  0.00  0.00    +0.039 A 
ATOM     27  C   UNL     1       0.595  -0.688   1.032  0.00  0.00    +0.020 A 
ATOM     28 BR   UNL     1       1.470  -3.004   2.437  0.00  0.00    -0.048 Br
ENDBRANCH  17  25
ENDBRANCH  16  18
ENDBRANCH   1  16
TORSDOF 4
