REMARK  Name = ZINC51128375
REMARK  9 active torsions:
REMARK  status: ('A' for Active; 'I' for Inactive)
REMARK    1  A    between atoms: C_1  and  C_2
REMARK    2  A    between atoms: C_2  and  C_4
REMARK    3  A    between atoms: C_2  and  N_10
REMARK    4  A    between atoms: C_11  and  C_13
REMARK    5  A    between atoms: C_14  and  N_22
REMARK    6  A    between atoms: C_17  and  C_19
REMARK    7  A    between atoms: C_19  and  C_20
REMARK    8  A    between atoms: C_19  and  C_21
REMARK    9  A    between atoms: N_22  and  N_23
REMARK                            x       y       z     vdW  Elec       q    Type
REMARK                         _______ _______ _______ _____ _____    ______ ____
ROOT
ATOM      1  C   UNL     1       0.698  -1.090  -3.575  0.00  0.00    +0.151 A 
ATOM      2  C   UNL     1      -0.017  -1.321  -4.760  0.00  0.00    +0.090 A 
ATOM      3  C   UNL     1       0.692  -1.766  -5.880  0.00  0.00    +0.139 A 
ATOM      4  N   UNL     1       1.995  -1.950  -5.781  0.00  0.00    -0.238 NA
ATOM      5  C   UNL     1       2.633  -1.722  -4.648  0.00  0.00    +0.132 A 
ATOM      6  N   UNL     1       2.014  -1.298  -3.569  0.00  0.00    -0.225 NA
ENDROOT
BRANCH   1   8
ATOM      7  N   UNL     1       0.682  -0.505  -1.196  0.00  0.00    -0.305 N 
ATOM      8  C   UNL     1       0.005  -0.618  -2.356  0.00  0.00    +0.265 C 
ATOM      9  O   UNL     1      -1.176  -0.332  -2.400  0.00  0.00    -0.268 OA
ATOM     10  H   UNL     1       1.624  -0.733  -1.160  0.00  0.00    +0.149 HD
BRANCH   7  12
ATOM     11  C   UNL     1      -0.010   1.492   0.035  0.00  0.00    +0.030 C 
ATOM     12  C   UNL     1      -0.005  -0.038   0.011  0.00  0.00    +0.099 C 
BRANCH  12  13
ATOM     13  C   UNL     1       0.724  -0.565   1.249  0.00  0.00    +0.138 C 
ATOM     14  C   UNL     1      -0.059  -0.179   2.522  0.00  0.00    +0.035 C 
ATOM     15  C   UNL     1       1.080   0.184   3.513  0.00  0.00    +0.031 C 
ATOM     16  C   UNL     1       2.121   0.807   2.548  0.00  0.00    +0.160 C 
ATOM     17  O   UNL     1       2.023   0.034   1.339  0.00  0.00    -0.375 OA
ENDBRANCH  12  13
ENDBRANCH   7  12
ENDBRANCH   1   8
BRANCH   5  18
ATOM     18  C   UNL     1       4.122  -1.950  -4.592  0.00  0.00    +0.051 C 
ATOM     19  C   UNL     1       4.427  -3.413  -4.918  0.00  0.00    +0.015 C 
ATOM     20  C   UNL     1       4.815  -1.045  -5.614  0.00  0.00    +0.015 C 
ENDBRANCH   5  18
BRANCH   2  21
ATOM     21  N   UNL     1      -1.389  -1.115  -4.818  0.00  0.00    -0.280 N 
ATOM     22  H   UNL     1      -1.855  -0.734  -4.057  0.00  0.00    +0.166 HD
BRANCH  21  23
ATOM     23  N   UNL     1      -2.082  -1.447  -5.947  0.00  0.00    -0.256 NA
ATOM     24  H   UNL     1      -3.064  -1.241  -5.843  0.00  0.00    +0.140 HD
ATOM     25  H   UNL     1      -1.700  -0.982  -6.757  0.00  0.00    +0.140 HD
ENDBRANCH  21  23
ENDBRANCH   2  21
TORSDOF 6
