REMARK  Name = ZINC10108556
REMARK  12 active torsions:
REMARK  status: ('A' for Active; 'I' for Inactive)
REMARK    1  A    between atoms: C_1  and  C_2
REMARK    2  A    between atoms: C_2  and  C_3
REMARK    3  A    between atoms: C_9  and  C_10
REMARK    4  A    between atoms: C_9  and  N_72
REMARK    5  A    between atoms: C_10  and  C_11
REMARK    6  A    between atoms: C_11  and  N_12
REMARK    7  A    between atoms: C_20  and  C_32
REMARK    8  A    between atoms: C_21  and  C_31
REMARK    9  A    between atoms: N_22  and  C_23
REMARK   10  A    between atoms: C_28  and  O_29
REMARK   11  A    between atoms: O_29  and  C_30
REMARK   12  A    between atoms: N_33  and  C_36
REMARK                            x       y       z     vdW  Elec       q    Type
REMARK                         _______ _______ _______ _____ _____    ______ ____
ROOT
ATOM      1  N   UNL     1       6.626  -1.135  -3.316  0.00  0.00    -0.259 N 
ATOM      2  C   UNL     1       6.242  -0.909  -2.042  0.00  0.00    +0.283 A 
ATOM      3  O   UNL     1       6.926  -1.303  -1.114  0.00  0.00    -0.265 OA
ATOM      4  C   UNL     1       5.045  -0.215  -1.797  0.00  0.00    +0.157 A 
ATOM      5  C   UNL     1       4.281   0.225  -2.877  0.00  0.00    +0.170 A 
ATOM      6  N   UNL     1       3.213   0.846  -2.385  0.00  0.00    -0.193 NA
ATOM      7  C   UNL     1       3.251   0.828  -1.060  0.00  0.00    +0.223 A 
ATOM      8  N   UNL     1       4.368   0.181  -0.654  0.00  0.00    -0.274 N 
ATOM      9  C   UNL     1       4.385   0.176   0.730  0.00  0.00    +0.044 A 
ATOM     10  C   UNL     1       3.301   0.812   1.165  0.00  0.00    +0.044 A 
ATOM     11  N   UNL     1       2.572   1.224   0.064  0.00  0.00    -0.279 N 
ATOM     12  C   UNL     1       2.929   1.040   2.607  0.00  0.00    +0.066 C 
ATOM     13  C   UNL     1       5.453  -0.441   1.596  0.00  0.00    +0.066 C 
ATOM     14  N   UNL     1       4.729  -0.038  -4.163  0.00  0.00    -0.279 N 
ATOM     15  C   UNL     1       5.883  -0.707  -4.351  0.00  0.00    +0.333 A 
ATOM     16  O   UNL     1       6.261  -0.930  -5.484  0.00  0.00    -0.246 OA
ATOM     17  C   UNL     1       3.948   0.411  -5.318  0.00  0.00    +0.155 C 
ENDROOT
BRANCH  11  18
ATOM     18  C   UNL     1       1.360   1.928   0.093  0.00  0.00    +0.091 A 
ATOM     19  C   UNL     1       0.156   1.238   0.110  0.00  0.00    +0.030 A 
ATOM     20  C   UNL     1      -1.038   1.933   0.132  0.00  0.00    +0.002 A 
ATOM     21  C   UNL     1      -1.037   3.316   0.147  0.00  0.00    +0.004 A 
ATOM     22  C   UNL     1       0.159   4.010   0.131  0.00  0.00    +0.048 A 
ATOM     23  C   UNL     1       1.360   3.321   0.103  0.00  0.00    +0.144 A 
BRANCH  23  24
ATOM     24  O   UNL     1       2.537   4.002   0.086  0.00  0.00    -0.493 OA
ATOM     25  C   UNL     1       2.460   5.429   0.098  0.00  0.00    +0.277 C 
ENDBRANCH  23  24
ENDBRANCH  11  18
BRANCH   1  26
ATOM     26  C   UNL     1       7.873  -1.859  -3.574  0.00  0.00    +0.128 C 
BRANCH  26  27
ATOM     27  C   UNL     1       7.584  -3.359  -3.660  0.00  0.00    +0.003 C 
BRANCH  27  28
ATOM     28  C   UNL     1       8.887  -4.114  -3.931  0.00  0.00    -0.077 C 
BRANCH  28  34
ATOM     29  C   UNL     1       9.741  -6.274  -4.611  0.00  0.00    -0.069 C 
ATOM     30  C   UNL     1       9.362  -7.743  -4.815  0.00  0.00    -0.015 C 
ATOM     31  C   UNL     1       8.995  -8.363  -3.464  0.00  0.00    -0.003 C 
ATOM     32  C   UNL     1       7.846  -7.565  -2.841  0.00  0.00    -0.019 C 
ATOM     33  C   UNL     1       8.269  -6.101  -2.694  0.00  0.00    -0.078 C 
ATOM     34  N   UNL     1       8.586  -5.557  -4.032  0.00  0.00    +0.382 N 
ATOM     35  H   UNL     1       7.772  -5.686  -4.644  0.00  0.00    -0.081 HD
BRANCH  29  37
ATOM     36  C   UNL     1       8.850  -5.644  -6.859  0.00  0.00    +0.002 C 
ATOM     37  C   UNL     1      10.089  -5.646  -5.962  0.00  0.00    -0.019 C 
ENDBRANCH  29  37
ENDBRANCH  28  34
ENDBRANCH  27  28
ENDBRANCH  26  27
ENDBRANCH   1  26
TORSDOF 7
