REMARK  Name = ZINC21777275
REMARK  12 active torsions:
REMARK  status: ('A' for Active; 'I' for Inactive)
REMARK    1  A    between atoms: C_1  and  N_2
REMARK    2  A    between atoms: N_5  and  C_8
REMARK    3  A    between atoms: C_8  and  C_10
REMARK    4  A    between atoms: C_8  and  C_25
REMARK    5  A    between atoms: C_10  and  N_11
REMARK    6  A    between atoms: N_11  and  S_12
REMARK    7  A    between atoms: S_12  and  C_15
REMARK    8  A    between atoms: C_15  and  C_16
REMARK    9  A    between atoms: C_16  and  C_17
REMARK   10  A    between atoms: C_20  and  O_23
REMARK   11  A    between atoms: O_23  and  C_24
REMARK   12  A    between atoms: N_33  and  C_34
REMARK                            x       y       z     vdW  Elec       q    Type
REMARK                         _______ _______ _______ _____ _____    ______ ____
ROOT
ATOM      1  C   UNL     1      -1.463   3.452  -5.549  0.00  0.00    +0.102 C 
ENDROOT
BRANCH   1   2
ATOM      2  C   UNL     1      -1.548   4.946  -5.725  0.00  0.00    -0.029 A 
ATOM      3  C   UNL     1      -2.604   5.649  -5.175  0.00  0.00    +0.007 A 
ATOM      4  C   UNL     1      -2.687   7.016  -5.334  0.00  0.00    +0.024 A 
ATOM      5  C   UNL     1      -1.707   7.699  -6.053  0.00  0.00    +0.033 A 
ATOM      6  C   UNL     1      -0.648   6.984  -6.598  0.00  0.00    -0.025 A 
ATOM      7  C   UNL     1      -0.568   5.617  -6.433  0.00  0.00    +0.010 A 
ATOM      8  C   UNL     1       0.262   7.966  -7.308  0.00  0.00    +0.056 C 
ATOM      9  C   UNL     1      -0.195   9.330  -6.741  0.00  0.00    +0.109 C 
ATOM     10  N   UNL     1      -1.596   9.063  -6.349  0.00  0.00    -0.332 N 
ATOM     11  C   UNL     1      -1.985   9.886  -5.196  0.00  0.00    +0.129 C 
ENDBRANCH   1   2
BRANCH   1  16
ATOM     12  C   UNL     1      -6.100   0.537  -6.927  0.00  0.00    -0.096 C 
ATOM     13  N   UNL     1      -4.760   1.123  -6.795  0.00  0.00    +0.379 N 
ATOM     14  C   UNL     1      -4.783   2.563  -7.089  0.00  0.00    -0.064 C 
ATOM     15  C   UNL     1      -3.359   3.119  -7.018  0.00  0.00    +0.066 C 
ATOM     16  N   UNL     1      -2.803   2.865  -5.681  0.00  0.00    -0.298 NA
ATOM     17  C   UNL     1      -2.780   1.426  -5.388  0.00  0.00    +0.066 C 
ATOM     18  C   UNL     1      -4.204   0.870  -5.458  0.00  0.00    -0.064 C 
ATOM     19  H   UNL     1      -4.105   0.636  -7.533  0.00  0.00    -0.082 HD
ENDBRANCH   1  16
BRANCH   1  20
ATOM     20  C   UNL     1      -0.901   3.133  -4.162  0.00  0.00    +0.129 C 
BRANCH  20  21
ATOM     21  N   UNL     1       0.457   3.670  -4.050  0.00  0.00    -0.193 NA
ATOM     22  H   UNL     1       1.062   3.828  -4.955  0.00  0.00    +0.148 HD
BRANCH  21  23
ATOM     23  S   UNL     1       1.174   3.805  -2.563  0.00  0.00    +0.030 S 
ATOM     24  O   UNL     1       0.224   4.496  -1.764  0.00  0.00    -0.158 OA
ATOM     25  O   UNL     1       2.450   4.373  -2.826  0.00  0.00    -0.158 OA
BRANCH  23  26
ATOM     26  C   UNL     1       1.359   2.098  -1.978  0.00  0.00    +0.189 C 
BRANCH  26  27
ATOM     27  C   UNL     1       2.018   2.101  -0.597  0.00  0.00    +0.059 C 
BRANCH  27  28
ATOM     28  C   UNL     1       2.172   0.683  -0.111  0.00  0.00    -0.046 A 
ATOM     29  C   UNL     1       1.165   0.095   0.632  0.00  0.00    +0.007 A 
ATOM     30  C   UNL     1       1.302  -1.207   1.074  0.00  0.00    +0.046 A 
ATOM     31  C   UNL     1       2.455  -1.920   0.782  0.00  0.00    +0.120 A 
ATOM     32  C   UNL     1       3.467  -1.326   0.041  0.00  0.00    +0.046 A 
ATOM     33  C   UNL     1       3.323  -0.026  -0.403  0.00  0.00    +0.007 A 
BRANCH  31  34
ATOM     34  O   UNL     1       2.594  -3.199   1.220  0.00  0.00    -0.495 OA
ATOM     35  C   UNL     1       1.512  -3.747   1.976  0.00  0.00    +0.277 C 
ENDBRANCH  31  34
ENDBRANCH  27  28
ENDBRANCH  26  27
ENDBRANCH  23  26
ENDBRANCH  21  23
ENDBRANCH  20  21
ENDBRANCH   1  20
TORSDOF 9
