REMARK  Name = ZINC40376889
REMARK  8 active torsions:
REMARK  status: ('A' for Active; 'I' for Inactive)
REMARK    1  A    between atoms: C_1  and  C_2
REMARK    2  A    between atoms: C_2  and  C_3
REMARK    3  A    between atoms: C_3  and  C_4
REMARK    4  A    between atoms: C_4  and  C_6
REMARK    5  A    between atoms: C_4  and  N_10
REMARK    6  A    between atoms: N_7  and  O_8
REMARK    7  A    between atoms: N_10  and  S_11
REMARK    8  A    between atoms: S_11  and  C_14
REMARK                            x       y       z     vdW  Elec       q    Type
REMARK                         _______ _______ _______ _____ _____    ______ ____
ROOT
ATOM      1  N   UNL     1      -0.516  -2.618  -1.375  0.00  0.00    -0.180 NA
ATOM      2  H   UNL     1      -1.186  -2.214  -1.948  0.00  0.00    +0.149 HD
ENDROOT
BRANCH   1   3
ATOM      3  S   UNL     1      -0.895  -3.954  -0.472  0.00  0.00    +0.059 S 
ATOM      4  O   UNL     1      -2.257  -4.255  -0.744  0.00  0.00    -0.153 OA
ATOM      5  O   UNL     1       0.149  -4.895  -0.681  0.00  0.00    -0.153 OA
BRANCH   3   6
ATOM      6  C   UNL     1      -0.812  -3.478   1.222  0.00  0.00    +0.108 A 
ATOM      7  C   UNL     1       0.394  -3.528   1.896  0.00  0.00    +0.048 A 
ATOM      8  C   UNL     1       0.459  -3.155   3.226  0.00  0.00    +0.044 A 
ATOM      9  C   UNL     1      -0.683  -2.730   3.882  0.00  0.00    +0.040 A 
ATOM     10  C   UNL     1      -1.889  -2.680   3.207  0.00  0.00    +0.044 A 
ATOM     11  C   UNL     1      -1.952  -3.048   1.875  0.00  0.00    +0.048 A 
ATOM     12 CL   UNL     1      -3.322  -2.148   4.030  0.00  0.00    -0.083 Cl
ATOM     13 CL   UNL     1       1.973  -3.219   4.073  0.00  0.00    -0.083 Cl
ENDBRANCH   3   6
ENDBRANCH   1   3
BRANCH   1  14
ATOM     14  C   UNL     1       0.831  -2.047  -1.309  0.00  0.00    +0.143 C 
BRANCH  14  15
ATOM     15  C   UNL     1       1.665  -2.594  -2.438  0.00  0.00    +0.150 C 
ATOM     16  N   UNL     1       2.952  -2.638  -2.329  0.00  0.00    -0.075 NA
ATOM     17  N   UNL     1       1.056  -3.048  -3.587  0.00  0.00    -0.343 N 
ATOM     18  H   UNL     1       0.090  -3.016  -3.669  0.00  0.00    +0.144 HD
ATOM     19  H   UNL     1       1.593  -3.400  -4.314  0.00  0.00    +0.144 HD
BRANCH  16  20
ATOM     20  O   UNL     1       3.736  -3.152  -3.390  0.00  0.00    -0.408 OA
ATOM     21  H   UNL     1       4.687  -3.144  -3.217  0.00  0.00    +0.328 HD
ENDBRANCH  16  20
ENDBRANCH  14  15
BRANCH  14  22
ATOM     22  C   UNL     1       0.746  -0.524  -1.429  0.00  0.00    +0.028 C 
BRANCH  22  24
ATOM     23  C   UNL     1       0.002   1.569  -0.285  0.00  0.00    +0.004 C 
ATOM     24  C   UNL     1      -0.020   0.040  -0.231  0.00  0.00    -0.001 C 
ENDBRANCH  22  24
ENDBRANCH  14  22
ENDBRANCH   1  14
TORSDOF 7
