REMARK  Name = ZINC02573127
REMARK  12 active torsions:
REMARK  status: ('A' for Active; 'I' for Inactive)
REMARK    1  A    between atoms: C_1  and  C_2
REMARK    2  A    between atoms: C_2  and  C_3
REMARK    3  A    between atoms: C_2  and  C_4
REMARK    4  A    between atoms: C_2  and  C_5
REMARK    5  A    between atoms: C_7  and  C_16
REMARK    6  A    between atoms: C_9  and  C_12
REMARK    7  A    between atoms: C_10  and  O_11
REMARK    8  A    between atoms: C_12  and  C_13
REMARK    9  A    between atoms: C_12  and  C_14
REMARK   10  A    between atoms: C_12  and  C_15
REMARK   11  A    between atoms: N_17  and  C_18
REMARK   12  A    between atoms: C_21  and  O_25
REMARK                            x       y       z     vdW  Elec       q    Type
REMARK                         _______ _______ _______ _____ _____    ______ ____
ROOT
ATOM      1  C   UNL     1       0.707  -0.490  -1.238  0.00  0.00    +0.000 A 
ATOM      2  C   UNL     1       1.214   0.418  -2.141  0.00  0.00    +0.017 A 
ATOM      3  C   UNL     1       1.869  -0.035  -3.291  0.00  0.00    -0.006 A 
ATOM      4  C   UNL     1       2.006  -1.409  -3.518  0.00  0.00    +0.017 A 
ATOM      5  C   UNL     1       1.495  -2.308  -2.609  0.00  0.00    +0.000 A 
ATOM      6  C   UNL     1       0.850  -1.854  -1.465  0.00  0.00    +0.124 A 
ENDROOT
BRANCH   1   8
ATOM      7  C   UNL     1      -0.019   1.526   0.010  0.00  0.00    +0.015 C 
ATOM      8  C   UNL     1       0.002  -0.004   0.002  0.00  0.00    -0.009 C 
ATOM      9  C   UNL     1       0.742  -0.511   1.242  0.00  0.00    +0.015 C 
ATOM     10  C   UNL     1      -1.433  -0.534   0.013  0.00  0.00    +0.015 C 
ENDBRANCH   1   8
BRANCH   5  11
ATOM     11  C   UNL     1       1.642  -3.788  -2.853  0.00  0.00    -0.009 C 
ATOM     12  C   UNL     1       2.389  -4.018  -4.168  0.00  0.00    +0.015 C 
ATOM     13  C   UNL     1       2.429  -4.419  -1.702  0.00  0.00    +0.015 C 
ATOM     14  C   UNL     1       0.256  -4.431  -2.935  0.00  0.00    +0.015 C 
ENDBRANCH   5  11
BRANCH   6  15
ATOM     15  O   UNL     1       0.353  -2.745  -0.570  0.00  0.00    -0.506 OA
ATOM     16  H   UNL     1      -0.560  -3.011  -0.745  0.00  0.00    +0.292 HD
ENDBRANCH   6  15
BRANCH   3  17
ATOM     17  C   UNL     1       2.413   0.931  -4.259  0.00  0.00    +0.119 C 
ATOM     18  N   UNL     1       3.022   0.507  -5.330  0.00  0.00    -0.255 NA
BRANCH  18  19
ATOM     19  C   UNL     1       3.528   1.405  -6.231  0.00  0.00    +0.067 A 
ATOM     20  C   UNL     1       2.765   2.508  -6.622  0.00  0.00    +0.051 A 
ATOM     21  C   UNL     1       3.279   3.411  -7.530  0.00  0.00    +0.086 A 
ATOM     22  C   UNL     1       4.551   3.224  -8.056  0.00  0.00    +0.153 A 
ATOM     23  C   UNL     1       5.312   2.128  -7.669  0.00  0.00    +0.086 A 
ATOM     24  C   UNL     1       4.809   1.224  -6.756  0.00  0.00    +0.051 A 
ATOM     25 CL   UNL     1       6.902   1.901  -8.329  0.00  0.00    -0.080 Cl
ATOM     26 CL   UNL     1       2.332   4.782  -8.018  0.00  0.00    -0.080 Cl
BRANCH  22  27
ATOM     27  O   UNL     1       5.053   4.116  -8.950  0.00  0.00    -0.504 OA
ATOM     28  H   UNL     1       5.541   4.847  -8.546  0.00  0.00    +0.292 HD
ENDBRANCH  22  27
ENDBRANCH  18  19
ENDBRANCH   3  17
TORSDOF 6
