REMARK  Name = ZINC58398513
REMARK  9 active torsions:
REMARK  status: ('A' for Active; 'I' for Inactive)
REMARK    1  A    between atoms: C_1  and  C_2
REMARK    2  A    between atoms: C_2  and  C_3
REMARK    3  A    between atoms: C_4  and  C_5
REMARK    4  A    between atoms: C_4  and  C_6
REMARK    5  A    between atoms: N_8  and  C_9
REMARK    6  A    between atoms: N_8  and  C_19
REMARK    7  A    between atoms: C_9  and  C_10
REMARK    8  A    between atoms: C_13  and  C_15
REMARK    9  A    between atoms: C_17  and  C_18
REMARK                            x       y       z     vdW  Elec       q    Type
REMARK                         _______ _______ _______ _____ _____    ______ ____
ROOT
ATOM      1  C   UNL     1      -0.884  -1.786  -1.877  0.00  0.00    +0.243 C 
ATOM      2  O   UNL     1      -1.631  -1.497  -0.961  0.00  0.00    -0.270 OA
ATOM      3  N   UNL     1      -1.310  -2.598  -2.864  0.00  0.00    -0.287 N 
ENDROOT
BRANCH   1   5
ATOM      4  C   UNL     1       0.794  -0.263  -2.744  0.00  0.00    -0.019 C 
ATOM      5  C   UNL     1       0.485  -1.248  -1.906  0.00  0.00    +0.008 C 
ATOM      6  C   UNL     1       1.536  -1.813  -0.987  0.00  0.00    +0.049 C 
BRANCH   4   8
ATOM      7  C   UNL     1      -0.354   1.875  -3.255  0.00  0.00    +0.008 C 
ATOM      8  C   UNL     1      -0.281   0.382  -3.580  0.00  0.00    +0.024 C 
ENDBRANCH   4   8
ENDBRANCH   1   5
BRANCH   3   9
ATOM      9  C   UNL     1      -2.710  -3.028  -2.906  0.00  0.00    +0.077 C 
ATOM     10  C   UNL     1      -3.716  -2.242  -2.062  0.00  0.00    +0.024 C 
ATOM     11  C   UNL     1      -3.296  -3.651  -1.637  0.00  0.00    +0.024 C 
ENDBRANCH   3   9
BRANCH   3  12
ATOM     12  C   UNL     1      -0.374  -3.051  -3.895  0.00  0.00    +0.182 C 
BRANCH  12  13
ATOM     13  C   UNL     1       0.272  -4.340  -3.456  0.00  0.00    +0.122 A 
ATOM     14  C   UNL     1      -0.189  -5.578  -3.711  0.00  0.00    +0.046 A 
ATOM     15  C   UNL     1       0.719  -6.484  -3.118  0.00  0.00    +0.045 A 
ATOM     16  C   UNL     1       1.681  -5.746  -2.535  0.00  0.00    +0.109 A 
ATOM     17  O   UNL     1       1.408  -4.448  -2.748  0.00  0.00    -0.463 OA
BRANCH  16  18
ATOM     18  C   UNL     1       2.867  -6.284  -1.777  0.00  0.00    +0.058 C 
ATOM     19  C   UNL     1       3.737  -5.279  -1.020  0.00  0.00    +0.015 C 
ATOM     20  C   UNL     1       4.261  -5.930  -2.301  0.00  0.00    -0.003 C 
ATOM     21  C   UNL     1       4.343  -5.057  -3.555  0.00  0.00    +0.008 C 
ENDBRANCH  16  18
ENDBRANCH  12  13
ENDBRANCH   3  12
TORSDOF 6
