REMARK  Name = ZINC00296310
REMARK  4 active torsions:
REMARK  status: ('A' for Active; 'I' for Inactive)
REMARK    1  A    between atoms: C_4  and  C_7
REMARK    2  A    between atoms: C_7  and  N_8
REMARK    3  A    between atoms: C_9  and  C_15
REMARK    4  A    between atoms: C_19  and  N_21
REMARK                            x       y       z     vdW  Elec       q    Type
REMARK                         _______ _______ _______ _____ _____    ______ ____
ROOT
ATOM      1  N   UNL     1       4.434  -0.929   1.009  0.00  0.00    -0.280 N 
ATOM      2  C   UNL     1       4.867  -0.110   2.157  0.00  0.00    +0.165 C 
ATOM      3  S   UNL     1       4.147  -1.054   3.568  0.00  0.00    -0.124 S 
ATOM      4  C   UNL     1       3.933  -2.648   2.663  0.00  0.00    +0.167 C 
ATOM      5  C   UNL     1       3.978  -2.156   1.225  0.00  0.00    +0.227 C 
ATOM      6  O   UNL     1       3.613  -2.861   0.308  0.00  0.00    -0.275 OA
ENDROOT
BRANCH   2   7
ATOM      7  C   UNL     1       4.285   1.278   2.081  0.00  0.00    -0.015 A 
ATOM      8  C   UNL     1       2.917   1.450   1.985  0.00  0.00    +0.006 A 
ATOM      9  C   UNL     1       2.383   2.723   1.915  0.00  0.00    +0.003 A 
ATOM     10  C   UNL     1       3.218   3.825   1.941  0.00  0.00    +0.033 A 
ATOM     11  C   UNL     1       4.586   3.654   2.038  0.00  0.00    +0.127 A 
ATOM     12  C   UNL     1       5.119   2.380   2.112  0.00  0.00    +0.039 A 
BRANCH  11  13
ATOM     13  N   UNL     1       5.479   4.833   2.065  0.00  0.00    +0.056 N 
ATOM     14  O   UNL     1       5.013   5.947   2.003  0.00  0.00    -0.126 OA
ATOM     15  O   UNL     1       6.676   4.683   2.149  0.00  0.00    -0.126 OA
ENDBRANCH  11  13
ENDBRANCH   2   7
BRANCH   1  16
ATOM     16  C   UNL     1       4.502  -0.393  -0.352  0.00  0.00    +0.144 C 
BRANCH  16  20
ATOM     17  C   UNL     1       8.400  -1.075  -1.961  0.00  0.00    +0.000 A 
ATOM     18  C   UNL     1       7.388  -1.988  -2.192  0.00  0.00    +0.000 A 
ATOM     19  C   UNL     1       6.126  -1.767  -1.671  0.00  0.00    +0.005 A 
ATOM     20  C   UNL     1       5.878  -0.634  -0.919  0.00  0.00    -0.030 A 
ATOM     21  C   UNL     1       6.891   0.278  -0.687  0.00  0.00    +0.005 A 
ATOM     22  C   UNL     1       8.152   0.058  -1.209  0.00  0.00    +0.000 A 
ENDBRANCH  16  20
ENDBRANCH   1  16
TORSDOF 4
