REMARK  Name = ZINC66557168
REMARK  4 active torsions:
REMARK  status: ('A' for Active; 'I' for Inactive)
REMARK    1  A    between atoms: C_1  and  C_2
REMARK    2  A    between atoms: C_6  and  C_7
REMARK    3  A    between atoms: N_9  and  N_10
REMARK    4  A    between atoms: C_11  and  C_13
REMARK                            x       y       z     vdW  Elec       q    Type
REMARK                         _______ _______ _______ _____ _____    ______ ____
ROOT
ATOM      1  N   UNL     1       0.059  -0.732   4.900  0.00  0.00    -0.230 N 
ATOM      2  C   UNL     1       0.080  -1.625   5.909  0.00  0.00    +0.260 C 
ATOM      3  O   UNL     1       0.094  -2.816   5.666  0.00  0.00    -0.269 OA
ATOM      4  H   UNL     1       0.047   0.219   5.094  0.00  0.00    +0.173 HD
ENDROOT
BRANCH   2   5
ATOM      5  C   UNL     1       0.087  -1.157   7.309  0.00  0.00    +0.039 A 
ATOM      6  C   UNL     1       0.065   0.211   7.594  0.00  0.00    +0.017 A 
ATOM      7  C   UNL     1       0.067   0.646   8.899  0.00  0.00    +0.046 A 
ATOM      8  C   UNL     1       0.092  -0.273   9.950  0.00  0.00    +0.124 A 
ATOM      9  C   UNL     1       0.121  -1.634   9.659  0.00  0.00    -0.002 A 
ATOM     10  C   UNL     1       0.110  -2.078   8.360  0.00  0.00    +0.020 A 
ATOM     11  C   UNL     1       0.168  -2.369  10.985  0.00  0.00    +0.080 C 
ATOM     12  C   UNL     1       0.558  -1.237  11.964  0.00  0.00    +0.234 C 
ATOM     13  O   UNL     1       0.086  -0.057  11.292  0.00  0.00    -0.491 OA
ENDBRANCH   2   5
BRANCH   1  16
ATOM     14  C   UNL     1       0.030  -0.283   2.562  0.00  0.00    +0.267 C 
ATOM     15  O   UNL     1       0.016   0.910   2.805  0.00  0.00    -0.268 OA
ATOM     16  N   UNL     1       0.052  -1.176   3.571  0.00  0.00    -0.230 N 
ATOM     17  H   UNL     1       0.063  -2.126   3.378  0.00  0.00    +0.173 HD
BRANCH  14  23
ATOM     18  C   UNL     1      -0.018   1.503   0.010  0.00  0.00    +0.045 C 
ATOM     19  C   UNL     1       0.002  -0.004   0.002  0.00  0.00    -0.031 A 
ATOM     20  C   UNL     1       0.007  -0.729  -1.166  0.00  0.00    +0.011 A 
ATOM     21  C   UNL     1       0.025  -2.083  -1.101  0.00  0.00    +0.046 A 
ATOM     22  S   UNL     1       0.037  -2.416   0.545  0.00  0.00    -0.092 S 
ATOM     23  C   UNL     1       0.023  -0.748   1.172  0.00  0.00    +0.078 A 
ENDBRANCH  14  23
ENDBRANCH   1  16
TORSDOF 3
