REMARK  Name = ZINC20435048
REMARK  3 active torsions:
REMARK  status: ('A' for Active; 'I' for Inactive)
REMARK    1  A    between atoms: N_11  and  C_12
REMARK    2  A    between atoms: C_17  and  C_18
REMARK    3  A    between atoms: C_18  and  O_19
REMARK                            x       y       z     vdW  Elec       q    Type
REMARK                         _______ _______ _______ _____ _____    ______ ____
ROOT
ATOM      1  C   UNL     1       4.812   2.276   4.291  0.00  0.00    +0.002 A 
ATOM      2  C   UNL     1       4.761   2.389   2.914  0.00  0.00    +0.002 A 
ATOM      3  C   UNL     1       3.557   2.647   2.281  0.00  0.00    +0.025 A 
ATOM      4  C   UNL     1       2.404   2.792   3.032  0.00  0.00    +0.056 A 
ATOM      5  C   UNL     1       2.451   2.687   4.426  0.00  0.00    +0.055 A 
ATOM      6  C   UNL     1       3.659   2.432   5.054  0.00  0.00    +0.025 A 
ATOM      7  N   UNL     1       1.275   2.836   5.171  0.00  0.00    -0.283 N 
ATOM      8  C   UNL     1       0.071   2.804   4.569  0.00  0.00    +0.235 C 
ATOM      9  O   UNL     1      -0.933   2.979   5.227  0.00  0.00    -0.274 OA
ATOM     10  C   UNL     1      -0.044   2.553   3.087  0.00  0.00    +0.207 C 
ATOM     11  N   UNL     1       1.169   3.049   2.421  0.00  0.00    -0.289 N 
ATOM     12  H   UNL     1       1.328   2.981   6.260  0.00  0.00    +0.155 HD
ENDROOT
BRANCH  11  13
ATOM     13  C   UNL     1       1.094   3.748   1.214  0.00  0.00    +0.041 A 
ATOM     14  C   UNL     1       0.966   5.132   1.218  0.00  0.00    +0.024 A 
ATOM     15  C   UNL     1       0.892   5.821   0.024  0.00  0.00    +0.003 A 
ATOM     16  C   UNL     1       0.944   5.136  -1.176  0.00  0.00    +0.020 A 
ATOM     17  C   UNL     1       1.077   3.758  -1.185  0.00  0.00    +0.048 A 
ATOM     18  C   UNL     1       1.147   3.062   0.008  0.00  0.00    +0.017 A 
ATOM     19 CL   UNL     1       1.150   2.903  -2.694  0.00  0.00    -0.083 Cl
BRANCH  18  20
ATOM     20  C   UNL     1       1.286   1.562  -0.002  0.00  0.00    +0.194 C 
BRANCH  20  21
ATOM     21  O   UNL     1      -0.011   0.963   0.007  0.00  0.00    -0.390 OA
ATOM     22  H   UNL     1      -0.111  -0.133   0.002  0.00  0.00    +0.210 HD
ENDBRANCH  20  21
ENDBRANCH  18  20
ENDBRANCH  11  13
TORSDOF 3
