REMARK  Name = ZINC33033441
REMARK  13 active torsions:
REMARK  status: ('A' for Active; 'I' for Inactive)
REMARK    1  A    between atoms: C_1  and  C_2
REMARK    2  A    between atoms: C_2  and  N_3
REMARK    3  A    between atoms: N_3  and  C_4
REMARK    4  A    between atoms: C_4  and  C_5
REMARK    5  A    between atoms: C_6  and  C_8
REMARK    6  A    between atoms: C_11  and  N_28
REMARK    7  A    between atoms: C_12  and  N_14
REMARK    8  A    between atoms: N_14  and  S_15
REMARK    9  A    between atoms: S_15  and  C_18
REMARK   10  A    between atoms: C_21  and  C_24
REMARK   11  A    between atoms: C_24  and  C_25
REMARK   12  A    between atoms: C_25  and  C_26
REMARK   13  A    between atoms: C_25  and  C_27
REMARK                            x       y       z     vdW  Elec       q    Type
REMARK                         _______ _______ _______ _____ _____    ______ ____
ROOT
ATOM      1  C   UNL     1       0.364   8.824   5.221  0.00  0.00    +0.039 A 
ATOM      2  C   UNL     1      -0.578   8.100   5.957  0.00  0.00    +0.015 A 
ATOM      3  C   UNL     1      -1.922   8.259   5.704  0.00  0.00    +0.026 A 
ATOM      4  C   UNL     1      -2.348   9.145   4.722  0.00  0.00    +0.052 A 
ATOM      5  C   UNL     1      -1.412   9.868   3.978  0.00  0.00    +0.070 A 
ATOM      6  C   UNL     1      -0.062   9.711   4.228  0.00  0.00    +0.039 A 
ENDROOT
BRANCH   4   7
ATOM      7  N   UNL     1      -3.709   9.308   4.474  0.00  0.00    -0.332 N 
ATOM      8  C   UNL     1      -4.498   8.283   5.172  0.00  0.00    +0.086 C 
ATOM      9  C   UNL     1      -5.976   8.447   4.812  0.00  0.00    -0.063 C 
ATOM     10  N   UNL     1      -6.422   9.796   5.186  0.00  0.00    +0.381 N 
ATOM     11  C   UNL     1      -5.633  10.821   4.488  0.00  0.00    -0.063 C 
ATOM     12  C   UNL     1      -4.155  10.657   4.848  0.00  0.00    +0.086 C 
ATOM     13  H   UNL     1      -7.481   9.921   4.917  0.00  0.00    -0.086 HD
ATOM     14  H   UNL     1      -6.301   9.935   6.271  0.00  0.00    -0.086 HD
ENDBRANCH   4   7
BRANCH   1  16
ATOM     15  N   UNL     1       2.221   8.310   6.726  0.00  0.00    -0.298 N 
ATOM     16  C   UNL     1       1.804   8.653   5.492  0.00  0.00    +0.247 C 
ATOM     17  O   UNL     1       2.614   8.823   4.601  0.00  0.00    -0.270 OA
BRANCH  15  19
ATOM     18  C   UNL     1       4.312   9.387   7.397  0.00  0.00    +0.024 C 
ATOM     19  C   UNL     1       3.645   8.075   6.979  0.00  0.00    +0.104 C 
ENDBRANCH  15  19
BRANCH  15  20
ATOM     20  C   UNL     1       1.251   8.171   7.815  0.00  0.00    +0.104 C 
ATOM     21  C   UNL     1       1.081   6.691   8.161  0.00  0.00    +0.024 C 
ENDBRANCH  15  20
ENDBRANCH   1  16
BRANCH   5  22
ATOM     22  N   UNL     1      -1.842  10.756   2.984  0.00  0.00    -0.214 N 
ATOM     23  H   UNL     1      -2.490  11.605   3.247  0.00  0.00    +0.174 HD
BRANCH  22  24
ATOM     24  S   UNL     1      -1.375  10.528   1.411  0.00  0.00    +0.072 S 
ATOM     25  O   UNL     1       0.039  10.388   1.424  0.00  0.00    -0.150 OA
ATOM     26  O   UNL     1      -2.034  11.525   0.643  0.00  0.00    -0.150 OA
BRANCH  24  27
ATOM     27  C   UNL     1      -2.030   8.977   0.893  0.00  0.00    +0.109 A 
ATOM     28  C   UNL     1      -3.284   8.916   0.314  0.00  0.00    +0.029 A 
ATOM     29  C   UNL     1      -3.798   7.699  -0.094  0.00  0.00    +0.005 A 
ATOM     30  C   UNL     1      -3.058   6.544   0.077  0.00  0.00    -0.047 A 
ATOM     31  C   UNL     1      -1.807   6.605   0.660  0.00  0.00    +0.005 A 
ATOM     32  C   UNL     1      -1.291   7.822   1.064  0.00  0.00    +0.029 A 
BRANCH  30  33
ATOM     33  C   UNL     1      -3.619   5.218  -0.368  0.00  0.00    +0.038 C 
BRANCH  33  34
ATOM     34  C   UNL     1      -3.217   4.955  -1.821  0.00  0.00    -0.013 C 
ATOM     35  C   UNL     1      -3.888   3.671  -2.311  0.00  0.00    +0.007 C 
ATOM     36  C   UNL     1      -1.697   4.803  -1.910  0.00  0.00    +0.007 C 
ENDBRANCH  33  34
ENDBRANCH  30  33
ENDBRANCH  24  27
ENDBRANCH  22  24
ENDBRANCH   5  22
TORSDOF 9
