REMARK  Name = ZINC09276831
REMARK  8 active torsions:
REMARK  status: ('A' for Active; 'I' for Inactive)
REMARK    1  A    between atoms: C_1  and  C_2
REMARK    2  A    between atoms: C_4  and  C_31
REMARK    3  A    between atoms: C_6  and  N_8
REMARK    4  A    between atoms: C_14  and  S_15
REMARK    5  A    between atoms: S_15  and  C_16
REMARK    6  A    between atoms: C_16  and  C_17
REMARK    7  A    between atoms: C_23  and  C_25
REMARK    8  A    between atoms: C_27  and  C_30
REMARK                            x       y       z     vdW  Elec       q    Type
REMARK                         _______ _______ _______ _____ _____    ______ ____
ROOT
ATOM      1  N   UNL     1      -2.782  -7.166  -0.017  0.00  0.00    -0.255 N 
ATOM      2  C   UNL     1      -3.902  -7.761  -0.487  0.00  0.00    +0.273 A 
ATOM      3  O   UNL     1      -3.863  -8.892  -0.944  0.00  0.00    -0.266 OA
ATOM      4  C   UNL     1      -5.109  -7.049  -0.442  0.00  0.00    +0.094 A 
ATOM      5  C   UNL     1      -5.161  -5.764   0.060  0.00  0.00    +0.064 A 
ATOM      6  N   UNL     1      -4.004  -5.242   0.520  0.00  0.00    -0.227 NA
ATOM      7  C   UNL     1      -2.873  -5.902   0.490  0.00  0.00    +0.177 A 
ATOM      8  C   UNL     1      -6.505  -5.080   0.020  0.00  0.00    +0.071 C 
ATOM      9  C   UNL     1      -7.662  -6.097  -0.107  0.00  0.00    +0.054 C 
ATOM     10  S   UNL     1      -6.763  -7.474  -0.936  0.00  0.00    -0.115 S 
ATOM     11  C   UNL     1      -8.788  -5.555  -0.990  0.00  0.00    +0.020 C 
ENDROOT
BRANCH   1  17
ATOM     12  C   UNL     1       1.398  -8.244  -2.372  0.00  0.00    +0.044 C 
ATOM     13  C   UNL     1       0.493  -8.377  -1.174  0.00  0.00    -0.048 A 
ATOM     14  C   UNL     1       0.876  -9.161  -0.102  0.00  0.00    +0.006 A 
ATOM     15  C   UNL     1       0.047  -9.286   0.998  0.00  0.00    -0.048 A 
ATOM     16  C   UNL     1      -1.166  -8.626   1.029  0.00  0.00    +0.029 A 
ATOM     17  C   UNL     1      -1.553  -7.837  -0.046  0.00  0.00    +0.052 A 
ATOM     18  C   UNL     1      -0.722  -7.719  -1.152  0.00  0.00    +0.029 A 
ATOM     19  C   UNL     1       0.468 -10.142   2.164  0.00  0.00    +0.044 C 
ENDBRANCH   1  17
BRANCH   7  20
ATOM     20  S   UNL     1      -1.419  -5.131   1.118  0.00  0.00    -0.078 S 
BRANCH  20  21
ATOM     21  C   UNL     1      -2.105  -3.535   1.628  0.00  0.00    +0.173 C 
BRANCH  21  22
ATOM     22  C   UNL     1      -1.010  -2.682   2.213  0.00  0.00    +0.229 C 
ATOM     23  O   UNL     1       0.123  -3.110   2.279  0.00  0.00    -0.275 OA
ATOM     24  N   UNL     1      -1.289  -1.442   2.663  0.00  0.00    -0.263 N 
ATOM     25  C   UNL     1      -0.278  -0.654   3.204  0.00  0.00    +0.188 A 
ATOM     26  N   UNL     1       1.006  -0.925   3.366  0.00  0.00    -0.126 NA
ATOM     27  N   UNL     1       1.803  -0.092   3.879  0.00  0.00    -0.145 NA
ATOM     28  C   UNL     1       1.377   1.091   4.274  0.00  0.00    +0.101 A 
ATOM     29  S   UNL     1      -0.356   0.958   3.851  0.00  0.00    -0.036 S 
ATOM     30  C   UNL     1       2.134   2.231   4.905  0.00  0.00    +0.075 C 
ATOM     31  H   UNL     1      -2.195  -1.100   2.611  0.00  0.00    +0.157 HD
ENDBRANCH  21  22
ENDBRANCH  20  21
ENDBRANCH   7  20
TORSDOF 4
