REMARK  Name = ZINC13976215
REMARK  10 active torsions:
REMARK  status: ('A' for Active; 'I' for Inactive)
REMARK    1  A    between atoms: C_1  and  C_2
REMARK    2  A    between atoms: C_5  and  C_27
REMARK    3  A    between atoms: C_6  and  O_8
REMARK    4  A    between atoms: O_8  and  C_9
REMARK    5  A    between atoms: C_9  and  C_10
REMARK    6  A    between atoms: N_12  and  C_13
REMARK    7  A    between atoms: C_13  and  N_15
REMARK    8  A    between atoms: N_15  and  N_16
REMARK    9  A    between atoms: C_17  and  C_19
REMARK   10  A    between atoms: C_22  and  C_26
REMARK                            x       y       z     vdW  Elec       q    Type
REMARK                         _______ _______ _______ _____ _____    ______ ____
ROOT
ATOM      1  C   UNL     1      -0.940   1.719  -3.535  0.00  0.00    +0.153 C 
ATOM      2  S   UNL     1      -2.344   2.683  -3.359  0.00  0.00    -0.017 S 
ENDROOT
BRANCH   1   5
ATOM      3  C   UNL     1      -0.742   1.585  -1.213  0.00  0.00    +0.256 C 
ATOM      4  O   UNL     1      -1.736   2.268  -1.089  0.00  0.00    -0.272 OA
ATOM      5  N   UNL     1      -0.288   1.272  -2.443  0.00  0.00    -0.264 N 
ATOM      6  H   UNL     1       0.507   0.726  -2.543  0.00  0.00    +0.157 HD
BRANCH   3   7
ATOM      7  C   UNL     1      -0.013   1.086   0.008  0.00  0.00    +0.325 C 
BRANCH   7   8
ATOM      8  O   UNL     1      -0.682   1.547   1.184  0.00  0.00    -0.482 OA
BRANCH   8  14
ATOM      9  C   UNL     1       2.776  -0.825   3.683  0.00  0.00    +0.044 C 
ATOM     10  C   UNL     1       1.534   0.028   3.637  0.00  0.00    -0.047 A 
ATOM     11  C   UNL     1       0.936   0.440   4.814  0.00  0.00    +0.004 A 
ATOM     12  C   UNL     1      -0.203   1.222   4.776  0.00  0.00    +0.007 A 
ATOM     13  C   UNL     1      -0.744   1.599   3.561  0.00  0.00    -0.009 A 
ATOM     14  C   UNL     1      -0.149   1.182   2.380  0.00  0.00    +0.124 A 
ATOM     15  C   UNL     1       0.994   0.397   2.421  0.00  0.00    +0.049 A 
ATOM     16  C   UNL     1      -1.982   2.457   3.520  0.00  0.00    +0.047 C 
ENDBRANCH   8  14
ENDBRANCH   7   8
ENDBRANCH   3   7
ENDBRANCH   1   5
BRANCH   1  17
ATOM     17  N   UNL     1      -0.487   1.406  -4.765  0.00  0.00    -0.245 N 
ATOM     18  H   UNL     1      -0.956   1.727  -5.551  0.00  0.00    +0.172 HD
BRANCH  17  19
ATOM     19  N   UNL     1       0.661   0.617  -4.909  0.00  0.00    -0.231 N 
ATOM     20  C   UNL     1       1.115   0.304  -6.139  0.00  0.00    +0.260 C 
ATOM     21  O   UNL     1       0.527   0.707  -7.124  0.00  0.00    -0.269 OA
ATOM     22  H   UNL     1       1.131   0.296  -4.123  0.00  0.00    +0.173 HD
BRANCH  20  23
ATOM     23  C   UNL     1       2.327  -0.529  -6.291  0.00  0.00    +0.039 A 
ATOM     24  C   UNL     1       3.007  -0.988  -5.162  0.00  0.00    +0.013 A 
ATOM     25  C   UNL     1       4.134  -1.770  -5.310  0.00  0.00    +0.005 A 
ATOM     26  C   UNL     1       4.597  -2.089  -6.574  0.00  0.00    -0.036 A 
ATOM     27  C   UNL     1       3.931  -1.632  -7.698  0.00  0.00    +0.021 A 
ATOM     28  C   UNL     1       2.798  -0.854  -7.563  0.00  0.00    +0.028 A 
ATOM     29 BR   UNL     1       4.573  -2.075  -9.421  0.00  0.00    -0.050 Br
ATOM     30  C   UNL     1       5.832  -2.939  -6.728  0.00  0.00    +0.045 C 
ENDBRANCH  20  23
ENDBRANCH  17  19
ENDBRANCH   1  17
TORSDOF 7
