REMARK  Name = ZINC14221864
REMARK  5 active torsions:
REMARK  status: ('A' for Active; 'I' for Inactive)
REMARK    1  A    between atoms: C_1  and  C_2
REMARK    2  A    between atoms: N_11  and  S_12
REMARK    3  A    between atoms: S_12  and  C_15
REMARK    4  A    between atoms: C_18  and  O_21
REMARK    5  A    between atoms: O_21  and  C_22
REMARK                            x       y       z     vdW  Elec       q    Type
REMARK                         _______ _______ _______ _____ _____    ______ ____
ROOT
ATOM      1  C   UNL     1      -0.019   1.526   0.010  0.00  0.00    +0.008 C 
ATOM      2  C   UNL     1       0.002  -0.004   0.002  0.00  0.00    -0.009 C 
ATOM      3  C   UNL     1      -1.433  -0.538   0.023  0.00  0.00    +0.010 C 
ATOM      4  C   UNL     1      -1.429  -2.047  -0.222  0.00  0.00    +0.054 C 
ATOM      5  C   UNL     1      -0.472  -2.708   0.768  0.00  0.00    +0.028 A 
ATOM      6  C   UNL     1       0.463  -1.982   1.390  0.00  0.00    +0.013 A 
ATOM      7  S   UNL     1       1.312  -3.155   2.415  0.00  0.00    -0.053 S 
ATOM      8  C   UNL     1       0.359  -4.596   1.957  0.00  0.00    +0.192 A 
ATOM      9  N   UNL     1      -0.529  -4.055   1.058  0.00  0.00    -0.336 N 
ATOM     10  N   UNL     1       0.475  -5.835   2.367  0.00  0.00    -0.103 NA
ATOM     11  C   UNL     1       0.736  -0.517   1.250  0.00  0.00    +0.047 C 
ATOM     12  H   UNL     1      -1.192  -4.618   0.629  0.00  0.00    +0.168 HD
ENDROOT
BRANCH  10  13
ATOM     13  S   UNL     1      -0.545  -7.000   1.782  0.00  0.00    +0.101 S 
ATOM     14  O   UNL     1      -1.846  -6.676   2.253  0.00  0.00    -0.146 OA
ATOM     15  O   UNL     1      -0.250  -7.141   0.399  0.00  0.00    -0.146 OA
BRANCH  13  16
ATOM     16  C   UNL     1      -0.095  -8.521   2.550  0.00  0.00    +0.113 A 
ATOM     17  C   UNL     1       0.853  -9.337   1.962  0.00  0.00    +0.032 A 
ATOM     18  C   UNL     1       1.207 -10.530   2.562  0.00  0.00    +0.047 A 
ATOM     19  C   UNL     1       0.611 -10.908   3.756  0.00  0.00    +0.120 A 
ATOM     20  C   UNL     1      -0.340 -10.087   4.345  0.00  0.00    +0.047 A 
ATOM     21  C   UNL     1      -0.687  -8.893   3.743  0.00  0.00    +0.032 A 
BRANCH  19  22
ATOM     22  O   UNL     1       0.958 -12.081   4.349  0.00  0.00    -0.495 OA
ATOM     23  C   UNL     1       0.303 -12.406   5.577  0.00  0.00    +0.277 C 
ENDBRANCH  19  22
ENDBRANCH  13  16
ENDBRANCH  10  13
TORSDOF 3
