REMARK  Name = ZINC39674290
REMARK  7 active torsions:
REMARK  status: ('A' for Active; 'I' for Inactive)
REMARK    1  A    between atoms: C_1  and  C_2
REMARK    2  A    between atoms: C_4  and  C_9
REMARK    3  A    between atoms: C_5  and  C_8
REMARK    4  A    between atoms: C_9  and  C_11
REMARK    5  A    between atoms: C_9  and  N_12
REMARK    6  A    between atoms: C_13  and  C_15
REMARK    7  A    between atoms: C_26  and  C_28
REMARK                            x       y       z     vdW  Elec       q    Type
REMARK                         _______ _______ _______ _____ _____    ______ ____
ROOT
ATOM      1  C   UNL     1      -2.907  -0.583  -4.467  0.00  0.00    +0.100 C 
ATOM      2  C   UNL     1      -2.105   0.446  -5.295  0.00  0.00    +0.121 C 
ATOM      3  N   UNL     1      -2.595   0.273  -6.683  0.00  0.00    -0.296 N 
ATOM      4  C   UNL     1      -4.054   0.053  -6.535  0.00  0.00    +0.115 C 
ATOM      5  C   UNL     1      -4.185  -0.838  -5.283  0.00  0.00    -0.004 C 
ATOM      6  C   UNL     1      -4.270  -2.307  -5.688  0.00  0.00    -0.010 C 
ATOM      7  C   UNL     1      -5.576  -2.547  -6.450  0.00  0.00    -0.082 C 
ATOM      8  N   UNL     1      -6.715  -2.187  -5.596  0.00  0.00    +0.379 N 
ATOM      9  C   UNL     1      -6.676  -0.752  -5.288  0.00  0.00    -0.082 C 
ATOM     10  C   UNL     1      -5.416  -0.436  -4.477  0.00  0.00    -0.010 C 
ATOM     11  C   UNL     1      -1.877   0.307  -7.823  0.00  0.00    +0.247 C 
ATOM     12  O   UNL     1      -0.664   0.383  -7.775  0.00  0.00    -0.270 OA
ATOM     13  H   UNL     1      -7.575  -2.403  -6.077  0.00  0.00    -0.086 HD
ATOM     14  H   UNL     1      -6.671  -2.716  -4.738  0.00  0.00    -0.086 HD
ENDROOT
BRANCH  11  15
ATOM     15  C   UNL     1      -2.563   0.251  -9.131  0.00  0.00    +0.037 A 
ATOM     16  C   UNL     1      -3.912   0.595  -9.229  0.00  0.00    +0.014 A 
ATOM     17  C   UNL     1      -4.547   0.541 -10.453  0.00  0.00    +0.016 A 
ATOM     18  C   UNL     1      -3.849   0.147 -11.582  0.00  0.00    +0.018 A 
ATOM     19  C   UNL     1      -2.510  -0.196 -11.490  0.00  0.00    +0.016 A 
ATOM     20  C   UNL     1      -1.863  -0.140 -10.273  0.00  0.00    +0.014 A 
ATOM     21 BR   UNL     1      -4.726   0.075 -13.255  0.00  0.00    -0.050 Br
ENDBRANCH  11  15
BRANCH   1  23
ATOM     22  N   UNL     1      -3.499  -0.840  -2.079  0.00  0.00    -0.309 N 
ATOM     23  C   UNL     1      -3.252  -0.014  -3.115  0.00  0.00    +0.219 C 
ATOM     24  O   UNL     1      -3.308   1.188  -2.959  0.00  0.00    -0.275 OA
ATOM     25  H   UNL     1      -3.454  -1.801  -2.204  0.00  0.00    +0.149 HD
BRANCH  22  26
ATOM     26  C   UNL     1      -3.835  -0.286  -0.765  0.00  0.00    +0.100 C 
ATOM     27  C   UNL     1      -2.548   0.042  -0.006  0.00  0.00    +0.033 C 
BRANCH  26  30
ATOM     28  C   UNL     1      -2.994  -2.884   1.056  0.00  0.00    +0.039 C 
ATOM     29  C   UNL     1      -4.303  -2.757   0.273  0.00  0.00    +0.154 C 
ATOM     30  C   UNL     1      -4.635  -1.297   0.016  0.00  0.00    -0.001 C 
ATOM     31  C   UNL     1      -5.799  -1.117   0.644  0.00  0.00    +0.063 C 
ATOM     32  N   UNL     1      -6.206  -2.261   1.237  0.00  0.00    -0.159 NA
ATOM     33  N   UNL     1      -5.442  -3.222   1.083  0.00  0.00    -0.180 NA
ATOM     34  C   UNL     1      -6.556   0.185   0.685  0.00  0.00    +0.067 C 
ENDBRANCH  26  30
ENDBRANCH  22  26
ENDBRANCH   1  23
TORSDOF 4
