REMARK  Name = ZINC10409980
REMARK  8 active torsions:
REMARK  status: ('A' for Active; 'I' for Inactive)
REMARK    1  A    between atoms: C_1  and  C_2
REMARK    2  A    between atoms: C_5  and  N_9
REMARK    3  A    between atoms: C_7  and  C_8
REMARK    4  A    between atoms: C_19  and  S_20
REMARK    5  A    between atoms: S_20  and  C_21
REMARK    6  A    between atoms: C_21  and  C_22
REMARK    7  A    between atoms: N_24  and  C_25
REMARK    8  A    between atoms: C_26  and  C_30
REMARK                            x       y       z     vdW  Elec       q    Type
REMARK                         _______ _______ _______ _____ _____    ______ ____
ROOT
ATOM      1  N   UNL     1       0.037  -2.767  -0.014  0.00  0.00    -0.255 N 
ATOM      2  C   UNL     1       1.135  -2.144   0.473  0.00  0.00    +0.267 A 
ATOM      3  O   UNL     1       2.079  -2.778   0.908  0.00  0.00    -0.267 OA
ATOM      4  C   UNL     1       1.146  -0.676   0.458  0.00  0.00    +0.065 A 
ATOM      5  C   UNL     1       2.231   0.058   0.937  0.00  0.00    +0.015 A 
ATOM      6  C   UNL     1       2.190   1.424   0.899  0.00  0.00    +0.001 A 
ATOM      7  C   UNL     1       1.081   2.087   0.389  0.00  0.00    +0.002 A 
ATOM      8  C   UNL     1       0.004   1.393  -0.087  0.00  0.00    +0.028 A 
ATOM      9  C   UNL     1       0.016  -0.004  -0.062  0.00  0.00    +0.079 A 
ATOM     10  N   UNL     1      -1.029  -0.731  -0.523  0.00  0.00    -0.223 NA
ATOM     11  C   UNL     1      -1.016  -2.041  -0.499  0.00  0.00    +0.177 A 
ENDROOT
BRANCH   1  16
ATOM     12  C   UNL     1      -0.202  -8.437  -0.046  0.00  0.00    +0.044 C 
ATOM     13  C   UNL     1      -0.139  -6.931  -0.038  0.00  0.00    -0.047 A 
ATOM     14  C   UNL     1      -0.606  -6.227   1.057  0.00  0.00    +0.005 A 
ATOM     15  C   UNL     1      -0.543  -4.847   1.071  0.00  0.00    +0.026 A 
ATOM     16  C   UNL     1      -0.022  -4.167  -0.022  0.00  0.00    +0.052 A 
ATOM     17  C   UNL     1       0.445  -4.877  -1.120  0.00  0.00    +0.030 A 
ATOM     18  C   UNL     1       0.386  -6.256  -1.125  0.00  0.00    -0.046 A 
ATOM     19  C   UNL     1       0.892  -7.028  -2.316  0.00  0.00    +0.044 C 
ENDBRANCH   1  16
BRANCH  11  20
ATOM     20  S   UNL     1      -2.419  -2.907  -1.120  0.00  0.00    -0.078 S 
BRANCH  20  21
ATOM     21  C   UNL     1      -3.459  -1.509  -1.610  0.00  0.00    +0.173 C 
BRANCH  21  22
ATOM     22  C   UNL     1      -4.753  -2.023  -2.186  0.00  0.00    +0.228 C 
ATOM     23  O   UNL     1      -4.952  -3.217  -2.259  0.00  0.00    -0.275 OA
ATOM     24  N   UNL     1      -5.689  -1.156  -2.621  0.00  0.00    -0.279 N 
ATOM     25  H   UNL     1      -5.530  -0.201  -2.563  0.00  0.00    +0.155 HD
BRANCH  24  26
ATOM     26  C   UNL     1      -6.880  -1.630  -3.151  0.00  0.00    +0.084 A 
ATOM     27  C   UNL     1      -7.957  -0.901  -3.642  0.00  0.00    +0.065 A 
ATOM     28  C   UNL     1      -9.079  -1.658  -4.143  0.00  0.00    +0.022 A 
ATOM     29  C   UNL     1      -8.990  -2.999  -4.084  0.00  0.00    +0.048 A 
ATOM     30  S   UNL     1      -7.388  -3.272  -3.357  0.00  0.00    -0.081 S 
BRANCH  27  31
ATOM     31  C   UNL     1      -7.952   0.566  -3.652  0.00  0.00    +0.244 C 
ATOM     32  O   UNL     1      -6.988   1.174  -3.225  0.00  0.00    -0.270 OA
ATOM     33  N   UNL     1      -9.014   1.239  -4.136  0.00  0.00    -0.325 N 
ATOM     34  H   UNL     1      -9.782   0.754  -4.476  0.00  0.00    +0.145 HD
ATOM     35  H   UNL     1      -9.011   2.209  -4.143  0.00  0.00    +0.145 HD
ENDBRANCH  27  31
ENDBRANCH  24  26
ENDBRANCH  21  22
ENDBRANCH  20  21
ENDBRANCH  11  20
TORSDOF 6
