REMARK  Name = ZINC65283902
REMARK  5 active torsions:
REMARK  status: ('A' for Active; 'I' for Inactive)
REMARK    1  A    between atoms: C_1  and  C_2
REMARK    2  A    between atoms: C_2  and  C_3
REMARK    3  A    between atoms: C_8  and  N_9
REMARK    4  A    between atoms: N_12  and  C_13
REMARK    5  A    between atoms: C_20  and  C_22
REMARK                            x       y       z     vdW  Elec       q    Type
REMARK                         _______ _______ _______ _____ _____    ______ ____
ROOT
ATOM      1  N   UNL     1      -1.311  -0.358   2.501  0.00  0.00    -0.269 N 
ATOM      2  C   UNL     1      -1.993  -0.595   3.640  0.00  0.00    +0.308 C 
ATOM      3  O   UNL     1      -1.409  -1.010   4.623  0.00  0.00    -0.252 OA
ATOM      4  N   UNL     1      -3.321  -0.371   3.689  0.00  0.00    -0.266 N 
ATOM      5  H   UNL     1      -1.764   0.031   1.737  0.00  0.00    +0.156 HD
ATOM      6  H   UNL     1      -3.798  -0.108   2.886  0.00  0.00    +0.156 HD
ENDROOT
BRANCH   4   7
ATOM      7  C   UNL     1      -4.011  -0.519   4.896  0.00  0.00    +0.079 A 
ATOM      8  C   UNL     1      -4.697   0.535   5.436  0.00  0.00    +0.028 A 
ATOM      9  C   UNL     1      -5.382   0.366   6.647  0.00  0.00    +0.022 A 
ATOM     10  C   UNL     1      -5.365  -0.828   7.279  0.00  0.00    +0.115 A 
ATOM     11  N   UNL     1      -4.687  -1.884   6.753  0.00  0.00    -0.218 N 
ATOM     12  C   UNL     1      -4.013  -1.759   5.572  0.00  0.00    +0.177 A 
ATOM     13  N   UNL     1      -3.459  -2.936   5.303  0.00  0.00    -0.209 NA
ATOM     14  C   UNL     1      -3.759  -3.800   6.262  0.00  0.00    +0.155 A 
ATOM     15  N   UNL     1      -4.497  -3.208   7.173  0.00  0.00    -0.150 NA
BRANCH  14  16
ATOM     16  C   UNL     1      -3.311  -5.238   6.307  0.00  0.00    +0.059 C 
ATOM     17  C   UNL     1      -3.921  -6.135   7.385  0.00  0.00    +0.012 C 
ATOM     18  C   UNL     1      -2.466  -5.677   7.504  0.00  0.00    +0.012 C 
ENDBRANCH  14  16
ENDBRANCH   4   7
BRANCH   1  24
ATOM     19  C   UNL     1       0.590  -1.130   1.228  0.00  0.00    -0.026 A 
ATOM     20  C   UNL     1       1.935  -1.435   1.152  0.00  0.00    +0.005 A 
ATOM     21  C   UNL     1       2.743  -1.291   2.265  0.00  0.00    +0.000 A 
ATOM     22  C   UNL     1       2.206  -0.841   3.458  0.00  0.00    +0.002 A 
ATOM     23  C   UNL     1       0.862  -0.535   3.541  0.00  0.00    +0.023 A 
ATOM     24  C   UNL     1       0.050  -0.673   2.423  0.00  0.00    +0.038 A 
BRANCH  19  26
ATOM     25  C   UNL     1      -0.394   0.053  -0.716  0.00  0.00    +0.009 C 
ATOM     26  C   UNL     1      -0.288  -1.287   0.014  0.00  0.00    +0.033 C 
ENDBRANCH  19  26
ENDBRANCH   1  24
TORSDOF 4
