REMARK  Name = ZINC44658333
REMARK  7 active torsions:
REMARK  status: ('A' for Active; 'I' for Inactive)
REMARK    1  A    between atoms: C_1  and  C_2
REMARK    2  A    between atoms: C_2  and  C_4
REMARK    3  A    between atoms: C_2  and  S_11
REMARK    4  A    between atoms: N_9  and  C_10
REMARK    5  A    between atoms: S_11  and  C_12
REMARK    6  A    between atoms: C_16  and  C_25
REMARK    7  A    between atoms: N_17  and  C_18
REMARK                            x       y       z     vdW  Elec       q    Type
REMARK                         _______ _______ _______ _____ _____    ______ ____
ROOT
ATOM      1  C   UNL     1       2.294  -0.106  -1.334  0.00  0.00    +0.242 C 
ATOM      2  N   UNL     1       2.999  -0.841  -0.271  0.00  0.00    -0.237 N 
ATOM      3  N   UNL     1       3.664   0.118   0.502  0.00  0.00    -0.169 NA
ATOM      4  C   UNL     1       3.452   1.325   0.046  0.00  0.00    +0.151 C 
ATOM      5  N   UNL     1       2.624   1.307  -1.083  0.00  0.00    -0.254 N 
ATOM      6  H   UNL     1       3.002  -1.801  -0.133  0.00  0.00    +0.171 HD
ENDROOT
BRANCH   4   7
ATOM      7  C   UNL     1       3.988   2.491   0.615  0.00  0.00    +0.022 C 
ATOM      8  C   UNL     1       4.731   2.591   1.792  0.00  0.00    +0.006 A 
ATOM      9  C   UNL     1       5.159   1.630   2.733  0.00  0.00    +0.010 A 
ATOM     10  C   UNL     1       5.887   2.022   3.811  0.00  0.00    +0.001 A 
ATOM     11  C   UNL     1       6.227   3.360   4.017  0.00  0.00    +0.002 A 
ATOM     12  C   UNL     1       5.849   4.335   3.154  0.00  0.00    +0.026 A 
ATOM     13  C   UNL     1       5.086   4.003   2.004  0.00  0.00    +0.043 A 
ATOM     14  N   UNL     1       4.605   4.751   1.031  0.00  0.00    -0.380 N 
ATOM     15  C   UNL     1       3.887   3.901   0.077  0.00  0.00    +0.152 C 
ATOM     16  H   UNL     1       4.711   5.713   0.957  0.00  0.00    +0.160 HD
ENDBRANCH   4   7
BRANCH   5  17
ATOM     17  C   UNL     1       2.194   2.410  -1.825  0.00  0.00    +0.038 A 
ATOM     18  C   UNL     1       1.381   3.371  -1.236  0.00  0.00    +0.025 A 
ATOM     19  C   UNL     1       0.958   4.460  -1.972  0.00  0.00    +0.022 A 
ATOM     20  C   UNL     1       1.342   4.595  -3.295  0.00  0.00    +0.041 A 
ATOM     21  C   UNL     1       2.151   3.639  -3.884  0.00  0.00    +0.022 A 
ATOM     22  C   UNL     1       2.583   2.551  -3.151  0.00  0.00    +0.025 A 
ATOM     23 CL   UNL     1       0.807   5.965  -4.217  0.00  0.00    -0.084 Cl
ENDBRANCH   5  17
BRANCH   1  24
ATOM     24  S   UNL     1       0.504  -0.371  -1.209  0.00  0.00    -0.105 S 
BRANCH  24  26
ATOM     25  C   UNL     1       0.351   1.311   0.942  0.00  0.00    +0.029 C 
ATOM     26  C   UNL     1       0.151  -0.156   0.557  0.00  0.00    +0.133 C 
BRANCH  26  27
ATOM     27  C   UNL     1      -1.274  -0.559   0.838  0.00  0.00    +0.233 C 
ATOM     28  O   UNL     1      -2.081  -0.602  -0.066  0.00  0.00    -0.274 OA
ATOM     29  N   UNL     1      -1.651  -0.872   2.093  0.00  0.00    -0.239 N 
ATOM     30  C   UNL     1      -2.925  -1.233   2.344  0.00  0.00    +0.306 C 
ATOM     31  O   UNL     1      -3.734  -1.276   1.438  0.00  0.00    -0.252 OA
ATOM     32  N   UNL     1      -3.302  -1.546   3.600  0.00  0.00    -0.302 N 
ATOM     33  C   UNL     1      -4.687  -1.938   3.872  0.00  0.00    +0.129 C 
ATOM     34  H   UNL     1      -1.005  -0.838   2.817  0.00  0.00    +0.159 HD
ATOM     35  H   UNL     1      -2.657  -1.512   4.323  0.00  0.00    +0.150 HD
ENDBRANCH  26  27
ENDBRANCH  24  26
ENDBRANCH   1  24
TORSDOF 5
