REMARK  Name = ZINC46867820
REMARK  9 active torsions:
REMARK  status: ('A' for Active; 'I' for Inactive)
REMARK    1  A    between atoms: C_1  and  C_2
REMARK    2  A    between atoms: C_6  and  C_23
REMARK    3  A    between atoms: C_7  and  O_8
REMARK    4  A    between atoms: O_8  and  C_9
REMARK    5  A    between atoms: C_9  and  C_11
REMARK    6  A    between atoms: C_9  and  C_12
REMARK    7  A    between atoms: N_14  and  N_15
REMARK    8  A    between atoms: C_16  and  C_18
REMARK    9  A    between atoms: C_18  and  N_19
REMARK                            x       y       z     vdW  Elec       q    Type
REMARK                         _______ _______ _______ _____ _____    ______ ____
ROOT
ATOM      1  C   UNL     1      -1.049  -0.086   4.005  0.00  0.00    +0.270 C 
ATOM      2  O   UNL     1       0.035  -0.221   4.532  0.00  0.00    -0.270 OA
ATOM      3  N   UNL     1      -2.166  -0.066   4.759  0.00  0.00    -0.231 N 
ATOM      4  H   UNL     1      -3.033   0.042   4.338  0.00  0.00    +0.173 HD
ENDROOT
BRANCH   3   5
ATOM      5  N   UNL     1      -2.075  -0.200   6.151  0.00  0.00    -0.233 N 
ATOM      6  C   UNL     1      -3.192  -0.180   6.904  0.00  0.00    +0.246 C 
ATOM      7  O   UNL     1      -4.277  -0.045   6.378  0.00  0.00    -0.273 OA
ATOM      8  H   UNL     1      -1.208  -0.308   6.572  0.00  0.00    +0.173 HD
BRANCH   6   9
ATOM      9  C   UNL     1      -3.094  -0.325   8.401  0.00  0.00    +0.203 C 
BRANCH   9  10
ATOM     10  N   UNL     1      -4.436  -0.271   8.986  0.00  0.00    -0.291 N 
ATOM     11  C   UNL     1      -4.595  -0.380  10.320  0.00  0.00    +0.297 C 
ATOM     12  O   UNL     1      -3.625  -0.524  11.038  0.00  0.00    -0.253 OA
ATOM     13  N   UNL     1      -5.830  -0.331  10.858  0.00  0.00    -0.313 N 
ATOM     14  H   UNL     1      -5.211  -0.157   8.413  0.00  0.00    +0.151 HD
ATOM     15  H   UNL     1      -6.604  -0.216  10.285  0.00  0.00    +0.146 HD
ATOM     16  H   UNL     1      -5.944  -0.410  11.818  0.00  0.00    +0.146 HD
ENDBRANCH   9  10
ENDBRANCH   6   9
ENDBRANCH   3   5
BRANCH   1  17
ATOM     17  C   UNL     1      -1.147   0.059   2.509  0.00  0.00    +0.257 C 
ATOM     18  C   UNL     1      -1.683   1.450   2.165  0.00  0.00    +0.062 C 
BRANCH  17  19
ATOM     19  O   UNL     1       0.148  -0.110   1.928  0.00  0.00    -0.479 OA
BRANCH  19  26
ATOM     20  C   UNL     1       0.141  -2.934   1.892  0.00  0.00    +0.047 C 
ATOM     21  C   UNL     1       0.205  -2.106   0.635  0.00  0.00    -0.007 A 
ATOM     22  C   UNL     1       0.257  -2.725  -0.599  0.00  0.00    +0.027 A 
ATOM     23  C   UNL     1       0.316  -1.965  -1.754  0.00  0.00    +0.042 A 
ATOM     24  C   UNL     1       0.323  -0.584  -1.675  0.00  0.00    +0.027 A 
ATOM     25  C   UNL     1       0.270   0.039  -0.443  0.00  0.00    -0.007 A 
ATOM     26  C   UNL     1       0.205  -0.721   0.715  0.00  0.00    +0.127 A 
ATOM     27  C   UNL     1       0.278   1.544  -0.358  0.00  0.00    +0.047 C 
ATOM     28 CL   UNL     1       0.383  -2.746  -3.303  0.00  0.00    -0.084 Cl
ENDBRANCH  19  26
ENDBRANCH  17  19
ENDBRANCH   1  17
TORSDOF 6
