REMARK  Name = ZINC20601628
REMARK  10 active torsions:
REMARK  status: ('A' for Active; 'I' for Inactive)
REMARK    1  A    between atoms: C_1  and  C_2
REMARK    2  A    between atoms: C_9  and  C_21
REMARK    3  A    between atoms: C_10  and  N_12
REMARK    4  A    between atoms: N_12  and  C_13
REMARK    5  A    between atoms: N_12  and  C_14
REMARK    6  A    between atoms: C_14  and  C_15
REMARK    7  A    between atoms: C_21  and  N_22
REMARK    8  A    between atoms: N_22  and  C_23
REMARK    9  A    between atoms: C_23  and  C_24
REMARK   10  A    between atoms: C_30  and  C_32
REMARK                            x       y       z     vdW  Elec       q    Type
REMARK                         _______ _______ _______ _____ _____    ______ ____
ROOT
ATOM      1  C   UNL     1      -2.362  -0.722  -0.867  0.00  0.00    +0.044 C 
ATOM      2  C   UNL     1      -2.063  -2.133  -0.431  0.00  0.00    -0.050 A 
ATOM      3  C   UNL     1      -2.289  -3.187  -1.313  0.00  0.00    +0.005 A 
ATOM      4  C   UNL     1      -2.030  -4.473  -0.950  0.00  0.00    +0.028 A 
ATOM      5  C   UNL     1      -1.525  -4.748   0.333  0.00  0.00    +0.073 A 
ATOM      6  C   UNL     1      -1.296  -3.675   1.227  0.00  0.00    +0.001 A 
ATOM      7  C   UNL     1      -1.570  -2.360   0.818  0.00  0.00    +0.013 A 
ATOM      8  C   UNL     1      -0.789  -3.950   2.514  0.00  0.00    +0.018 A 
ATOM      9  C   UNL     1      -0.540  -5.247   2.846  0.00  0.00    +0.010 A 
ATOM     10  C   UNL     1      -0.789  -6.266   1.916  0.00  0.00    +0.127 A 
ATOM     11  N   UNL     1      -1.262  -6.003   0.715  0.00  0.00    -0.232 NA
ENDROOT
BRANCH  10  12
ATOM     12  N   UNL     1      -0.530  -7.582   2.268  0.00  0.00    -0.312 N 
ATOM     13  C   UNL     1       0.804  -8.148   2.058  0.00  0.00    +0.131 C 
BRANCH  12  14
ATOM     14  C   UNL     1      -1.592  -8.407   2.850  0.00  0.00    +0.160 C 
BRANCH  14  15
ATOM     15  C   UNL     1      -2.340  -9.113   1.749  0.00  0.00    +0.053 A 
ATOM     16  C   UNL     1      -3.480  -8.686   1.157  0.00  0.00    +0.045 A 
ATOM     17  C   UNL     1      -3.842  -9.629   0.189  0.00  0.00    +0.134 A 
ATOM     18  N   UNL     1      -2.952 -10.588   0.200  0.00  0.00    -0.182 NA
ATOM     19  N   UNL     1      -1.991 -10.282   1.172  0.00  0.00    -0.280 N 
ATOM     20  H   UNL     1      -1.212 -10.817   1.393  0.00  0.00    +0.189 HD
ENDBRANCH  14  15
ENDBRANCH  12  14
ENDBRANCH  10  12
BRANCH   9  21
ATOM     21  C   UNL     1       0.002  -5.586   4.211  0.00  0.00    +0.146 C 
BRANCH  21  22
ATOM     22  N   UNL     1       0.039  -4.376   5.036  0.00  0.00    -0.291 N 
ATOM     23  C   UNL     1       1.208  -3.738   5.243  0.00  0.00    +0.250 C 
ATOM     24  O   UNL     1       1.237  -2.728   5.918  0.00  0.00    -0.270 OA
BRANCH  23  25
ATOM     25  C   UNL     1       2.453  -4.267   4.650  0.00  0.00    +0.072 A 
ATOM     26  C   UNL     1       2.405  -5.029   3.481  0.00  0.00    +0.016 A 
ATOM     27  C   UNL     1       3.571  -5.519   2.932  0.00  0.00    +0.001 A 
ATOM     28  C   UNL     1       4.789  -5.258   3.537  0.00  0.00    +0.003 A 
ATOM     29  C   UNL     1       4.847  -4.505   4.695  0.00  0.00    +0.039 A 
ATOM     30  C   UNL     1       3.687  -4.002   5.253  0.00  0.00    +0.135 A 
ATOM     31  F   UNL     1       3.744  -3.261   6.382  0.00  0.00    -0.205 F 
ENDBRANCH  23  25
BRANCH  22  32
ATOM     32  C   UNL     1      -1.194  -3.860   5.636  0.00  0.00    +0.140 C 
BRANCH  32  33
ATOM     33  C   UNL     1      -1.380  -4.473   7.025  0.00  0.00    +0.136 C 
ATOM     34  C   UNL     1      -2.736  -4.030   7.615  0.00  0.00    +0.035 C 
ATOM     35  C   UNL     1      -2.384  -3.794   9.109  0.00  0.00    +0.031 C 
ATOM     36  C   UNL     1      -0.933  -3.264   8.989  0.00  0.00    +0.160 C 
ATOM     37  O   UNL     1      -0.350  -4.007   7.904  0.00  0.00    -0.375 OA
ENDBRANCH  32  33
ENDBRANCH  22  32
ENDBRANCH  21  22
ENDBRANCH   9  21
TORSDOF 8
