REMARK  Name = ZINC45411556
REMARK  9 active torsions:
REMARK  status: ('A' for Active; 'I' for Inactive)
REMARK    1  A    between atoms: C_1  and  C_2
REMARK    2  A    between atoms: C_2  and  C_4
REMARK    3  A    between atoms: C_2  and  N_14
REMARK    4  A    between atoms: C_15  and  C_17
REMARK    5  A    between atoms: C_17  and  S_18
REMARK    6  A    between atoms: S_18  and  C_19
REMARK    7  A    between atoms: C_22  and  C_30
REMARK    8  A    between atoms: N_23  and  C_24
REMARK    9  A    between atoms: C_24  and  C_25
REMARK                            x       y       z     vdW  Elec       q    Type
REMARK                         _______ _______ _______ _____ _____    ______ ____
ROOT
ATOM      1  N   UNL     1       0.711  -0.489   1.189  0.00  0.00    -0.308 N 
ATOM      2  C   UNL     1       0.051  -0.633   2.355  0.00  0.00    +0.224 C 
ATOM      3  O   UNL     1      -1.129  -0.361   2.423  0.00  0.00    -0.275 OA
ATOM      4  H   UNL     1       1.654  -0.707   1.135  0.00  0.00    +0.149 HD
ENDROOT
BRANCH   1   6
ATOM      5  C   UNL     1      -0.019   1.526   0.010  0.00  0.00    +0.033 C 
ATOM      6  C   UNL     1       0.002  -0.004   0.002  0.00  0.00    +0.100 C 
BRANCH   6   7
ATOM      7  C   UNL     1       0.707  -0.490  -1.238  0.00  0.00    -0.027 A 
ATOM      8  C   UNL     1       2.089  -0.512  -1.286  0.00  0.00    +0.006 A 
ATOM      9  C   UNL     1       2.727  -0.955  -2.426  0.00  0.00    +0.004 A 
ATOM     10  C   UNL     1       1.994  -1.382  -3.526  0.00  0.00    -0.044 A 
ATOM     11  C   UNL     1       0.618  -1.365  -3.475  0.00  0.00    -0.044 A 
ATOM     12  C   UNL     1      -0.023  -0.920  -2.326  0.00  0.00    +0.009 A 
ATOM     13  C   UNL     1      -0.241  -1.828  -4.623  0.00  0.00    +0.035 C 
ATOM     14  C   UNL     1       0.570  -1.873  -5.917  0.00  0.00    +0.005 C 
ATOM     15  C   UNL     1       1.853  -2.670  -5.656  0.00  0.00    +0.005 C 
ATOM     16  C   UNL     1       2.755  -1.846  -4.740  0.00  0.00    +0.035 C 
ENDBRANCH   6   7
ENDBRANCH   1   6
BRANCH   2  17
ATOM     17  C   UNL     1       0.780  -1.133   3.576  0.00  0.00    +0.173 C 
BRANCH  17  18
ATOM     18  S   UNL     1      -0.371  -1.217   4.976  0.00  0.00    -0.077 S 
BRANCH  18  19
ATOM     19  C   UNL     1       0.619  -1.809   6.307  0.00  0.00    +0.192 A 
ATOM     20  N   UNL     1       1.897  -2.104   6.258  0.00  0.00    -0.122 NA
ATOM     21  N   UNL     1       2.297  -2.507   7.412  0.00  0.00    -0.133 NA
ATOM     22  C   UNL     1       1.306  -2.494   8.258  0.00  0.00    +0.138 A 
ATOM     23  N   UNL     1       0.203  -2.043   7.587  0.00  0.00    -0.298 N 
BRANCH  22  24
ATOM     24  C   UNL     1       1.366  -2.894   9.710  0.00  0.00    +0.057 C 
ATOM     25  C   UNL     1       2.746  -3.169  10.310  0.00  0.00    +0.012 C 
ATOM     26  C   UNL     1       1.789  -4.329  10.030  0.00  0.00    +0.012 C 
ENDBRANCH  22  24
BRANCH  23  27
ATOM     27  C   UNL     1      -1.145  -1.854   8.127  0.00  0.00    +0.199 C 
BRANCH  27  28
ATOM     28  C   UNL     1      -1.936  -3.126   7.962  0.00  0.00    +0.125 A 
ATOM     29  C   UNL     1      -2.009  -4.128   8.856  0.00  0.00    +0.046 A 
ATOM     30  C   UNL     1      -2.853  -5.115   8.298  0.00  0.00    +0.041 A 
ATOM     31  C   UNL     1      -3.246  -4.657   7.096  0.00  0.00    +0.195 A 
ATOM     32  O   UNL     1      -2.692  -3.449   6.900  0.00  0.00    -0.466 OA
ENDBRANCH  27  28
ENDBRANCH  23  27
ENDBRANCH  18  19
ENDBRANCH  17  18
ENDBRANCH   2  17
TORSDOF 8
