REMARK  Name = ZINC01375443
REMARK  14 active torsions:
REMARK  status: ('A' for Active; 'I' for Inactive)
REMARK    1  A    between atoms: C_1  and  C_2
REMARK    2  A    between atoms: C_2  and  C_3
REMARK    3  A    between atoms: C_3  and  C_5
REMARK    4  A    between atoms: C_3  and  N_19
REMARK    5  A    between atoms: N_9  and  C_10
REMARK    6  A    between atoms: C_10  and  C_11
REMARK    7  A    between atoms: C_14  and  O_17
REMARK    8  A    between atoms: O_17  and  C_18
REMARK    9  A    between atoms: N_19  and  C_20
REMARK   10  A    between atoms: N_19  and  C_30
REMARK   11  A    between atoms: C_20  and  C_21
REMARK   12  A    between atoms: C_30  and  C_31
REMARK   13  A    between atoms: C_36  and  C_44
REMARK   14  A    between atoms: C_37  and  C_43
REMARK                            x       y       z     vdW  Elec       q    Type
REMARK                         _______ _______ _______ _____ _____    ______ ____
ROOT
ATOM      1  N   UNL     1       0.093  -0.529  -2.243  0.00  0.00    -0.284 NA
ENDROOT
BRANCH   1   2
ATOM      2  C   UNL     1       1.091  -0.732  -1.185  0.00  0.00    +0.127 C 
BRANCH   2   3
ATOM      3  C   UNL     1       2.471  -0.495  -1.742  0.00  0.00    +0.169 A 
ATOM      4  N   UNL     1       2.939  -0.935  -2.884  0.00  0.00    -0.112 NA
ATOM      5  N   UNL     1       4.154  -0.522  -3.002  0.00  0.00    -0.023 NA
ATOM      6  N   UNL     1       4.472   0.171  -1.964  0.00  0.00    -0.044 NA
ATOM      7  N   UNL     1       3.459   0.215  -1.167  0.00  0.00    -0.223 N 
BRANCH   7   8
ATOM      8  C   UNL     1       3.397   0.905   0.124  0.00  0.00    +0.182 C 
BRANCH   8   9
ATOM      9  C   UNL     1       3.841  -0.033   1.217  0.00  0.00    -0.026 A 
ATOM     10  C   UNL     1       2.914  -0.836   1.856  0.00  0.00    +0.009 A 
ATOM     11  C   UNL     1       3.318  -1.696   2.859  0.00  0.00    +0.046 A 
ATOM     12  C   UNL     1       4.655  -1.755   3.223  0.00  0.00    +0.120 A 
ATOM     13  C   UNL     1       5.583  -0.949   2.580  0.00  0.00    +0.046 A 
ATOM     14  C   UNL     1       5.175  -0.094   1.575  0.00  0.00    +0.009 A 
BRANCH  12  15
ATOM     15  O   UNL     1       5.056  -2.600   4.209  0.00  0.00    -0.495 OA
ATOM     16  C   UNL     1       6.447  -2.608   4.532  0.00  0.00    +0.277 C 
ENDBRANCH  12  15
ENDBRANCH   8   9
ENDBRANCH   7   8
ENDBRANCH   2   3
BRANCH   2  18
ATOM     17  C   UNL     1      -0.366  -2.370   0.014  0.00  0.00    +0.006 C 
ATOM     18  C   UNL     1       0.992  -2.166  -0.660  0.00  0.00    +0.023 C 
ENDBRANCH   2  18
ENDBRANCH   1   2
BRANCH   1  19
ATOM     19  C   UNL     1       0.415  -1.331  -3.431  0.00  0.00    +0.120 C 
BRANCH  19  20
ATOM     20  C   UNL     1      -0.797  -1.417  -4.322  0.00  0.00    -0.030 A 
ATOM     21  C   UNL     1      -1.765  -2.374  -4.080  0.00  0.00    +0.009 A 
ATOM     22  C   UNL     1      -2.879  -2.457  -4.894  0.00  0.00    +0.050 A 
ATOM     23  C   UNL     1      -3.027  -1.581  -5.957  0.00  0.00    +0.166 A 
ATOM     24  C   UNL     1      -2.052  -0.617  -6.202  0.00  0.00    +0.167 A 
ATOM     25  C   UNL     1      -0.942  -0.536  -5.378  0.00  0.00    +0.054 A 
ATOM     26  O   UNL     1      -2.426   0.115  -7.292  0.00  0.00    -0.453 OA
ATOM     27  C   UNL     1      -3.433  -0.671  -7.956  0.00  0.00    +0.466 C 
ATOM     28  O   UNL     1      -4.012  -1.453  -6.894  0.00  0.00    -0.453 OA
ENDBRANCH  19  20
ENDBRANCH   1  19
BRANCH   1  29
ATOM     29  C   UNL     1      -0.028   0.895  -2.586  0.00  0.00    +0.126 C 
BRANCH  29  30
ATOM     30  C   UNL     1      -0.824   1.602  -1.520  0.00  0.00    +0.031 A 
ATOM     31  C   UNL     1      -0.182   2.274  -0.532  0.00  0.00    +0.020 A 
ATOM     32  C   UNL     1      -0.985   2.951   0.488  0.00  0.00    -0.001 A 
ATOM     33  C   UNL     1      -0.380   3.660   1.531  0.00  0.00    +0.010 A 
ATOM     34  C   UNL     1      -1.157   4.282   2.467  0.00  0.00    +0.004 A 
ATOM     35  C   UNL     1      -2.541   4.216   2.393  0.00  0.00    -0.046 A 
ATOM     36  C   UNL     1      -3.159   3.523   1.374  0.00  0.00    -0.024 A 
ATOM     37  C   UNL     1      -2.388   2.883   0.409  0.00  0.00    +0.052 A 
ATOM     38  N   UNL     1      -2.979   2.183  -0.622  0.00  0.00    -0.322 N 
ATOM     39  H   UNL     1      -3.947   2.137  -0.675  0.00  0.00    +0.169 HD
ATOM     40  C   UNL     1      -2.234   1.569  -1.557  0.00  0.00    +0.254 A 
ATOM     41  O   UNL     1      -2.791   0.964  -2.457  0.00  0.00    -0.268 OA
ATOM     42  C   UNL     1      -4.663   3.459   1.306  0.00  0.00    +0.046 C 
ATOM     43  C   UNL     1      -3.378   4.909   3.437  0.00  0.00    +0.044 C 
ENDBRANCH  29  30
ENDBRANCH   1  29
TORSDOF 10
