REMARK  Name = ZINC08876261
REMARK  13 active torsions:
REMARK  status: ('A' for Active; 'I' for Inactive)
REMARK    1  A    between atoms: C_1  and  C_2
REMARK    2  A    between atoms: C_2  and  C_4
REMARK    3  A    between atoms: C_2  and  C_5
REMARK    4  A    between atoms: C_5  and  C_7
REMARK    5  A    between atoms: C_5  and  N_20
REMARK    6  A    between atoms: N_9  and  C_10
REMARK    7  A    between atoms: C_10  and  C_11
REMARK    8  A    between atoms: C_11  and  C_12
REMARK    9  A    between atoms: C_15  and  O_18
REMARK   10  A    between atoms: O_18  and  C_19
REMARK   11  A    between atoms: C_21  and  C_23
REMARK   12  A    between atoms: C_25  and  C_38
REMARK   13  A    between atoms: C_25  and  C_39
REMARK                            x       y       z     vdW  Elec       q    Type
REMARK                         _______ _______ _______ _____ _____    ______ ____
ROOT
ATOM      1  N   UNL     1      -6.763   1.432  -1.917  0.00  0.00    -0.302 N 
ATOM      2  C   UNL     1      -5.498   1.682  -1.523  0.00  0.00    +0.236 C 
ATOM      3  O   UNL     1      -4.613   0.898  -1.792  0.00  0.00    -0.274 OA
ATOM      4  H   UNL     1      -7.471   2.059  -1.702  0.00  0.00    +0.150 HD
ENDROOT
BRANCH   2   5
ATOM      5  C   UNL     1      -5.185   2.935  -0.747  0.00  0.00    +0.179 C 
ATOM      6  C   UNL     1      -5.217   4.139  -1.717  0.00  0.00    +0.040 C 
ATOM      7  S   UNL     1      -3.593   4.943  -1.363  0.00  0.00    -0.125 S 
ATOM      8  C   UNL     1      -3.260   4.076   0.240  0.00  0.00    +0.167 C 
ATOM      9  N   UNL     1      -3.897   2.760  -0.074  0.00  0.00    -0.269 N 
ATOM     10  C   UNL     1      -3.034   1.820   0.369  0.00  0.00    +0.249 C 
ATOM     11  O   UNL     1      -3.329   0.674   0.647  0.00  0.00    -0.270 OA
ATOM     12  C   UNL     1      -1.678   2.396   0.465  0.00  0.00    +0.043 A 
ATOM     13  C   UNL     1      -1.792   3.788   0.371  0.00  0.00    -0.005 A 
ATOM     14  C   UNL     1      -0.668   4.579   0.420  0.00  0.00    +0.007 A 
ATOM     15  C   UNL     1       0.580   4.001   0.581  0.00  0.00    +0.000 A 
ATOM     16  C   UNL     1       0.702   2.627   0.693  0.00  0.00    +0.001 A 
ATOM     17  C   UNL     1      -0.418   1.824   0.639  0.00  0.00    +0.013 A 
ATOM     18  C   UNL     1      -5.291   3.671  -3.171  0.00  0.00    +0.025 C 
ATOM     19  C   UNL     1      -6.378   5.079  -1.386  0.00  0.00    +0.025 C 
ENDBRANCH   2   5
BRANCH   1  20
ATOM     20  C   UNL     1      -7.068   0.214  -2.672  0.00  0.00    +0.161 C 
BRANCH  20  21
ATOM     21  C   UNL     1      -8.310   0.432  -3.497  0.00  0.00    +0.234 C 
ATOM     22  O   UNL     1      -9.142   1.238  -3.139  0.00  0.00    -0.274 OA
ATOM     23  N   UNL     1      -8.496  -0.269  -4.633  0.00  0.00    -0.313 N 
ATOM     24  H   UNL     1      -7.867  -0.965  -4.882  0.00  0.00    +0.149 HD
BRANCH  23  25
ATOM     25  C   UNL     1      -9.648   0.018  -5.491  0.00  0.00    +0.109 C 
BRANCH  25  26
ATOM     26  C   UNL     1      -9.624  -0.912  -6.705  0.00  0.00    +0.054 C 
BRANCH  26  27
ATOM     27  C   UNL     1     -10.809  -0.616  -7.588  0.00  0.00    -0.046 A 
ATOM     28  C   UNL     1     -12.001  -1.289  -7.393  0.00  0.00    +0.007 A 
ATOM     29  C   UNL     1     -13.090  -1.015  -8.197  0.00  0.00    +0.046 A 
ATOM     30  C   UNL     1     -12.984  -0.072  -9.209  0.00  0.00    +0.120 A 
ATOM     31  C   UNL     1     -11.785   0.598  -9.407  0.00  0.00    +0.046 A 
ATOM     32  C   UNL     1     -10.700   0.325  -8.596  0.00  0.00    +0.007 A 
BRANCH  30  33
ATOM     33  O   UNL     1     -14.052   0.194 -10.006  0.00  0.00    -0.495 OA
ATOM     34  C   UNL     1     -15.254  -0.533  -9.745  0.00  0.00    +0.277 C 
ENDBRANCH  30  33
ENDBRANCH  26  27
ENDBRANCH  25  26
ENDBRANCH  23  25
ENDBRANCH  20  21
BRANCH  20  36
ATOM     35  C   UNL     1      -8.547  -0.665  -0.861  0.00  0.00    +0.009 C 
ATOM     36  C   UNL     1      -7.298  -0.944  -1.699  0.00  0.00    +0.012 C 
ATOM     37  C   UNL     1      -7.492  -2.241  -2.487  0.00  0.00    +0.009 C 
ENDBRANCH  20  36
ENDBRANCH   1  20
TORSDOF 8
