REMARK  Name = ZINC14000808
REMARK  4 active torsions:
REMARK  status: ('A' for Active; 'I' for Inactive)
REMARK    1  A    between atoms: C_1  and  C_2
REMARK    2  A    between atoms: C_2  and  C_3
REMARK    3  A    between atoms: C_8  and  N_9
REMARK    4  A    between atoms: C_15  and  C_20
REMARK                            x       y       z     vdW  Elec       q    Type
REMARK                         _______ _______ _______ _____ _____    ______ ____
ROOT
ATOM      1  N   UNL     1      -1.284  -0.348  -2.513  0.00  0.00    -0.206 N 
ATOM      2  C   UNL     1      -1.153  -1.144  -3.609  0.00  0.00    +0.140 C 
ATOM      3  N   UNL     1      -1.643  -2.351  -3.878  0.00  0.00    -0.164 NA
ATOM      4  C   UNL     1      -1.218  -3.002  -4.953  0.00  0.00    +0.239 C 
ATOM      5  O   UNL     1      -1.763  -4.049  -5.245  0.00  0.00    -0.274 OA
ATOM      6  C   UNL     1      -0.100  -2.515  -5.827  0.00  0.00    +0.111 C 
ATOM      7  C   UNL     1      -0.088  -0.987  -5.930  0.00  0.00    +0.062 C 
ATOM      8  C   UNL     1      -0.380  -0.426  -4.560  0.00  0.00    +0.015 C 
ATOM      9  C   UNL     1      -0.027   0.748  -4.019  0.00  0.00    +0.095 C 
ATOM     10  N   UNL     1      -0.561   0.831  -2.763  0.00  0.00    -0.265 N 
ATOM     11  H   UNL     1      -0.458   1.575  -2.150  0.00  0.00    +0.170 HD
ENDROOT
BRANCH   1  17
ATOM     12  C   UNL     1      -1.380  -0.628  -0.116  0.00  0.00    -0.025 A 
ATOM     13  C   UNL     1      -2.100  -0.917   1.026  0.00  0.00    +0.005 A 
ATOM     14  C   UNL     1      -3.444  -1.229   0.938  0.00  0.00    +0.000 A 
ATOM     15  C   UNL     1      -4.072  -1.253  -0.294  0.00  0.00    +0.002 A 
ATOM     16  C   UNL     1      -3.358  -0.966  -1.441  0.00  0.00    +0.025 A 
ATOM     17  C   UNL     1      -2.009  -0.646  -1.355  0.00  0.00    +0.058 A 
BRANCH  12  19
ATOM     18  C   UNL     1       0.919  -1.535  -0.318  0.00  0.00    +0.009 C 
ATOM     19  C   UNL     1       0.085  -0.288  -0.019  0.00  0.00    +0.034 C 
ENDBRANCH  12  19
ENDBRANCH   1  17
BRANCH   7  20
ATOM     20  C   UNL     1       1.267  -0.518  -6.396  0.00  0.00    -0.039 A 
ATOM     21  C   UNL     1       2.393  -0.811  -5.650  0.00  0.00    +0.004 A 
ATOM     22  C   UNL     1       3.636  -0.381  -6.077  0.00  0.00    +0.000 A 
ATOM     23  C   UNL     1       3.752   0.342  -7.250  0.00  0.00    +0.000 A 
ATOM     24  C   UNL     1       2.626   0.634  -7.996  0.00  0.00    +0.000 A 
ATOM     25  C   UNL     1       1.383   0.201  -7.571  0.00  0.00    +0.004 A 
ENDBRANCH   7  20
TORSDOF 3
