REMARK  Name = ZINC05310022
REMARK  6 active torsions:
REMARK  status: ('A' for Active; 'I' for Inactive)
REMARK    1  A    between atoms: C_1  and  C_2
REMARK    2  A    between atoms: C_2  and  C_3
REMARK    3  A    between atoms: C_2  and  C_4
REMARK    4  A    between atoms: C_4  and  C_6
REMARK    5  A    between atoms: C_4  and  S_12
REMARK    6  A    between atoms: S_12  and  C_13
REMARK                            x       y       z     vdW  Elec       q    Type
REMARK                         _______ _______ _______ _____ _____    ______ ____
ROOT
ATOM      1  C   UNL     1      -1.433  -0.534   0.013  0.00  0.00    +0.143 C 
ENDROOT
BRANCH   1   2
ATOM      2  C   UNL     1      -2.175   0.051   1.187  0.00  0.00    +0.234 C 
ATOM      3  O   UNL     1      -2.922   0.992   1.024  0.00  0.00    -0.274 OA
ATOM      4  N   UNL     1      -2.009  -0.473   2.418  0.00  0.00    -0.239 N 
ATOM      5  C   UNL     1      -2.673   0.050   3.468  0.00  0.00    +0.303 C 
ATOM      6  O   UNL     1      -3.421   0.993   3.305  0.00  0.00    -0.253 OA
ATOM      7  N   UNL     1      -2.506  -0.473   4.699  0.00  0.00    -0.313 N 
ATOM      8  H   UNL     1      -1.411  -1.225   2.548  0.00  0.00    +0.159 HD
ATOM      9  H   UNL     1      -1.908  -1.226   4.829  0.00  0.00    +0.146 HD
ATOM     10  H   UNL     1      -2.984  -0.097   5.454  0.00  0.00    +0.146 HD
ENDBRANCH   1   2
BRANCH   1  12
ATOM     11  C   UNL     1      -0.019   1.526   0.010  0.00  0.00    +0.009 C 
ATOM     12  C   UNL     1       0.002  -0.004   0.002  0.00  0.00    +0.005 C 
ATOM     13  C   UNL     1       0.742  -0.511   1.242  0.00  0.00    +0.009 C 
ENDBRANCH   1  12
BRANCH   1  14
ATOM     14  S   UNL     1      -2.265  -0.057  -1.527  0.00  0.00    -0.073 S 
BRANCH  14  15
ATOM     15  C   UNL     1      -1.380  -0.926  -2.777  0.00  0.00    +0.192 A 
ATOM     16  N   UNL     1      -0.359  -1.721  -2.563  0.00  0.00    -0.201 NA
ATOM     17  C   UNL     1       0.085  -2.225  -3.742  0.00  0.00    +0.181 A 
ATOM     18  C   UNL     1      -0.736  -1.690  -4.751  0.00  0.00    +0.112 A 
ATOM     19  N   UNL     1      -1.657  -0.877  -4.114  0.00  0.00    -0.219 NA
ATOM     20  C   UNL     1      -0.507  -2.040  -6.073  0.00  0.00    +0.053 A 
ATOM     21  C   UNL     1       0.535  -2.913  -6.350  0.00  0.00    +0.061 A 
ATOM     22  C   UNL     1       1.306  -3.404  -5.310  0.00  0.00    +0.133 A 
ATOM     23  N   UNL     1       1.071  -3.060  -4.061  0.00  0.00    -0.233 NA
ATOM     24 CL   UNL     1       0.869  -3.387  -7.987  0.00  0.00    -0.082 Cl
ENDBRANCH  14  15
ENDBRANCH   1  14
TORSDOF 4
