REMARK  Name = ZINC46459095
REMARK  5 active torsions:
REMARK  status: ('A' for Active; 'I' for Inactive)
REMARK    1  A    between atoms: C_1  and  C_2
REMARK    2  A    between atoms: N_11  and  C_12
REMARK    3  A    between atoms: C_12  and  C_14
REMARK    4  A    between atoms: C_12  and  C_21
REMARK    5  A    between atoms: C_14  and  N_15
REMARK                            x       y       z     vdW  Elec       q    Type
REMARK                         _______ _______ _______ _____ _____    ______ ____
ROOT
ATOM      1  C   UNL     1       2.828  -4.891   1.762  0.00  0.00    +0.122 C 
ENDROOT
BRANCH   1  11
ATOM      2  C   UNL     1      -0.016   1.530   0.020  0.00  0.00    +0.009 C 
ATOM      3  C   UNL     1       0.005   0.000   0.006  0.00  0.00    +0.003 C 
ATOM      4  C   UNL     1      -1.430  -0.531   0.013  0.00  0.00    +0.006 C 
ATOM      5  C   UNL     1      -1.410  -2.061  -0.034  0.00  0.00    +0.019 C 
ATOM      6  C   UNL     1      -0.691  -2.596   1.208  0.00  0.00    +0.109 C 
ATOM      7  N   UNL     1       0.639  -1.977   1.288  0.00  0.00    -0.285 N 
ATOM      8  C   UNL     1       0.741  -0.512   1.248  0.00  0.00    +0.112 C 
ATOM      9  C   UNL     1       1.746  -2.740   1.395  0.00  0.00    +0.303 C 
ATOM     10  O   UNL     1       2.845  -2.222   1.364  0.00  0.00    -0.253 OA
ATOM     11  N   UNL     1       1.633  -4.075   1.536  0.00  0.00    -0.291 N 
ATOM     12  H   UNL     1       0.760  -4.496   1.489  0.00  0.00    +0.151 HD
ENDBRANCH   1  11
BRANCH   1  13
ATOM     13  C   UNL     1       3.462  -5.230   0.438  0.00  0.00    -0.026 A 
ATOM     14  C   UNL     1       2.668  -5.549  -0.648  0.00  0.00    +0.005 A 
ATOM     15  C   UNL     1       3.249  -5.860  -1.863  0.00  0.00    +0.000 A 
ATOM     16  C   UNL     1       4.626  -5.852  -1.992  0.00  0.00    +0.000 A 
ATOM     17  C   UNL     1       5.420  -5.532  -0.907  0.00  0.00    +0.000 A 
ATOM     18  C   UNL     1       4.838  -5.217   0.306  0.00  0.00    +0.005 A 
ENDBRANCH   1  13
BRANCH   1  19
ATOM     19  C   UNL     1       2.436  -6.181   2.485  0.00  0.00    +0.134 C 
BRANCH  19  20
ATOM     20  N   UNL     1       1.713  -5.851   3.716  0.00  0.00    -0.299 N 
ATOM     21  C   UNL     1       2.353  -5.636   5.019  0.00  0.00    +0.108 C 
ATOM     22  C   UNL     1       1.298  -4.906   5.880  0.00  0.00    +0.028 C 
ATOM     23  C   UNL     1      -0.021  -5.357   5.213  0.00  0.00    +0.097 C 
ATOM     24  C   UNL     1       0.380  -5.701   3.795  0.00  0.00    +0.216 C 
ATOM     25  O   UNL     1      -0.390  -5.825   2.866  0.00  0.00    -0.276 OA
ENDBRANCH  19  20
ENDBRANCH   1  19
TORSDOF 4
