REMARK  Name = ZINC32093058
REMARK  8 active torsions:
REMARK  status: ('A' for Active; 'I' for Inactive)
REMARK    1  A    between atoms: C_1  and  C_2
REMARK    2  A    between atoms: C_2  and  C_3
REMARK    3  A    between atoms: C_3  and  C_5
REMARK    4  A    between atoms: C_3  and  C_6
REMARK    5  A    between atoms: C_6  and  C_8
REMARK    6  A    between atoms: C_6  and  N_19
REMARK    7  A    between atoms: N_10  and  C_11
REMARK    8  A    between atoms: N_22  and  C_23
REMARK                            x       y       z     vdW  Elec       q    Type
REMARK                         _______ _______ _______ _____ _____    ______ ____
ROOT
ATOM      1  C   UNL     1      -0.018   1.996   6.057  0.00  0.00    +0.163 C 
ENDROOT
BRANCH   1   2
ATOM      2  N   UNL     1       0.680   2.180   4.782  0.00  0.00    -0.288 N 
ATOM      3  C   UNL     1       0.038   1.941   3.622  0.00  0.00    +0.300 C 
ATOM      4  O   UNL     1      -1.120   1.573   3.632  0.00  0.00    -0.253 OA
ATOM      5  N   UNL     1       0.681   2.111   2.449  0.00  0.00    -0.295 N 
ATOM      6  H   UNL     1       1.728   2.513   4.773  0.00  0.00    +0.151 HD
ATOM      7  H   UNL     1       1.730   2.444   2.440  0.00  0.00    +0.151 HD
BRANCH   5   8
ATOM      8  C   UNL     1      -0.016   1.852   1.187  0.00  0.00    +0.097 C 
ATOM      9  C   UNL     1      -0.813   3.103   0.771  0.00  0.00    +0.046 C 
ATOM     10  C   UNL     1      -1.274   2.919  -0.703  0.00  0.00    +0.168 C 
ATOM     11  S   UNL     1       0.235   2.160  -1.437  0.00  0.00    -0.029 S 
ATOM     12  O   UNL     1       1.058   3.188  -1.971  0.00  0.00    -0.174 OA
ATOM     13  O   UNL     1      -0.151   1.071  -2.265  0.00  0.00    -0.174 OA
ATOM     14  C   UNL     1       1.018   1.500   0.091  0.00  0.00    +0.188 C 
ENDBRANCH   5   8
ENDBRANCH   1   2
BRANCH   1  15
ATOM     15  C   UNL     1       0.623   2.861   7.111  0.00  0.00    +0.234 C 
ATOM     16  O   UNL     1       1.791   3.172   7.012  0.00  0.00    -0.274 OA
ATOM     17  N   UNL     1      -0.102   3.290   8.163  0.00  0.00    -0.311 N 
ATOM     18  H   UNL     1      -1.137   2.943   8.296  0.00  0.00    +0.149 HD
BRANCH  17  19
ATOM     19  C   UNL     1       0.489   4.219   9.130  0.00  0.00    +0.073 C 
ATOM     20  C   UNL     1       1.275   3.430  10.180  0.00  0.00    +0.022 C 
ATOM     21  C   UNL     1       2.204   4.379  10.940  0.00  0.00    +0.002 C 
ATOM     22  C   UNL     1       2.896   5.318   9.950  0.00  0.00    +0.000 C 
ATOM     23  C   UNL     1       2.404   6.749  10.175  0.00  0.00    +0.000 C 
ATOM     24  C   UNL     1       0.999   6.902   9.587  0.00  0.00    +0.000 C 
ATOM     25  C   UNL     1      -0.018   6.235  10.515  0.00  0.00    +0.002 C 
ATOM     26  C   UNL     1      -0.622   5.015   9.817  0.00  0.00    +0.022 C 
ENDBRANCH  17  19
ENDBRANCH   1  15
BRANCH   1  27
ATOM     27  C   UNL     1       0.070   0.528   6.479  0.00  0.00    +0.015 C 
ATOM     28  C   UNL     1      -0.767   0.309   7.742  0.00  0.00    +0.010 C 
BRANCH  27  30
ATOM     29  C   UNL     1       1.633  -1.330   7.066  0.00  0.00    +0.004 C 
ATOM     30  C   UNL     1       1.529   0.166   6.765  0.00  0.00    +0.002 C 
ENDBRANCH  27  30
ENDBRANCH   1  27
TORSDOF 6
