REMARK  Name = ZINC05534894
REMARK  4 active torsions:
REMARK  status: ('A' for Active; 'I' for Inactive)
REMARK    1  A    between atoms: C_1  and  C_2
REMARK    2  A    between atoms: C_4  and  O_25
REMARK    3  A    between atoms: C_5  and  C_9
REMARK    4  A    between atoms: C_9  and  C_11
REMARK                            x       y       z     vdW  Elec       q    Type
REMARK                         _______ _______ _______ _____ _____    ______ ____
ROOT
ATOM      1  C   UNL     1      -0.035  -4.991   1.266  0.00  0.00    +0.041 A 
ATOM      2  C   UNL     1      -0.012  -6.395   1.278  0.00  0.00    +0.022 A 
ATOM      3  C   UNL     1      -0.101  -7.034   2.482  0.00  0.00    +0.016 A 
ATOM      4  C   UNL     1      -0.208  -6.279   3.657  0.00  0.00    +0.081 A 
ATOM      5  N   UNL     1      -0.232  -4.955   3.617  0.00  0.00    -0.254 NA
ATOM      6  C   UNL     1      -0.144  -4.301   2.477  0.00  0.00    +0.123 A 
ATOM      7  C   UNL     1      -0.283  -7.017   4.939  0.00  0.00    +0.042 A 
ATOM      8  C   UNL     1      -0.706  -6.401   6.110  0.00  0.00    +0.013 A 
ATOM      9  C   UNL     1      -0.764  -7.130   7.282  0.00  0.00    +0.001 A 
ATOM     10  C   UNL     1      -0.404  -8.467   7.289  0.00  0.00    +0.004 A 
ATOM     11  C   UNL     1       0.019  -9.088   6.129  0.00  0.00    +0.046 A 
ATOM     12  C   UNL     1       0.084  -8.370   4.946  0.00  0.00    +0.130 A 
ATOM     13  O   UNL     1       0.504  -8.956   3.798  0.00  0.00    -0.487 OA
ATOM     14  C   UNL     1      -0.090  -8.536   2.569  0.00  0.00    +0.266 C 
ENDROOT
BRANCH   1  15
ATOM     15  C   UNL     1       0.060  -4.253  -0.008  0.00  0.00    +0.198 C 
ATOM     16  O   UNL     1      -0.055  -3.042  -0.020  0.00  0.00    -0.286 OA
BRANCH  15  21
ATOM     17  C   UNL     1       0.970  -7.105  -4.924  0.00  0.00    +0.045 C 
ATOM     18  C   UNL     1       0.735  -6.359  -3.636  0.00  0.00    -0.029 A 
ATOM     19  C   UNL     1       1.780  -6.167  -2.754  0.00  0.00    +0.051 A 
ATOM     20  C   UNL     1       1.571  -5.481  -1.567  0.00  0.00    +0.128 A 
ATOM     21  C   UNL     1       0.294  -4.983  -1.267  0.00  0.00    +0.065 A 
ATOM     22  C   UNL     1      -0.755  -5.184  -2.169  0.00  0.00    +0.035 A 
ATOM     23  C   UNL     1      -0.528  -5.864  -3.347  0.00  0.00    +0.045 A 
ATOM     24 CL   UNL     1      -1.829  -6.108  -4.469  0.00  0.00    -0.083 Cl
BRANCH  20  25
ATOM     25  O   UNL     1       2.596  -5.293  -0.700  0.00  0.00    -0.506 OA
ATOM     26  H   UNL     1       3.096  -4.479  -0.851  0.00  0.00    +0.292 HD
ENDBRANCH  20  25
ENDBRANCH  15  21
ENDBRANCH   1  15
TORSDOF 3
