REMARK  Name = ZINC40056654
REMARK  8 active torsions:
REMARK  status: ('A' for Active; 'I' for Inactive)
REMARK    1  A    between atoms: C_1  and  C_2
REMARK    2  A    between atoms: C_2  and  C_3
REMARK    3  A    between atoms: C_3  and  N_4
REMARK    4  A    between atoms: C_5  and  C_22
REMARK    5  A    between atoms: C_13  and  C_20
REMARK    6  A    between atoms: C_25  and  O_28
REMARK    7  A    between atoms: O_28  and  C_29
REMARK    8  A    between atoms: C_29  and  C_30
REMARK                            x       y       z     vdW  Elec       q    Type
REMARK                         _______ _______ _______ _____ _____    ______ ____
ROOT
ATOM      1  N   UNL     1      -1.413  -1.998   0.005  0.00  0.00    -0.284 N 
ATOM      2  C   UNL     1      -1.407  -2.857  -1.191  0.00  0.00    +0.144 C 
ATOM      3  C   UNL     1      -1.388  -4.261  -0.684  0.00  0.00    +0.072 A 
ATOM      4  C   UNL     1      -1.384  -5.545  -1.394  0.00  0.00    +0.199 A 
ATOM      5  O   UNL     1      -1.220  -5.641  -2.597  0.00  0.00    -0.287 OA
ATOM      6  C   UNL     1      -1.597  -6.716  -0.506  0.00  0.00    +0.066 A 
ATOM      7  C   UNL     1      -1.818  -7.982  -1.048  0.00  0.00    +0.035 A 
ATOM      8  C   UNL     1      -2.020  -9.056  -0.209  0.00  0.00    +0.045 A 
ATOM      9  C   UNL     1      -2.004  -8.876   1.168  0.00  0.00    -0.029 A 
ATOM     10  C   UNL     1      -1.785  -7.631   1.714  0.00  0.00    +0.051 A 
ATOM     11  C   UNL     1      -1.575  -6.529   0.886  0.00  0.00    +0.140 A 
ATOM     12  O   UNL     1      -1.353  -5.319   1.449  0.00  0.00    -0.450 OA
ATOM     13  C   UNL     1      -1.378  -4.212   0.681  0.00  0.00    +0.199 A 
ATOM     14  C   UNL     1      -1.392  -2.797   1.092  0.00  0.00    +0.283 C 
ATOM     15  O   UNL     1      -1.387  -2.406   2.242  0.00  0.00    -0.267 OA
ATOM     16  C   UNL     1      -2.229 -10.057   2.076  0.00  0.00    +0.045 C 
ATOM     17 CL   UNL     1      -2.295 -10.636  -0.874  0.00  0.00    -0.083 Cl
ENDROOT
BRANCH   2  18
ATOM     18  C   UNL     1      -2.648  -2.615  -2.011  0.00  0.00    -0.022 A 
ATOM     19  C   UNL     1      -3.865  -2.426  -1.381  0.00  0.00    +0.009 A 
ATOM     20  C   UNL     1      -5.005  -2.205  -2.131  0.00  0.00    +0.046 A 
ATOM     21  C   UNL     1      -4.927  -2.173  -3.515  0.00  0.00    +0.121 A 
ATOM     22  C   UNL     1      -3.705  -2.363  -4.144  0.00  0.00    +0.046 A 
ATOM     23  C   UNL     1      -2.568  -2.578  -3.390  0.00  0.00    +0.009 A 
BRANCH  21  24
ATOM     24  O   UNL     1      -6.047  -1.956  -4.255  0.00  0.00    -0.483 OA
BRANCH  24  25
ATOM     25  C   UNL     1      -5.893  -1.936  -5.675  0.00  0.00    +0.324 C 
BRANCH  25  26
ATOM     26  C   UNL     1      -7.230  -1.685  -6.322  0.00  0.00    +0.248 C 
ATOM     27  O   UNL     1      -8.219  -1.538  -5.635  0.00  0.00    -0.272 OA
ATOM     28  N   UNL     1      -7.329  -1.624  -7.665  0.00  0.00    -0.327 N 
ATOM     29  H   UNL     1      -6.538  -1.742  -8.215  0.00  0.00    +0.145 HD
ATOM     30  H   UNL     1      -8.190  -1.462  -8.081  0.00  0.00    +0.145 HD
ENDBRANCH  25  26
ENDBRANCH  24  25
ENDBRANCH  21  24
ENDBRANCH   2  18
BRANCH   1  31
ATOM     31  C   UNL     1      -1.433  -0.534   0.013  0.00  0.00    +0.109 C 
BRANCH  31  33
ATOM     32  C   UNL     1      -0.019   1.526   0.010  0.00  0.00    +0.005 C 
ATOM     33  C   UNL     1       0.002  -0.004   0.002  0.00  0.00    +0.016 C 
ENDBRANCH  31  33
ENDBRANCH   1  31
TORSDOF 6
