REMARK  Name = ZINC49471970
REMARK  9 active torsions:
REMARK  status: ('A' for Active; 'I' for Inactive)
REMARK    1  A    between atoms: C_1  and  C_2
REMARK    2  A    between atoms: C_2  and  C_3
REMARK    3  A    between atoms: C_4  and  C_23
REMARK    4  A    between atoms: C_8  and  N_15
REMARK    5  A    between atoms: C_16  and  C_18
REMARK    6  A    between atoms: C_18  and  C_19
REMARK    7  A    between atoms: C_19  and  C_20
REMARK    8  A    between atoms: C_19  and  C_21
REMARK    9  A    between atoms: C_19  and  C_22
REMARK                            x       y       z     vdW  Elec       q    Type
REMARK                         _______ _______ _______ _____ _____    ______ ____
ROOT
ATOM      1  C   UNL     1       0.699  -0.449  -1.264  0.00  0.00    +0.020 A 
ATOM      2  C   UNL     1       2.017  -0.769  -1.205  0.00  0.00    -0.033 A 
ATOM      3  C   UNL     1       2.675  -1.246  -2.420  0.00  0.00    +0.002 A 
ATOM      4  C   UNL     1       4.032  -1.591  -2.419  0.00  0.00    +0.012 A 
ATOM      5  C   UNL     1       4.621  -2.033  -3.567  0.00  0.00    +0.024 A 
ATOM      6  C   UNL     1       3.880  -2.145  -4.745  0.00  0.00    +0.035 A 
ATOM      7  C   UNL     1       2.537  -1.808  -4.766  0.00  0.00    +0.049 A 
ATOM      8  C   UNL     1       1.922  -1.357  -3.606  0.00  0.00    +0.051 A 
ATOM      9  N   UNL     1       0.586  -1.016  -3.598  0.00  0.00    -0.322 N 
ATOM     10  H   UNL     1       0.068  -1.093  -4.415  0.00  0.00    +0.169 HD
ATOM     11  C   UNL     1      -0.011  -0.584  -2.474  0.00  0.00    +0.253 A 
ATOM     12  O   UNL     1      -1.196  -0.295  -2.503  0.00  0.00    -0.268 OA
ATOM     13  C   UNL     1       2.784  -0.635   0.085  0.00  0.00    +0.045 C 
ENDROOT
BRANCH   6  14
ATOM     14  N   UNL     1       4.499  -2.599  -5.911  0.00  0.00    -0.285 N 
ATOM     15  C   UNL     1       3.812  -3.361  -6.785  0.00  0.00    +0.218 C 
ATOM     16  O   UNL     1       2.635  -3.584  -6.600  0.00  0.00    -0.275 OA
ATOM     17  H   UNL     1       5.423  -2.366  -6.092  0.00  0.00    +0.155 HD
BRANCH  15  18
ATOM     18  C   UNL     1       4.508  -3.937  -7.991  0.00  0.00    +0.102 C 
BRANCH  18  19
ATOM     19  C   UNL     1       3.511  -4.756  -8.813  0.00  0.00    -0.029 C 
ATOM     20  C   UNL     1       2.362  -3.853  -9.268  0.00  0.00    +0.011 C 
ATOM     21  C   UNL     1       4.217  -5.340 -10.038  0.00  0.00    +0.011 C 
ATOM     22  C   UNL     1       2.955  -5.894  -7.954  0.00  0.00    +0.011 C 
ENDBRANCH  18  19
ENDBRANCH  15  18
ENDBRANCH   6  14
BRANCH   1  24
ATOM     23  C   UNL     1      -0.019   1.575  -0.024  0.00  0.00    +0.009 C 
ATOM     24  C   UNL     1      -0.010   0.045  -0.029  0.00  0.00    +0.037 C 
ENDBRANCH   1  24
TORSDOF 4
