REMARK  Name = ZINC16651118
REMARK  12 active torsions:
REMARK  status: ('A' for Active; 'I' for Inactive)
REMARK    1  A    between atoms: C_1  and  C_2
REMARK    2  A    between atoms: C_6  and  C_40
REMARK    3  A    between atoms: C_7  and  N_8
REMARK    4  A    between atoms: N_11  and  C_12
REMARK    5  A    between atoms: N_11  and  C_19
REMARK    6  A    between atoms: C_12  and  C_13
REMARK    7  A    between atoms: C_19  and  C_20
REMARK    8  A    between atoms: N_22  and  C_23
REMARK    9  A    between atoms: N_22  and  C_33
REMARK   10  A    between atoms: C_23  and  C_24
REMARK   11  A    between atoms: C_33  and  C_34
REMARK   12  A    between atoms: C_37  and  C_39
REMARK                            x       y       z     vdW  Elec       q    Type
REMARK                         _______ _______ _______ _____ _____    ______ ____
ROOT
ATOM      1  C   UNL     1      -3.031  -0.828   2.544  0.00  0.00    +0.205 C 
ENDROOT
BRANCH   1   5
ATOM      2  N   UNL     1      -0.963  -3.630   3.722  0.00  0.00    -0.269 N 
ATOM      3  C   UNL     1      -1.460  -2.388   3.562  0.00  0.00    +0.307 C 
ATOM      4  O   UNL     1      -0.981  -1.456   4.179  0.00  0.00    -0.252 OA
ATOM      5  N   UNL     1      -2.490  -2.178   2.718  0.00  0.00    -0.274 N 
ATOM      6  H   UNL     1      -1.388  -4.383   3.284  0.00  0.00    +0.156 HD
BRANCH   2  13
ATOM      7  C   UNL     1      -1.095  -5.609   5.763  0.00  0.00    +0.045 C 
ATOM      8  C   UNL     1       0.147  -4.789   5.528  0.00  0.00    -0.029 A 
ATOM      9  C   UNL     1       1.267  -4.991   6.311  0.00  0.00    +0.005 A 
ATOM     10  C   UNL     1       2.405  -4.234   6.100  0.00  0.00    +0.001 A 
ATOM     11  C   UNL     1       2.428  -3.277   5.102  0.00  0.00    +0.005 A 
ATOM     12  C   UNL     1       1.313  -3.075   4.312  0.00  0.00    -0.029 A 
ATOM     13  C   UNL     1       0.169  -3.833   4.521  0.00  0.00    +0.041 A 
ATOM     14  C   UNL     1       1.339  -2.032   3.224  0.00  0.00    +0.045 C 
ENDBRANCH   2  13
BRANCH   5  15
ATOM     15  C   UNL     1      -3.068  -3.300   1.974  0.00  0.00    +0.141 C 
BRANCH  15  16
ATOM     16  C   UNL     1      -2.338  -3.457   0.639  0.00  0.00    +0.136 C 
ATOM     17  C   UNL     1      -3.011  -4.553  -0.216  0.00  0.00    +0.035 C 
ATOM     18  C   UNL     1      -1.830  -5.258  -0.920  0.00  0.00    +0.031 C 
ATOM     19  C   UNL     1      -0.583  -4.504  -0.407  0.00  0.00    +0.160 C 
ATOM     20  O   UNL     1      -0.991  -3.932   0.854  0.00  0.00    -0.375 OA
ENDBRANCH  15  16
ENDBRANCH   5  15
ENDBRANCH   1   5
BRANCH   1  21
ATOM     21  C   UNL     1      -4.133  -0.595   3.544  0.00  0.00    +0.234 C 
ATOM     22  O   UNL     1      -4.437  -1.471   4.326  0.00  0.00    -0.274 OA
ATOM     23  N   UNL     1      -4.782   0.586   3.571  0.00  0.00    -0.289 N 
BRANCH  23  24
ATOM     24  C   UNL     1      -5.853   0.812   4.544  0.00  0.00    +0.143 C 
BRANCH  24  25
ATOM     25  C   UNL     1      -7.171   0.389   3.947  0.00  0.00    -0.026 A 
ATOM     26  C   UNL     1      -7.936   1.302   3.246  0.00  0.00    +0.009 A 
ATOM     27  C   UNL     1      -9.143   0.918   2.693  0.00  0.00    +0.050 A 
ATOM     28  C   UNL     1      -9.594  -0.383   2.849  0.00  0.00    +0.166 A 
ATOM     29  C   UNL     1      -8.826  -1.302   3.559  0.00  0.00    +0.167 A 
ATOM     30  C   UNL     1      -7.614  -0.911   4.106  0.00  0.00    +0.054 A 
ATOM     31  O   UNL     1      -9.479  -2.500   3.571  0.00  0.00    -0.453 OA
ATOM     32  C   UNL     1     -10.457  -2.416   2.517  0.00  0.00    +0.466 C 
ATOM     33  O   UNL     1     -10.729  -1.005   2.416  0.00  0.00    -0.453 OA
ENDBRANCH  24  25
ENDBRANCH  23  24
BRANCH  23  34
ATOM     34  C   UNL     1      -4.415   1.644   2.626  0.00  0.00    +0.182 C 
BRANCH  34  35
ATOM     35  C   UNL     1      -3.339   2.508   3.233  0.00  0.00    +0.122 A 
ATOM     36  C   UNL     1      -2.013   2.309   3.119  0.00  0.00    +0.046 A 
ATOM     37  C   UNL     1      -1.380   3.352   3.833  0.00  0.00    +0.045 A 
ATOM     38  C   UNL     1      -2.356   4.122   4.346  0.00  0.00    +0.102 A 
ATOM     39  O   UNL     1      -3.541   3.604   3.981  0.00  0.00    -0.463 OA
ATOM     40  C   UNL     1      -2.155   5.357   5.186  0.00  0.00    +0.086 C 
ENDBRANCH  34  35
ENDBRANCH  23  34
ENDBRANCH   1  21
TORSDOF 9
