REMARK  Name = ZINC32679071
REMARK  16 active torsions:
REMARK  status: ('A' for Active; 'I' for Inactive)
REMARK    1  A    between atoms: C_1  and  C_2
REMARK    2  A    between atoms: C_2  and  O_3
REMARK    3  A    between atoms: O_3  and  C_4
REMARK    4  A    between atoms: C_4  and  C_6
REMARK    5  A    between atoms: C_7  and  C_30
REMARK    6  A    between atoms: C_10  and  N_11
REMARK    7  A    between atoms: C_12  and  C_14
REMARK    8  A    between atoms: C_14  and  O_15
REMARK    9  A    between atoms: O_15  and  C_16
REMARK   10  A    between atoms: C_21  and  C_22
REMARK   11  A    between atoms: N_24  and  C_25
REMARK   12  A    between atoms: C_25  and  C_26
REMARK   13  A    between atoms: C_26  and  N_27
REMARK   14  A    between atoms: N_27  and  C_28
REMARK   15  A    between atoms: N_27  and  C_29
REMARK   16  A    between atoms: C_33  and  C_35
REMARK                            x       y       z     vdW  Elec       q    Type
REMARK                         _______ _______ _______ _____ _____    ______ ____
ROOT
ATOM      1  N   UNL     1      -1.498   2.036   2.503  0.00  0.00    -0.277 N 
ATOM      2  C   UNL     1      -2.247   2.453   3.544  0.00  0.00    +0.255 C 
ATOM      3  O   UNL     1      -3.290   3.037   3.344  0.00  0.00    -0.272 OA
ATOM      4  H   UNL     1      -0.551   1.506   2.685  0.00  0.00    +0.155 HD
ENDROOT
BRANCH   1   9
ATOM      5  C   UNL     1      -1.291   1.926   0.019  0.00  0.00    +0.098 A 
ATOM      6  C   UNL     1      -1.958   2.310  -1.212  0.00  0.00    +0.040 A 
ATOM      7  C   UNL     1      -3.143   2.965  -1.085  0.00  0.00    +0.059 A 
ATOM      8  S   UNL     1      -3.359   3.082   0.679  0.00  0.00    -0.080 S 
ATOM      9  C   UNL     1      -1.920   2.276   1.206  0.00  0.00    +0.087 A 
BRANCH   6  10
ATOM     10  C   UNL     1      -1.383   1.999  -2.536  0.00  0.00    +0.137 A 
ATOM     11  C   UNL     1      -2.036   1.406  -3.571  0.00  0.00    +0.050 A 
ATOM     12  C   UNL     1      -1.111   1.305  -4.631  0.00  0.00    +0.045 A 
ATOM     13  C   UNL     1       0.048   1.835  -4.195  0.00  0.00    +0.103 A 
ATOM     14  O   UNL     1      -0.121   2.258  -2.930  0.00  0.00    -0.460 OA
ATOM     15  C   UNL     1       1.321   1.941  -4.994  0.00  0.00    +0.086 C 
ENDBRANCH   6  10
BRANCH   5  16
ATOM     16  C   UNL     1      -0.014   1.212   0.009  0.00  0.00    +0.342 C 
ATOM     17  O   UNL     1       0.002  -0.004   0.002  0.00  0.00    -0.245 OA
BRANCH  16  18
ATOM     18  O   UNL     1       1.145   1.903   0.001  0.00  0.00    -0.461 OA
BRANCH  18  20
ATOM     19  C   UNL     1       3.554   2.089  -0.021  0.00  0.00    +0.048 C 
ATOM     20  C   UNL     1       2.353   1.141  -0.014  0.00  0.00    +0.229 C 
ENDBRANCH  18  20
ENDBRANCH  16  18
ENDBRANCH   5  16
ENDBRANCH   1   9
BRANCH   2  21
ATOM     21  C   UNL     1      -1.787   2.192   4.955  0.00  0.00    +0.324 C 
BRANCH  21  22
ATOM     22  O   UNL     1      -2.744   2.725   5.873  0.00  0.00    -0.482 OA
BRANCH  22  23
ATOM     23  C   UNL     1      -2.479   2.574   7.195  0.00  0.00    +0.133 A 
ATOM     24  C   UNL     1      -1.326   1.921   7.605  0.00  0.00    +0.046 A 
ATOM     25  C   UNL     1      -1.055   1.772   8.950  0.00  0.00    +0.004 A 
ATOM     26  C   UNL     1      -1.936   2.263   9.901  0.00  0.00    +0.001 A 
ATOM     27  C   UNL     1      -3.089   2.909   9.512  0.00  0.00    +0.017 A 
ATOM     28  C   UNL     1      -3.373   3.071   8.153  0.00  0.00    +0.078 A 
BRANCH  28  29
ATOM     29  C   UNL     1      -4.606   3.762   7.730  0.00  0.00    +0.248 C 
ATOM     30  O   UNL     1      -4.849   3.901   6.547  0.00  0.00    -0.270 OA
ATOM     31  N   UNL     1      -5.462   4.239   8.655  0.00  0.00    -0.313 N 
ATOM     32  H   UNL     1      -5.242   4.114   9.726  0.00  0.00    +0.149 HD
BRANCH  31  33
ATOM     33  C   UNL     1      -6.686   4.925   8.235  0.00  0.00    +0.086 C 
BRANCH  33  34
ATOM     34  C   UNL     1      -7.475   5.364   9.470  0.00  0.00    -0.061 C 
BRANCH  34  35
ATOM     35  N   UNL     1      -8.703   6.051   9.049  0.00  0.00    +0.377 N 
ATOM     36  C   UNL     1      -9.615   5.127   8.362  0.00  0.00    -0.097 C 
ATOM     37  C   UNL     1      -9.366   6.692  10.192  0.00  0.00    -0.097 C 
ATOM     38  H   UNL     1      -8.421   6.840   8.336  0.00  0.00    -0.083 HD
ENDBRANCH  34  35
ENDBRANCH  33  34
ENDBRANCH  31  33
ENDBRANCH  28  29
ENDBRANCH  22  23
ENDBRANCH  21  22
ENDBRANCH   2  21
TORSDOF 12
