REMARK  Name = ZINC54982240
REMARK  3 active torsions:
REMARK  status: ('A' for Active; 'I' for Inactive)
REMARK    1  A    between atoms: C_1  and  C_2
REMARK    2  A    between atoms: N_10  and  C_11
REMARK    3  A    between atoms: N_20  and  C_22
REMARK                            x       y       z     vdW  Elec       q    Type
REMARK                         _______ _______ _______ _____ _____    ______ ____
ROOT
ATOM      1  C   UNL     1       0.096  -6.832   0.161  0.00  0.00    +0.075 C 
ATOM      2  C   UNL     1       1.533  -7.135   0.593  0.00  0.00    -0.007 C 
ATOM      3  C   UNL     1       2.367  -7.542  -0.614  0.00  0.00    +0.003 C 
ATOM      4  C   UNL     1       1.770  -8.711  -1.381  0.00  0.00    +0.001 C 
ATOM      5  C   UNL     1       0.279  -8.567  -1.633  0.00  0.00    +0.003 C 
ATOM      6  C   UNL     1      -0.495  -8.129  -0.397  0.00  0.00    -0.007 C 
ATOM      7  C   UNL     1      -0.481  -9.202   0.684  0.00  0.00    -0.073 C 
ATOM      8  N   UNL     1       0.848  -9.439   1.238  0.00  0.00    +0.382 N 
ATOM      9  C   UNL     1       1.526  -8.218   1.663  0.00  0.00    -0.073 C 
ATOM     10  H   UNL     1       1.417  -9.944   0.579  0.00  0.00    -0.081 HD
ENDROOT
BRANCH   1  20
ATOM     11  C   UNL     1      -0.018   1.503   0.010  0.00  0.00    +0.067 C 
ATOM     12  C   UNL     1       0.002  -0.004   0.002  0.00  0.00    +0.059 A 
ATOM     13  C   UNL     1       0.008  -0.786  -1.093  0.00  0.00    +0.138 A 
ATOM     14  N   UNL     1       0.028  -2.108  -0.668  0.00  0.00    -0.212 N 
ATOM     15  C   UNL     1       0.033  -2.038   0.698  0.00  0.00    +0.197 A 
ATOM     16  N   UNL     1       0.024  -0.795   1.085  0.00  0.00    -0.225 NA
ATOM     17  S   UNL     1       0.058  -3.752   1.169  0.00  0.00    -0.013 S 
ATOM     18  C   UNL     1       0.060  -4.450  -0.475  0.00  0.00    +0.182 A 
ATOM     19  N   UNL     1       0.042  -3.382  -1.226  0.00  0.00    -0.142 NA
ATOM     20  N   UNL     1       0.077  -5.783  -0.855  0.00  0.00    -0.319 N 
ATOM     21  H   UNL     1       0.076  -6.019  -1.796  0.00  0.00    +0.148 HD
ENDBRANCH   1  20
BRANCH   8  22
ATOM     22  C   UNL     1       0.702 -10.310   2.412  0.00  0.00    -0.069 C 
ATOM     23  C   UNL     1       1.578 -11.563   2.475  0.00  0.00    -0.017 C 
ATOM     24  C   UNL     1       0.079 -11.690   2.195  0.00  0.00    -0.017 C 
ENDBRANCH   8  22
TORSDOF 2
