REMARK  Name = ZINC36598850
REMARK  14 active torsions:
REMARK  status: ('A' for Active; 'I' for Inactive)
REMARK    1  A    between atoms: C_1  and  C_2
REMARK    2  A    between atoms: C_5  and  C_9
REMARK    3  A    between atoms: C_6  and  C_8
REMARK    4  A    between atoms: C_9  and  C_11
REMARK    5  A    between atoms: C_9  and  N_18
REMARK    6  A    between atoms: N_13  and  C_14
REMARK    7  A    between atoms: C_14  and  C_15
REMARK    8  A    between atoms: C_14  and  C_16
REMARK    9  A    between atoms: C_14  and  C_17
REMARK   10  A    between atoms: N_18  and  C_19
REMARK   11  A    between atoms: C_19  and  C_20
REMARK   12  A    between atoms: C_23  and  C_25
REMARK   13  A    between atoms: C_26  and  C_28
REMARK   14  A    between atoms: C_28  and  C_29
REMARK                            x       y       z     vdW  Elec       q    Type
REMARK                         _______ _______ _______ _____ _____    ______ ____
ROOT
ATOM      1  N   UNL     1       0.378  -4.996  -1.289  0.00  0.00    -0.278 N 
ATOM      2  C   UNL     1      -0.269  -5.061  -2.469  0.00  0.00    +0.221 C 
ATOM      3  O   UNL     1      -1.378  -4.582  -2.580  0.00  0.00    -0.275 OA
ENDROOT
BRANCH   1   4
ATOM      4  C   UNL     1      -0.257  -4.346  -0.140  0.00  0.00    +0.193 C 
BRANCH   4   9
ATOM      5  C   UNL     1      -1.870   1.007  -1.599  0.00  0.00    +0.044 C 
ATOM      6  C   UNL     1      -1.450  -0.389  -1.219  0.00  0.00    -0.050 A 
ATOM      7  C   UNL     1      -2.400  -1.383  -1.075  0.00  0.00    +0.004 A 
ATOM      8  C   UNL     1      -2.014  -2.663  -0.727  0.00  0.00    +0.006 A 
ATOM      9  C   UNL     1      -0.677  -2.950  -0.521  0.00  0.00    -0.015 A 
ATOM     10  C   UNL     1       0.273  -1.957  -0.665  0.00  0.00    -0.045 A 
ATOM     11  C   UNL     1      -0.113  -0.677  -1.018  0.00  0.00    +0.007 A 
ATOM     12  C   UNL     1       1.730  -2.270  -0.441  0.00  0.00    +0.044 C 
ENDBRANCH   4   9
BRANCH   4  13
ATOM     13  C   UNL     1      -1.468  -5.139   0.280  0.00  0.00    +0.239 C 
ATOM     14  O   UNL     1      -1.912  -5.999  -0.451  0.00  0.00    -0.273 OA
ATOM     15  N   UNL     1      -2.057  -4.892   1.466  0.00  0.00    -0.309 N 
ATOM     16  H   UNL     1      -1.742  -4.162   2.021  0.00  0.00    +0.149 HD
BRANCH  15  17
ATOM     17  C   UNL     1      -3.173  -5.727   1.918  0.00  0.00    +0.026 C 
ATOM     18  C   UNL     1      -2.709  -7.181   2.031  0.00  0.00    +0.031 C 
ATOM     19  C   UNL     1      -3.655  -5.238   3.285  0.00  0.00    +0.031 C 
ATOM     20  C   UNL     1      -4.320  -5.635   0.909  0.00  0.00    +0.031 C 
ENDBRANCH  15  17
ENDBRANCH   4  13
ENDBRANCH   1   4
BRANCH   1  21
ATOM     21  C   UNL     1       1.718  -5.575  -1.155  0.00  0.00    +0.183 C 
BRANCH  21  22
ATOM     22  C   UNL     1       1.608  -6.973  -0.605  0.00  0.00    +0.122 A 
ATOM     23  C   UNL     1       1.577  -8.105  -1.332  0.00  0.00    +0.046 A 
ATOM     24  C   UNL     1       1.468  -9.177  -0.416  0.00  0.00    +0.045 A 
ATOM     25  C   UNL     1       1.439  -8.636   0.815  0.00  0.00    +0.102 A 
ATOM     26  O   UNL     1       1.530  -7.302   0.695  0.00  0.00    -0.463 OA
ATOM     27  C   UNL     1       1.329  -9.399   2.110  0.00  0.00    +0.086 C 
ENDBRANCH  21  22
ENDBRANCH   1  21
BRANCH   2  28
ATOM     28  C   UNL     1       0.384  -5.730  -3.651  0.00  0.00    +0.131 C 
BRANCH  28  29
ATOM     29  C   UNL     1      -0.542  -5.668  -4.838  0.00  0.00    -0.035 A 
ATOM     30  C   UNL     1      -1.455  -6.684  -5.055  0.00  0.00    +0.008 A 
ATOM     31  C   UNL     1      -2.307  -6.632  -6.142  0.00  0.00    +0.050 A 
ATOM     32  C   UNL     1      -2.248  -5.560  -7.018  0.00  0.00    +0.166 A 
ATOM     33  C   UNL     1      -1.329  -4.537  -6.801  0.00  0.00    +0.166 A 
ATOM     34  C   UNL     1      -0.481  -4.593  -5.706  0.00  0.00    +0.053 A 
ATOM     35  O   UNL     1      -1.466  -3.609  -7.792  0.00  0.00    -0.453 OA
ATOM     36  C   UNL     1      -2.195  -4.272  -8.841  0.00  0.00    +0.466 C 
ATOM     37  O   UNL     1      -2.962  -5.273  -8.146  0.00  0.00    -0.453 OA
ENDBRANCH  28  29
ENDBRANCH   2  28
TORSDOF 8
