REMARK  Name = ZINC36964812
REMARK  6 active torsions:
REMARK  status: ('A' for Active; 'I' for Inactive)
REMARK    1  A    between atoms: C_1  and  C_2
REMARK    2  A    between atoms: C_2  and  C_3
REMARK    3  A    between atoms: C_3  and  C_4
REMARK    4  A    between atoms: N_8  and  C_12
REMARK    5  A    between atoms: C_12  and  C_13
REMARK    6  A    between atoms: C_15  and  N_20
REMARK                            x       y       z     vdW  Elec       q    Type
REMARK                         _______ _______ _______ _____ _____    ______ ____
ROOT
ATOM      1  C   UNL     1      -0.049  -2.327   1.239  0.00  0.00    +0.161 C 
ATOM      2  C   UNL     1       1.017  -2.743   2.234  0.00  0.00    +0.244 C 
ATOM      3  O   UNL     1       2.207  -2.521   2.167  0.00  0.00    -0.273 OA
ATOM      4  N   UNL     1       0.367  -3.409   3.208  0.00  0.00    -0.220 N 
ATOM      5  C   UNL     1      -0.948  -3.471   2.970  0.00  0.00    +0.309 C 
ATOM      6  O   UNL     1      -1.743  -4.022   3.707  0.00  0.00    -0.252 OA
ATOM      7  N   UNL     1      -1.294  -2.857   1.820  0.00  0.00    -0.288 N 
ATOM      8  H   UNL     1      -2.187  -2.779   1.448  0.00  0.00    +0.151 HD
ENDROOT
BRANCH   1   9
ATOM      9  C   UNL     1      -0.114  -0.803   1.126  0.00  0.00    +0.031 C 
BRANCH   9  11
ATOM     10  C   UNL     1      -1.212   1.111  -0.047  0.00  0.00    +0.004 C 
ATOM     11  C   UNL     1      -1.146  -0.414   0.066  0.00  0.00    -0.001 C 
ENDBRANCH   9  11
ENDBRANCH   1   9
BRANCH   4  12
ATOM     12  C   UNL     1       1.020  -3.994   4.382  0.00  0.00    +0.154 C 
BRANCH  12  13
ATOM     13  C   UNL     1       0.915  -3.038   5.543  0.00  0.00    -0.010 A 
ATOM     14  C   UNL     1      -0.097  -3.187   6.471  0.00  0.00    +0.029 A 
ATOM     15  C   UNL     1      -0.192  -2.306   7.540  0.00  0.00    +0.025 A 
ATOM     16  C   UNL     1       0.731  -1.277   7.673  0.00  0.00    +0.024 A 
ATOM     17  C   UNL     1       1.741  -1.133   6.742  0.00  0.00    +0.022 A 
ATOM     18  C   UNL     1       1.837  -2.015   5.681  0.00  0.00    +0.046 A 
ATOM     19 CL   UNL     1       3.111  -1.834   4.516  0.00  0.00    -0.083 Cl
BRANCH  15  20
ATOM     20  N   UNL     1      -1.216  -2.454   8.480  0.00  0.00    -0.358 N 
ATOM     21  H   UNL     1      -1.860  -3.173   8.386  0.00  0.00    +0.142 HD
ATOM     22  H   UNL     1      -1.281  -1.839   9.227  0.00  0.00    +0.142 HD
ENDBRANCH  15  20
ENDBRANCH  12  13
ENDBRANCH   4  12
TORSDOF 5
