REMARK  Name = ZINC07214874
REMARK  4 active torsions:
REMARK  status: ('A' for Active; 'I' for Inactive)
REMARK    1  A    between atoms: C_1  and  C_2
REMARK    2  A    between atoms: N_11  and  C_12
REMARK    3  A    between atoms: C_12  and  C_14
REMARK    4  A    between atoms: C_12  and  C_15
REMARK                            x       y       z     vdW  Elec       q    Type
REMARK                         _______ _______ _______ _____ _____    ______ ____
ROOT
ATOM      1  C   UNL     1      -2.144   3.738   1.499  0.00  0.00    +0.240 C 
ATOM      2  O   UNL     1      -2.140   4.911   1.807  0.00  0.00    -0.273 OA
ATOM      3  N   UNL     1      -1.098   3.213   0.831  0.00  0.00    -0.259 N 
ATOM      4  C   UNL     1      -1.078   1.793   0.440  0.00  0.00    +0.209 C 
ATOM      5  C   UNL     1       0.299   1.235   0.698  0.00  0.00    +0.235 C 
ATOM      6  O   UNL     1       0.428   0.059   0.965  0.00  0.00    -0.274 OA
ATOM      7  N   UNL     1       1.387   2.025   0.632  0.00  0.00    -0.283 N 
ATOM      8  C   UNL     1       1.261   3.395   0.375  0.00  0.00    +0.055 A 
ATOM      9  C   UNL     1       0.008   4.003   0.481  0.00  0.00    +0.058 A 
ATOM     10  C   UNL     1      -0.130   5.357   0.237  0.00  0.00    +0.025 A 
ATOM     11  C   UNL     1       0.978   6.108  -0.117  0.00  0.00    +0.002 A 
ATOM     12  C   UNL     1       2.218   5.507  -0.227  0.00  0.00    +0.002 A 
ATOM     13  C   UNL     1       2.363   4.153   0.017  0.00  0.00    +0.025 A 
ATOM     14  H   UNL     1       2.267   1.641   0.763  0.00  0.00    +0.155 HD
ENDROOT
BRANCH   1  15
ATOM     15  C   UNL     1      -3.319   2.867   1.862  0.00  0.00    +0.157 C 
ATOM     16  C   UNL     1      -4.202   2.661   0.629  0.00  0.00    +0.038 C 
BRANCH  15  27
ATOM     17  C   UNL     1      -0.766   4.479   7.410  0.00  0.00    +0.044 C 
ATOM     18  C   UNL     1      -1.656   4.238   6.219  0.00  0.00    -0.050 A 
ATOM     19  C   UNL     1      -1.468   3.119   5.428  0.00  0.00    +0.005 A 
ATOM     20  C   UNL     1      -2.286   2.899   4.341  0.00  0.00    +0.023 A 
ATOM     21  C   UNL     1      -3.305   3.801   4.030  0.00  0.00    +0.034 A 
ATOM     22  C   UNL     1      -3.486   4.922   4.821  0.00  0.00    -0.026 A 
ATOM     23  C   UNL     1      -2.661   5.135   5.914  0.00  0.00    +0.008 A 
ATOM     24  C   UNL     1      -4.562   5.938   4.533  0.00  0.00    +0.038 C 
ATOM     25  C   UNL     1      -5.581   5.347   3.557  0.00  0.00    +0.024 C 
ATOM     26  C   UNL     1      -4.807   4.694   2.405  0.00  0.00    +0.106 C 
ATOM     27  N   UNL     1      -4.102   3.519   2.921  0.00  0.00    -0.318 N 
ENDBRANCH  15  27
ENDBRANCH   1  15
TORSDOF 2
