REMARK  Name = ZINC63384074
REMARK  6 active torsions:
REMARK  status: ('A' for Active; 'I' for Inactive)
REMARK    1  A    between atoms: C_1  and  C_2
REMARK    2  A    between atoms: C_2  and  N_3
REMARK    3  A    between atoms: C_16  and  C_18
REMARK    4  A    between atoms: N_24  and  C_27
REMARK    5  A    between atoms: C_29  and  C_34
REMARK    6  A    between atoms: C_31  and  C_33
REMARK                            x       y       z     vdW  Elec       q    Type
REMARK                         _______ _______ _______ _____ _____    ______ ____
ROOT
ATOM      1  C   UNL     1      -1.048  -3.000   1.173  0.00  0.00    +0.071 A 
ATOM      2  H   UNL     1      -0.767  -2.079   4.265  0.00  0.00    +0.173 HD
ATOM      3  C   UNL     1      -1.365  -2.373   2.341  0.00  0.00    +0.259 A 
ATOM      4  N   UNL     1      -0.546  -2.523   3.431  0.00  0.00    -0.274 N 
ATOM      5  C   UNL     1       0.563  -3.281   3.352  0.00  0.00    +0.337 A 
ATOM      6  O   UNL     1       1.277  -3.403   4.328  0.00  0.00    -0.246 OA
ATOM      7  N   UNL     1       0.893  -3.908   2.207  0.00  0.00    -0.229 N 
ATOM      8  C   UNL     1       0.113  -3.792   1.115  0.00  0.00    +0.266 A 
ATOM      9  O   UNL     1       0.414  -4.365   0.082  0.00  0.00    -0.267 OA
ATOM     10  O   UNL     1      -2.476  -1.611   2.425  0.00  0.00    -0.267 OA
ENDROOT
BRANCH   1  23
ATOM     11  N   UNL     1      -1.951  -1.444  -0.469  0.00  0.00    +0.386 N 
ATOM     12  C   UNL     1      -2.278  -0.537   0.633  0.00  0.00    -0.073 C 
ATOM     13  C   UNL     1      -3.725  -0.770   1.107  0.00  0.00    +0.015 C 
ATOM     14  C   UNL     1      -3.852  -2.255   1.346  0.00  0.00    -0.041 C 
ATOM     15  C   UNL     1      -4.323  -2.961   2.362  0.00  0.00    -0.001 A 
ATOM     16  C   UNL     1      -5.033  -2.564   3.589  0.00  0.00    +0.010 A 
ATOM     17  C   UNL     1      -5.352  -3.568   4.448  0.00  0.00    +0.001 A 
ATOM     18  C   UNL     1      -5.041  -4.911   4.213  0.00  0.00    +0.002 A 
ATOM     19  C   UNL     1      -4.400  -5.367   3.107  0.00  0.00    +0.026 A 
ATOM     20  C   UNL     1      -4.023  -4.407   2.125  0.00  0.00    +0.043 A 
ATOM     21  N   UNL     1      -3.435  -4.566   0.975  0.00  0.00    -0.379 N 
ATOM     22  C   UNL     1      -3.362  -3.266   0.313  0.00  0.00    +0.097 C 
ATOM     23  C   UNL     1      -1.932  -2.851  -0.039  0.00  0.00    -0.000 C 
ATOM     24  H   UNL     1      -3.103  -5.405   0.618  0.00  0.00    +0.160 HD
ATOM     25  H   UNL     1      -2.639  -1.334  -1.199  0.00  0.00    -0.081 HD
BRANCH  11  27
ATOM     26  C   UNL     1      -0.670   0.331  -1.567  0.00  0.00    -0.017 C 
ATOM     27  C   UNL     1      -0.628  -1.091  -1.002  0.00  0.00    -0.081 C 
ENDBRANCH  11  27
ENDBRANCH   1  23
BRANCH   7  28
ATOM     28  C   UNL     1       2.054  -4.691   2.153  0.00  0.00    +0.055 A 
ATOM     29  C   UNL     1       3.263  -4.118   1.782  0.00  0.00    +0.029 A 
ATOM     30  C   UNL     1       4.405  -4.892   1.730  0.00  0.00    -0.048 A 
ATOM     31  C   UNL     1       4.346  -6.237   2.045  0.00  0.00    +0.006 A 
ATOM     32  C   UNL     1       3.143  -6.811   2.414  0.00  0.00    -0.048 A 
ATOM     33  C   UNL     1       1.998  -6.040   2.475  0.00  0.00    +0.029 A 
ATOM     34  C   UNL     1       3.082  -8.277   2.757  0.00  0.00    +0.044 C 
ATOM     35  C   UNL     1       5.718  -4.271   1.327  0.00  0.00    +0.044 C 
ENDBRANCH   7  28
TORSDOF 3
