REMARK  Name = ZINC62613510
REMARK  6 active torsions:
REMARK  status: ('A' for Active; 'I' for Inactive)
REMARK    1  A    between atoms: C_3  and  O_29
REMARK    2  A    between atoms: C_5  and  S_7
REMARK    3  A    between atoms: S_7  and  N_10
REMARK    4  A    between atoms: C_13  and  C_16
REMARK    5  A    between atoms: C_16  and  C_18
REMARK    6  A    between atoms: O_29  and  C_30
REMARK                            x       y       z     vdW  Elec       q    Type
REMARK                         _______ _______ _______ _____ _____    ______ ____
ROOT
ATOM      1  N   UNL     1       1.248  -2.942   1.556  0.00  0.00    -0.177 NA
ATOM      2  C   UNL     1       2.521  -3.147   2.260  0.00  0.00    +0.110 C 
ATOM      3  C   UNL     1       2.505  -2.332   3.557  0.00  0.00    +0.028 C 
ATOM      4  C   UNL     1       1.267  -2.708   4.375  0.00  0.00    +0.063 C 
ATOM      5  C   UNL     1       0.005  -2.371   3.577  0.00  0.00    +0.028 C 
ATOM      6  C   UNL     1      -0.007  -3.181   2.282  0.00  0.00    +0.110 C 
ENDROOT
BRANCH   1   7
ATOM      7  S   UNL     1       1.227  -2.443  -0.023  0.00  0.00    +0.061 S 
ATOM      8  O   UNL     1      -0.019  -2.860  -0.564  0.00  0.00    -0.153 OA
ATOM      9  O   UNL     1       2.472  -2.833  -0.588  0.00  0.00    -0.153 OA
BRANCH   7  14
ATOM     10  C   UNL     1      -0.017   1.378   0.010  0.00  0.00    +0.005 A 
ATOM     11  C   UNL     1       1.170   2.086   0.002  0.00  0.00    +0.046 A 
ATOM     12  C   UNL     1       2.380   1.409  -0.013  0.00  0.00    +0.132 A 
ATOM     13  C   UNL     1       2.396   0.022  -0.021  0.00  0.00    +0.074 A 
ATOM     14  C   UNL     1       1.208  -0.681  -0.013  0.00  0.00    +0.109 A 
ATOM     15  C   UNL     1       0.002  -0.004   0.002  0.00  0.00    +0.029 A 
BRANCH  12  16
ATOM     16  O   UNL     1       3.548   2.104  -0.021  0.00  0.00    -0.406 OA
BRANCH  16  17
ATOM     17  C   UNL     1       3.456   3.530  -0.013  0.00  0.00    +0.575 C 
ATOM     18  F   UNL     1       2.778   3.946   1.138  0.00  0.00    -0.133 F 
ATOM     19  F   UNL     1       4.742   4.081  -0.023  0.00  0.00    -0.133 F 
ATOM     20  F   UNL     1       2.756   3.958  -1.146  0.00  0.00    -0.133 F 
ENDBRANCH  16  17
ENDBRANCH  12  16
ENDBRANCH   7  14
ENDBRANCH   1   7
BRANCH   4  21
ATOM     21  C   UNL     1       1.265  -1.933   5.668  0.00  0.00    +0.166 C 
ATOM     22  O   UNL     1       1.774  -0.833   5.716  0.00  0.00    -0.292 OA
BRANCH  21  23
ATOM     23  C   UNL     1       0.647  -2.510   6.869  0.00  0.00    +0.020 A 
ATOM     24  C   UNL     1       0.064  -3.782   6.816  0.00  0.00    +0.015 A 
ATOM     25  C   UNL     1      -0.515  -4.323   7.942  0.00  0.00    +0.048 A 
ATOM     26  C   UNL     1      -0.523  -3.609   9.133  0.00  0.00    +0.142 A 
ATOM     27  C   UNL     1       0.057  -2.339   9.193  0.00  0.00    +0.076 A 
ATOM     28  C   UNL     1       0.644  -1.791   8.071  0.00  0.00    +0.038 A 
ATOM     29  N   UNL     1       0.038  -1.634  10.406  0.00  0.00    -0.280 N 
ATOM     30  C   UNL     1      -0.243  -2.302  11.546  0.00  0.00    +0.255 C 
ATOM     31  O   UNL     1      -0.295  -1.708  12.602  0.00  0.00    -0.272 OA
ATOM     32  C   UNL     1      -0.493  -3.788  11.500  0.00  0.00    +0.325 C 
ATOM     33  O   UNL     1      -1.091  -4.136  10.248  0.00  0.00    -0.481 OA
ATOM     34  H   UNL     1       0.224  -0.682  10.426  0.00  0.00    +0.155 HD
ENDBRANCH  21  23
ENDBRANCH   4  21
TORSDOF 6
