REMARK  Name = ZINC22133002
REMARK  9 active torsions:
REMARK  status: ('A' for Active; 'I' for Inactive)
REMARK    1  A    between atoms: C_1  and  C_2
REMARK    2  A    between atoms: C_2  and  C_4
REMARK    3  A    between atoms: C_2  and  S_19
REMARK    4  A    between atoms: C_4  and  C_6
REMARK    5  A    between atoms: C_8  and  C_17
REMARK    6  A    between atoms: C_8  and  C_18
REMARK    7  A    between atoms: N_15  and  C_16
REMARK    8  A    between atoms: S_19  and  C_20
REMARK    9  A    between atoms: C_23  and  C_25
REMARK                            x       y       z     vdW  Elec       q    Type
REMARK                         _______ _______ _______ _____ _____    ______ ____
ROOT
ATOM      1  C   UNL     1      -3.177   6.421  -0.046  0.00  0.00    +0.171 C 
ATOM      2  O   UNL     1      -2.215   7.163  -0.075  0.00  0.00    -0.291 OA
ENDROOT
BRANCH   1   3
ATOM      3  C   UNL     1      -2.991   5.037   0.078  0.00  0.00    +0.067 C 
ATOM      4  C   UNL     1      -1.738   4.525   0.160  0.00  0.00    +0.024 C 
ATOM      5  C   UNL     1      -0.442   5.308   0.137  0.00  0.00    +0.030 C 
ATOM      6  C   UNL     1       0.631   4.250   0.258  0.00  0.00    -0.015 A 
ATOM      7  C   UNL     1       2.006   4.315   0.297  0.00  0.00    +0.006 A 
ATOM      8  C   UNL     1       2.750   3.155   0.416  0.00  0.00    +0.000 A 
ATOM      9  C   UNL     1       2.109   1.931   0.495  0.00  0.00    +0.002 A 
ATOM     10  C   UNL     1       0.732   1.862   0.451  0.00  0.00    +0.024 A 
ATOM     11  C   UNL     1      -0.025   3.027   0.337  0.00  0.00    +0.038 A 
ATOM     12  N   UNL     1      -1.405   3.212   0.278  0.00  0.00    -0.305 N 
ATOM     13  C   UNL     1      -2.381   2.121   0.335  0.00  0.00    +0.135 C 
ATOM     14  C   UNL     1      -0.378   6.273   1.323  0.00  0.00    +0.022 C 
ATOM     15  C   UNL     1      -0.298   6.068  -1.182  0.00  0.00    +0.022 C 
ENDBRANCH   1   3
BRANCH   1  17
ATOM     16  C   UNL     1      -5.038   6.943  -1.599  0.00  0.00    +0.028 C 
ATOM     17  C   UNL     1      -4.569   6.988  -0.143  0.00  0.00    +0.123 C 
BRANCH  17  18
ATOM     18  S   UNL     1      -4.564   8.703   0.436  0.00  0.00    -0.055 S 
BRANCH  18  19
ATOM     19  C   UNL     1      -6.288   9.057   0.361  0.00  0.00    +0.278 A 
ATOM     20  N   UNL     1      -7.233   8.234  -0.029  0.00  0.00    -0.101 NA
ATOM     21  N   UNL     1      -8.374   8.824   0.048  0.00  0.00    -0.105 NA
ATOM     22  C   UNL     1      -8.202  10.052   0.481  0.00  0.00    +0.265 A 
ATOM     23  O   UNL     1      -6.877  10.224   0.689  0.00  0.00    -0.410 OA
BRANCH  22  24
ATOM     24  C   UNL     1      -9.256  11.053   0.701  0.00  0.00    +0.104 A 
ATOM     25  C   UNL     1     -10.594  10.874   0.489  0.00  0.00    +0.032 A 
ATOM     26  C   UNL     1     -11.234  12.077   0.824  0.00  0.00    +0.020 A 
ATOM     27  C   UNL     1     -10.286  12.951   1.226  0.00  0.00    +0.083 A 
ATOM     28  N   UNL     1      -9.072  12.335   1.161  0.00  0.00    -0.357 N 
ATOM     29  H   UNL     1      -8.060  12.691   1.403  0.00  0.00    +0.165 HD
ENDBRANCH  22  24
ENDBRANCH  18  19
ENDBRANCH  17  18
ENDBRANCH   1  17
TORSDOF 5
