REMARK  Name = ZINC21161993
REMARK  5 active torsions:
REMARK  status: ('A' for Active; 'I' for Inactive)
REMARK    1  A    between atoms: C_1  and  C_2
REMARK    2  A    between atoms: C_8  and  N_10
REMARK    3  A    between atoms: C_11  and  C_13
REMARK    4  A    between atoms: N_27  and  C_28
REMARK    5  A    between atoms: C_28  and  C_29
REMARK                            x       y       z     vdW  Elec       q    Type
REMARK                         _______ _______ _______ _____ _____    ______ ____
ROOT
ATOM      1  C   UNL     1      -1.418   1.208   3.651  0.00  0.00    +0.078 C 
ATOM      2  C   UNL     1      -1.186   2.705   3.880  0.00  0.00    +0.032 C 
ATOM      3  C   UNL     1      -1.813   3.115   5.214  0.00  0.00    +0.108 C 
ATOM      4  N   UNL     1      -1.206   2.336   6.301  0.00  0.00    -0.302 N 
ATOM      5  C   UNL     1      -1.456   0.899   6.128  0.00  0.00    +0.108 C 
ATOM      6  C   UNL     1      -0.819   0.423   4.821  0.00  0.00    +0.032 C 
ATOM      7  C   UNL     1      -1.654   2.771   7.531  0.00  0.00    +0.177 A 
ATOM      8  N   UNL     1      -2.525   2.142   8.280  0.00  0.00    -0.327 N 
ATOM      9  C   UNL     1      -2.737   2.846   9.423  0.00  0.00    +0.065 A 
ATOM     10  C   UNL     1      -3.546   2.638  10.543  0.00  0.00    +0.028 A 
ATOM     11  C   UNL     1      -3.550   3.560  11.565  0.00  0.00    +0.002 A 
ATOM     12  C   UNL     1      -2.756   4.695  11.491  0.00  0.00    +0.002 A 
ATOM     13  C   UNL     1      -1.952   4.916  10.392  0.00  0.00    +0.028 A 
ATOM     14  C   UNL     1      -1.936   3.997   9.353  0.00  0.00    +0.068 A 
ATOM     15  N   UNL     1      -1.260   3.924   8.146  0.00  0.00    -0.309 N 
ATOM     16  H   UNL     1      -2.959   1.190   7.939  0.00  0.00    +0.169 HD
ENDROOT
BRANCH   1  18
ATOM     17  N   UNL     1      -1.121   1.349   1.200  0.00  0.00    -0.312 N 
ATOM     18  C   UNL     1      -0.751   0.786   2.367  0.00  0.00    +0.216 C 
ATOM     19  O   UNL     1       0.117  -0.060   2.385  0.00  0.00    -0.276 OA
ATOM     20  H   UNL     1      -1.908   2.116   1.184  0.00  0.00    +0.149 HD
BRANCH  17  27
ATOM     21  C   UNL     1      -2.706   0.404  -1.032  0.00  0.00    +0.009 C 
ATOM     22  C   UNL     1      -1.416   1.203  -1.224  0.00  0.00    +0.006 C 
ATOM     23  C   UNL     1      -1.745   2.696  -1.287  0.00  0.00    +0.005 C 
ATOM     24  C   UNL     1      -0.455   3.495  -1.479  0.00  0.00    +0.000 C 
ATOM     25  C   UNL     1       0.489   3.230  -0.304  0.00  0.00    +0.002 C 
ATOM     26  C   UNL     1       0.818   1.737  -0.240  0.00  0.00    +0.022 C 
ATOM     27  C   UNL     1      -0.472   0.938  -0.049  0.00  0.00    +0.076 C 
ENDBRANCH  17  27
ENDBRANCH   1  18
BRANCH  15  28
ATOM     28  C   UNL     1      -0.302   4.903   7.626  0.00  0.00    +0.160 C 
BRANCH  28  29
ATOM     29  C   UNL     1       1.094   4.498   8.023  0.00  0.00    -0.027 A 
ATOM     30  C   UNL     1       1.595   4.867   9.258  0.00  0.00    +0.008 A 
ATOM     31  C   UNL     1       2.874   4.493   9.625  0.00  0.00    +0.038 A 
ATOM     32  C   UNL     1       3.657   3.757   8.752  0.00  0.00    +0.123 A 
ATOM     33  C   UNL     1       3.156   3.392   7.514  0.00  0.00    +0.038 A 
ATOM     34  C   UNL     1       1.875   3.763   7.151  0.00  0.00    +0.008 A 
ATOM     35  F   UNL     1       4.909   3.394   9.108  0.00  0.00    -0.205 F 
ENDBRANCH  28  29
ENDBRANCH  15  28
TORSDOF 4
