REMARK  Name = ZINC63919947
REMARK  9 active torsions:
REMARK  status: ('A' for Active; 'I' for Inactive)
REMARK    1  A    between atoms: C_7  and  C_10
REMARK    2  A    between atoms: C_10  and  C_11
REMARK    3  A    between atoms: C_11  and  C_12
REMARK    4  A    between atoms: C_12  and  O_14
REMARK    5  A    between atoms: O_14  and  C_15
REMARK    6  A    between atoms: C_15  and  C_16
REMARK    7  A    between atoms: N_18  and  C_19
REMARK    8  A    between atoms: C_22  and  S_25
REMARK    9  A    between atoms: S_25  and  N_28
REMARK                            x       y       z     vdW  Elec       q    Type
REMARK                         _______ _______ _______ _____ _____    ______ ____
ROOT
ATOM      1  C   UNL     1      -2.010  -7.038  -3.930  0.00  0.00    +0.255 C 
ATOM      2  O   UNL     1      -1.499  -6.502  -4.891  0.00  0.00    -0.272 OA
ATOM      3  N   UNL     1      -2.833  -8.091  -4.105  0.00  0.00    -0.283 N 
ATOM      4  H   UNL     1      -3.189  -8.562  -3.335  0.00  0.00    +0.155 HD
ENDROOT
BRANCH   3   5
ATOM      5  C   UNL     1      -3.174  -8.505  -5.397  0.00  0.00    +0.034 A 
ATOM      6  C   UNL     1      -4.445  -9.001  -5.656  0.00  0.00    +0.025 A 
ATOM      7  C   UNL     1      -4.779  -9.409  -6.933  0.00  0.00    +0.030 A 
ATOM      8  C   UNL     1      -3.849  -9.325  -7.952  0.00  0.00    +0.106 A 
ATOM      9  C   UNL     1      -2.582  -8.832  -7.698  0.00  0.00    +0.030 A 
ATOM     10  C   UNL     1      -2.244  -8.417  -6.425  0.00  0.00    +0.025 A 
BRANCH   8  11
ATOM     11  S   UNL     1      -4.279  -9.847  -9.579  0.00  0.00    +0.061 S 
ATOM     12  O   UNL     1      -3.062 -10.177 -10.235  0.00  0.00    -0.153 OA
ATOM     13  O   UNL     1      -5.344 -10.777  -9.440  0.00  0.00    -0.153 OA
BRANCH  11  14
ATOM     14  N   UNL     1      -4.899  -8.530 -10.368  0.00  0.00    -0.177 NA
ATOM     15  C   UNL     1      -6.315  -8.133 -10.390  0.00  0.00    +0.109 C 
ATOM     16  C   UNL     1      -6.422  -6.867 -11.266  0.00  0.00    +0.018 C 
ATOM     17  C   UNL     1      -5.150  -6.948 -12.150  0.00  0.00    +0.018 C 
ATOM     18  C   UNL     1      -4.124  -7.558 -11.160  0.00  0.00    +0.109 C 
ENDBRANCH  11  14
ENDBRANCH   8  11
ENDBRANCH   3   5
BRANCH   1  19
ATOM     19  C   UNL     1      -1.726  -6.526  -2.542  0.00  0.00    +0.328 C 
BRANCH  19  20
ATOM     20  O   UNL     1      -0.833  -5.413  -2.618  0.00  0.00    -0.455 OA
BRANCH  20  21
ATOM     21  C   UNL     1      -0.477  -4.837  -1.459  0.00  0.00    +0.308 C 
ATOM     22  O   UNL     1      -0.909  -5.264  -0.414  0.00  0.00    -0.251 OA
BRANCH  21  23
ATOM     23  C   UNL     1       0.461  -3.658  -1.461  0.00  0.00    +0.125 C 
BRANCH  23  24
ATOM     24  C   UNL     1       0.702  -3.196  -0.022  0.00  0.00    +0.044 C 
BRANCH  24  31
ATOM     25  C   UNL     1      -0.014   1.337   0.035  0.00  0.00    +0.001 A 
ATOM     26  C   UNL     1       1.166   2.092   0.025  0.00  0.00    +0.002 A 
ATOM     27  C   UNL     1       2.392   1.529   0.001  0.00  0.00    +0.026 A 
ATOM     28  C   UNL     1       2.533   0.114  -0.016  0.00  0.00    +0.043 A 
ATOM     29  N   UNL     1       3.593  -0.658  -0.040  0.00  0.00    -0.380 N 
ATOM     30  C   UNL     1       3.152  -2.057  -0.048  0.00  0.00    +0.144 C 
ATOM     31  C   UNL     1       1.641  -2.016  -0.024  0.00  0.00    -0.041 C 
ATOM     32  C   UNL     1       1.301  -0.707  -0.005  0.00  0.00    -0.001 A 
ATOM     33  C   UNL     1       0.007  -0.016   0.022  0.00  0.00    +0.010 A 
ATOM     34  H   UNL     1       4.514  -0.354  -0.052  0.00  0.00    +0.160 HD
ENDBRANCH  24  31
ENDBRANCH  23  24
ENDBRANCH  21  23
ENDBRANCH  20  21
ENDBRANCH  19  20
ENDBRANCH   1  19
TORSDOF 9
