REMARK  Name = ZINC36490806
REMARK  10 active torsions:
REMARK  status: ('A' for Active; 'I' for Inactive)
REMARK    1  A    between atoms: C_1  and  C_2
REMARK    2  A    between atoms: C_2  and  C_3
REMARK    3  A    between atoms: C_2  and  C_4
REMARK    4  A    between atoms: C_2  and  N_5
REMARK    5  A    between atoms: C_6  and  C_8
REMARK    6  A    between atoms: C_8  and  C_10
REMARK    7  A    between atoms: C_8  and  N_20
REMARK    8  A    between atoms: C_12  and  N_17
REMARK    9  A    between atoms: N_20  and  C_21
REMARK   10  A    between atoms: C_27  and  C_29
REMARK                            x       y       z     vdW  Elec       q    Type
REMARK                         _______ _______ _______ _____ _____    ______ ____
ROOT
ATOM      1  C   UNL     1       2.618  -0.757  -2.380  0.00  0.00    +0.194 C 
ENDROOT
BRANCH   1   2
ATOM      2  C   UNL     1       1.751  -0.314  -3.530  0.00  0.00    +0.002 A 
ATOM      3  C   UNL     1       0.549   0.324  -3.284  0.00  0.00    +0.040 A 
ATOM      4  C   UNL     1      -0.246   0.730  -4.339  0.00  0.00    +0.127 A 
ATOM      5  C   UNL     1       0.159   0.499  -5.640  0.00  0.00    +0.034 A 
ATOM      6  C   UNL     1       1.360  -0.138  -5.888  0.00  0.00    +0.022 A 
ATOM      7  C   UNL     1       2.160  -0.539  -4.832  0.00  0.00    +0.047 A 
ATOM      8 CL   UNL     1       3.673  -1.333  -5.142  0.00  0.00    -0.083 Cl
BRANCH   4   9
ATOM      9  N   UNL     1      -1.533   1.412  -4.075  0.00  0.00    +0.056 N 
ATOM     10  O   UNL     1      -1.888   1.614  -2.937  0.00  0.00    -0.126 OA
ATOM     11  O   UNL     1      -2.229   1.768  -4.997  0.00  0.00    -0.126 OA
ENDBRANCH   4   9
ENDBRANCH   1   2
BRANCH   1  13
ATOM     12  N   UNL     1       0.837  -0.873  -0.668  0.00  0.00    -0.309 N 
ATOM     13  C   UNL     1       1.993  -0.318  -1.081  0.00  0.00    +0.239 C 
ATOM     14  O   UNL     1       2.531   0.536  -0.408  0.00  0.00    -0.273 OA
ATOM     15  H   UNL     1       0.368  -1.501  -1.240  0.00  0.00    +0.149 HD
BRANCH  12  17
ATOM     16  C   UNL     1       0.018   0.975   0.708  0.00  0.00    +0.031 C 
ATOM     17  C   UNL     1       0.288  -0.529   0.646  0.00  0.00    +0.026 C 
ATOM     18  C   UNL     1       1.292  -0.913   1.735  0.00  0.00    +0.031 C 
ATOM     19  C   UNL     1      -1.020  -1.292   0.867  0.00  0.00    +0.031 C 
ENDBRANCH  12  17
ENDBRANCH   1  13
BRANCH   1  20
ATOM     20  N   UNL     1       3.948  -0.155  -2.511  0.00  0.00    -0.281 N 
ATOM     21  C   UNL     1       5.041  -0.942  -2.567  0.00  0.00    +0.237 C 
ATOM     22  O   UNL     1       4.921  -2.149  -2.549  0.00  0.00    -0.274 OA
BRANCH  21  23
ATOM     23  C   UNL     1       6.412  -0.322  -2.654  0.00  0.00    +0.159 C 
ATOM     24  C   UNL     1       6.667   0.214  -4.080  0.00  0.00    +0.041 C 
ATOM     25  C   UNL     1       7.384  -0.984  -4.744  0.00  0.00    +0.098 C 
ATOM     26  C   UNL     1       8.004  -1.734  -3.584  0.00  0.00    +0.214 C 
ATOM     27  O   UNL     1       8.878  -2.568  -3.685  0.00  0.00    -0.276 OA
ATOM     28  N   UNL     1       7.444  -1.339  -2.425  0.00  0.00    -0.304 N 
ATOM     29  H   UNL     1       7.691  -1.682  -1.552  0.00  0.00    +0.149 HD
ENDBRANCH  21  23
BRANCH  20  30
ATOM     30  C   UNL     1       4.089   1.301  -2.580  0.00  0.00    +0.077 C 
ATOM     31  C   UNL     1       4.654   1.822  -1.257  0.00  0.00    +0.022 C 
ATOM     32  C   UNL     1       4.801   3.343  -1.329  0.00  0.00    +0.002 C 
ATOM     33  C   UNL     1       3.432   3.977  -1.583  0.00  0.00    +0.000 C 
ATOM     34  C   UNL     1       2.867   3.456  -2.906  0.00  0.00    +0.002 C 
ATOM     35  C   UNL     1       2.720   1.935  -2.834  0.00  0.00    +0.022 C 
ENDBRANCH  20  30
ENDBRANCH   1  20
TORSDOF 7
