REMARK  Name = ZINC13218392
REMARK  9 active torsions:
REMARK  status: ('A' for Active; 'I' for Inactive)
REMARK    1  A    between atoms: C_1  and  C_2
REMARK    2  A    between atoms: C_2  and  C_3
REMARK    3  A    between atoms: C_3  and  N_4
REMARK    4  A    between atoms: C_13  and  S_14
REMARK    5  A    between atoms: S_14  and  C_15
REMARK    6  A    between atoms: C_15  and  C_16
REMARK    7  A    between atoms: C_20  and  C_27
REMARK    8  A    between atoms: N_24  and  C_25
REMARK    9  A    between atoms: C_25  and  C_26
REMARK                            x       y       z     vdW  Elec       q    Type
REMARK                         _______ _______ _______ _____ _____    ______ ____
ROOT
ATOM      1  N   UNL     1      -1.183   1.883   0.018  0.00  0.00    -0.287 N 
ATOM      2  C   UNL     1      -0.015   1.215   0.009  0.00  0.00    +0.263 A 
ATOM      3  O   UNL     1       0.002  -0.004   0.002  0.00  0.00    -0.267 OA
ATOM      4  C   UNL     1       1.208   1.958   0.001  0.00  0.00    +0.076 A 
ATOM      5  C   UNL     1       2.584   1.436  -0.013  0.00  0.00    -0.023 A 
ATOM      6  C   UNL     1       3.576   2.341  -0.021  0.00  0.00    -0.004 A 
ATOM      7  S   UNL     1       2.760   3.920  -0.004  0.00  0.00    -0.073 S 
ATOM      8  C   UNL     1       1.079   3.354   0.009  0.00  0.00    +0.117 A 
ATOM      9  N   UNL     1      -0.106   3.954   0.023  0.00  0.00    -0.216 NA
ATOM     10  C   UNL     1      -1.218   3.247   0.029  0.00  0.00    +0.173 A 
ATOM     11  C   UNL     1       4.935   1.694  -0.040  0.00  0.00    +0.043 C 
ATOM     12  C   UNL     1       4.665   0.238  -0.478  0.00  0.00    +0.010 C 
ATOM     13  C   UNL     1       3.208   0.038  -0.019  0.00  0.00    +0.037 C 
ENDROOT
BRANCH   1  14
ATOM     14  C   UNL     1      -2.441   1.131   0.020  0.00  0.00    +0.127 C 
BRANCH  14  16
ATOM     15  C   UNL     1      -4.185   0.077   1.465  0.00  0.00    +0.005 C 
ATOM     16  C   UNL     1      -2.872   0.862   1.463  0.00  0.00    +0.018 C 
ENDBRANCH  14  16
ENDBRANCH   1  14
BRANCH  10  17
ATOM     17  S   UNL     1      -2.773   4.075   0.048  0.00  0.00    -0.080 S 
BRANCH  17  18
ATOM     18  C   UNL     1      -2.213   5.796   0.052  0.00  0.00    +0.151 C 
BRANCH  18  19
ATOM     19  C   UNL     1      -3.408   6.714   0.067  0.00  0.00    +0.121 A 
ATOM     20  N   UNL     1      -4.005   7.178  -0.991  0.00  0.00    -0.231 NA
ATOM     21  C   UNL     1      -5.044   7.969  -0.617  0.00  0.00    +0.090 A 
ATOM     22  C   UNL     1      -5.997   8.700  -1.325  0.00  0.00    +0.045 A 
ATOM     23  C   UNL     1      -6.952   9.436  -0.629  0.00  0.00    +0.065 A 
ATOM     24  C   UNL     1      -6.955   9.440   0.772  0.00  0.00    +0.017 A 
ATOM     25  C   UNL     1      -6.024   8.725   1.468  0.00  0.00    +0.029 A 
ATOM     26  C   UNL     1      -5.062   7.985   0.789  0.00  0.00    +0.069 A 
ATOM     27  N   UNL     1      -4.016   7.183   1.191  0.00  0.00    -0.327 N 
BRANCH  23  28
ATOM     28  C   UNL     1      -7.965  10.213  -1.370  0.00  0.00    +0.387 C 
ATOM     29  O   UNL     1      -7.964  10.210  -2.585  0.00  0.00    -0.241 OA
ATOM     30  O   UNL     1      -8.890  10.925  -0.698  0.00  0.00    -0.241 OA
ENDBRANCH  23  28
BRANCH  27  31
ATOM     31  C   UNL     1      -3.630   6.888   2.573  0.00  0.00    +0.120 C 
ATOM     32  C   UNL     1      -2.617   7.930   3.053  0.00  0.00    +0.027 C 
ENDBRANCH  27  31
ENDBRANCH  18  19
ENDBRANCH  17  18
ENDBRANCH  10  17
TORSDOF 7
