REMARK  Name = ZINC00356474
REMARK  6 active torsions:
REMARK  status: ('A' for Active; 'I' for Inactive)
REMARK    1  A    between atoms: C_1  and  C_2
REMARK    2  A    between atoms: C_5  and  C_22
REMARK    3  A    between atoms: N_9  and  N_10
REMARK    4  A    between atoms: C_11  and  C_13
REMARK    5  A    between atoms: C_17  and  N_19
REMARK    6  A    between atoms: C_22  and  C_24
REMARK                            x       y       z     vdW  Elec       q    Type
REMARK                         _______ _______ _______ _____ _____    ______ ____
ROOT
ATOM      1  N   UNL     1      -0.029  -4.002  -2.220  0.00  0.00    -0.203 N 
ATOM      2  C   UNL     1       0.431  -4.625  -3.323  0.00  0.00    +0.263 C 
ATOM      3  O   UNL     1       0.683  -3.983  -4.323  0.00  0.00    -0.268 OA
ATOM      4  H   UNL     1      -0.230  -4.515  -1.421  0.00  0.00    +0.178 HD
ENDROOT
BRANCH   1  12
ATOM      5  C   UNL     1      -1.919  -4.225  -0.508  0.00  0.00    +0.045 C 
ATOM      6  C   UNL     1      -1.546  -2.794  -0.219  0.00  0.00    -0.032 C 
ATOM      7  C   UNL     1      -1.918  -2.237   0.924  0.00  0.00    -0.021 C 
ATOM      8  C   UNL     1      -1.597  -0.819   1.291  0.00  0.00    +0.035 C 
ATOM      9  C   UNL     1      -0.397  -0.302   0.499  0.00  0.00    +0.024 C 
ATOM     10  C   UNL     1      -0.645  -0.533  -0.998  0.00  0.00    +0.065 C 
ATOM     11  C   UNL     1      -0.772  -2.028  -1.208  0.00  0.00    +0.062 C 
ATOM     12  N   UNL     1      -0.215  -2.614  -2.226  0.00  0.00    -0.184 NA
BRANCH   9  13
ATOM     13  C   UNL     1      -0.218   1.172   0.760  0.00  0.00    -0.076 C 
ATOM     14  C   UNL     1       0.899   1.614   1.282  0.00  0.00    +0.007 C 
ATOM     15  C   UNL     1      -1.322   2.137   0.413  0.00  0.00    +0.039 C 
ENDBRANCH   9  13
ENDBRANCH   1  12
BRANCH   2  16
ATOM     16  C   UNL     1       0.627  -6.090  -3.316  0.00  0.00    +0.041 A 
ATOM     17  C   UNL     1       0.343  -6.830  -2.167  0.00  0.00    +0.013 A 
ATOM     18  C   UNL     1       0.525  -8.198  -2.169  0.00  0.00    +0.003 A 
ATOM     19  C   UNL     1       0.997  -8.835  -3.303  0.00  0.00    +0.033 A 
ATOM     20  C   UNL     1       1.284  -8.107  -4.444  0.00  0.00    +0.127 A 
ATOM     21  C   UNL     1       1.103  -6.739  -4.457  0.00  0.00    +0.045 A 
BRANCH  20  22
ATOM     22  N   UNL     1       1.789  -8.796  -5.652  0.00  0.00    +0.056 N 
ATOM     23  O   UNL     1       2.043  -8.156  -6.657  0.00  0.00    -0.126 OA
ATOM     24  O   UNL     1       1.949 -10.003  -5.642  0.00  0.00    -0.126 OA
ENDBRANCH  20  22
ENDBRANCH   2  16
TORSDOF 4
