REMARK  Name = ZINC30978042
REMARK  13 active torsions:
REMARK  status: ('A' for Active; 'I' for Inactive)
REMARK    1  A    between atoms: C_1  and  C_2
REMARK    2  A    between atoms: C_2  and  C_4
REMARK    3  A    between atoms: C_2  and  N_14
REMARK    4  A    between atoms: C_7  and  S_10
REMARK    5  A    between atoms: S_10  and  C_13
REMARK    6  A    between atoms: C_15  and  C_17
REMARK    7  A    between atoms: N_20  and  C_23
REMARK    8  A    between atoms: C_23  and  C_24
REMARK    9  A    between atoms: C_26  and  C_29
REMARK   10  A    between atoms: C_32  and  C_35
REMARK   11  A    between atoms: C_35  and  C_36
REMARK   12  A    between atoms: C_35  and  C_37
REMARK   13  A    between atoms: C_35  and  C_38
REMARK                            x       y       z     vdW  Elec       q    Type
REMARK                         _______ _______ _______ _____ _____    ______ ____
ROOT
ATOM      1  C   UNL     1      -3.779  -0.678   1.777  0.00  0.00    +0.071 C 
ATOM      2  C   UNL     1      -4.658   0.245   2.625  0.00  0.00    -0.006 C 
ATOM      3  C   UNL     1      -6.078  -0.322   2.682  0.00  0.00    -0.077 C 
ATOM      4  N   UNL     1      -6.045  -1.669   3.266  0.00  0.00    +0.386 N 
ATOM      5  C   UNL     1      -5.245  -2.585   2.444  0.00  0.00    -0.077 C 
ATOM      6  C   UNL     1      -3.800  -2.085   2.380  0.00  0.00    -0.006 C 
ATOM      7  H   UNL     1      -5.562  -1.595   4.252  0.00  0.00    -0.081 HD
ENDROOT
BRANCH   1   9
ATOM      8  N   UNL     1      -2.103   1.072   1.277  0.00  0.00    -0.309 N 
ATOM      9  C   UNL     1      -2.365  -0.156   1.766  0.00  0.00    +0.216 C 
ATOM     10  O   UNL     1      -1.462  -0.842   2.198  0.00  0.00    -0.276 OA
ATOM     11  H   UNL     1      -2.922   1.694   0.886  0.00  0.00    +0.149 HD
BRANCH   8  13
ATOM     12  C   UNL     1      -0.013   1.086   0.008  0.00  0.00    +0.033 C 
ATOM     13  C   UNL     1      -0.729   1.579   1.267  0.00  0.00    +0.100 C 
BRANCH  13  14
ATOM     14  C   UNL     1      -0.749   3.086   1.275  0.00  0.00    -0.027 A 
ATOM     15  C   UNL     1      -1.679   3.769   0.514  0.00  0.00    +0.007 A 
ATOM     16  C   UNL     1      -1.702   5.151   0.525  0.00  0.00    +0.027 A 
ATOM     17  C   UNL     1      -0.786   5.851   1.290  0.00  0.00    +0.088 A 
ATOM     18  C   UNL     1       0.147   5.168   2.047  0.00  0.00    +0.027 A 
ATOM     19  C   UNL     1       0.166   3.785   2.040  0.00  0.00    +0.007 A 
BRANCH  17  20
ATOM     20  S   UNL     1      -0.810   7.612   1.299  0.00  0.00    -0.006 S 
ATOM     21  O   UNL     1      -2.151   7.959   0.982  0.00  0.00    -0.170 OA
ATOM     22  O   UNL     1      -0.245   7.976   2.551  0.00  0.00    -0.170 OA
ATOM     23  C   UNL     1       0.298   8.101  -0.052  0.00  0.00    +0.200 C 
ENDBRANCH  17  20
ENDBRANCH  13  14
ENDBRANCH   8  13
ENDBRANCH   1   9
BRANCH   4  24
ATOM     24  C   UNL     1      -7.404  -2.190   3.465  0.00  0.00    +0.022 C 
BRANCH  24  25
ATOM     25  C   UNL     1      -8.114  -1.360   4.503  0.00  0.00    +0.211 A 
ATOM     26  N   UNL     1      -8.837  -0.290   4.283  0.00  0.00    -0.193 NA
ATOM     27  C   UNL     1      -9.270   0.112   5.499  0.00  0.00    +0.202 A 
ATOM     28  N   UNL     1      -8.789  -0.729   6.378  0.00  0.00    -0.056 NA
ATOM     29  O   UNL     1      -8.129  -1.581   5.821  0.00  0.00    -0.340 OA
BRANCH  27  30
ATOM     30  C   UNL     1     -10.129   1.288   5.783  0.00  0.00    +0.022 A 
ATOM     31  C   UNL     1     -10.564   2.105   4.741  0.00  0.00    +0.012 A 
ATOM     32  C   UNL     1     -11.368   3.194   5.011  0.00  0.00    +0.005 A 
ATOM     33  C   UNL     1     -11.732   3.483   6.314  0.00  0.00    -0.042 A 
ATOM     34  C   UNL     1     -11.298   2.679   7.353  0.00  0.00    +0.005 A 
ATOM     35  C   UNL     1     -10.499   1.584   7.094  0.00  0.00    +0.012 A 
BRANCH  33  36
ATOM     36  C   UNL     1     -12.604   4.678   6.603  0.00  0.00    -0.013 C 
ATOM     37  C   UNL     1     -11.859   5.639   7.531  0.00  0.00    +0.015 C 
ATOM     38  C   UNL     1     -12.941   5.392   5.292  0.00  0.00    +0.015 C 
ATOM     39  C   UNL     1     -13.896   4.215   7.278  0.00  0.00    +0.015 C 
ENDBRANCH  33  36
ENDBRANCH  27  30
ENDBRANCH  24  25
ENDBRANCH   4  24
TORSDOF 8
