REMARK  Name = ZINC10613191
REMARK  8 active torsions:
REMARK  status: ('A' for Active; 'I' for Inactive)
REMARK    1  A    between atoms: C_1  and  C_2
REMARK    2  A    between atoms: C_2  and  C_3
REMARK    3  A    between atoms: C_2  and  C_4
REMARK    4  A    between atoms: C_2  and  N_5
REMARK    5  A    between atoms: C_6  and  C_8
REMARK    6  A    between atoms: C_8  and  S_9
REMARK    7  A    between atoms: S_9  and  C_10
REMARK    8  A    between atoms: N_17  and  C_20
REMARK                            x       y       z     vdW  Elec       q    Type
REMARK                         _______ _______ _______ _____ _____    ______ ____
ROOT
ATOM      1  C   UNL     1       5.060  -0.637  -4.170  0.00  0.00    +0.194 A 
ATOM      2  N   UNL     1       4.293  -1.389  -4.952  0.00  0.00    -0.183 NA
ATOM      3  C   UNL     1       4.757  -1.899  -6.083  0.00  0.00    +0.285 A 
ATOM      4  O   UNL     1       3.968  -2.664  -6.873  0.00  0.00    -0.265 OA
ATOM      5  C   UNL     1       6.090  -1.628  -6.446  0.00  0.00    +0.105 A 
ATOM      6  C   UNL     1       6.912  -1.983  -7.538  0.00  0.00    +0.150 A 
ATOM      7  N   UNL     1       8.086  -1.446  -7.364  0.00  0.00    -0.172 NA
ATOM      8  N   UNL     1       8.101  -0.720  -6.166  0.00  0.00    -0.214 N 
ATOM      9  C   UNL     1       6.868  -0.825  -5.588  0.00  0.00    +0.171 A 
ATOM     10  N   UNL     1       6.316  -0.351  -4.474  0.00  0.00    -0.202 NA
ENDROOT
BRANCH   8  11
ATOM     11  C   UNL     1       9.192  -0.009  -5.651  0.00  0.00    +0.068 A 
ATOM     12  C   UNL     1       8.984   1.173  -4.952  0.00  0.00    +0.029 A 
ATOM     13  C   UNL     1      10.062   1.872  -4.444  0.00  0.00    +0.022 A 
ATOM     14  C   UNL     1      11.348   1.397  -4.633  0.00  0.00    +0.041 A 
ATOM     15  C   UNL     1      11.557   0.220  -5.330  0.00  0.00    +0.022 A 
ATOM     16  C   UNL     1      10.483  -0.487  -5.833  0.00  0.00    +0.029 A 
ATOM     17 CL   UNL     1      12.700   2.279  -3.994  0.00  0.00    -0.084 Cl
ENDBRANCH   8  11
BRANCH   1  18
ATOM     18  S   UNL     1       4.379   0.010  -2.680  0.00  0.00    -0.077 S 
BRANCH  18  19
ATOM     19  C   UNL     1       2.677  -0.618  -2.667  0.00  0.00    +0.173 C 
BRANCH  19  21
ATOM     20  N   UNL     1       0.688  -0.476  -1.203  0.00  0.00    -0.310 N 
ATOM     21  C   UNL     1       1.972  -0.132  -1.427  0.00  0.00    +0.224 C 
ATOM     22  O   UNL     1       2.559   0.569  -0.630  0.00  0.00    -0.275 OA
ATOM     23  H   UNL     1       0.218  -1.037  -1.840  0.00  0.00    +0.149 HD
BRANCH  20  25
ATOM     24  C   UNL     1      -0.019   1.526   0.010  0.00  0.00    +0.031 C 
ATOM     25  C   UNL     1       0.002  -0.004   0.002  0.00  0.00    +0.026 C 
ATOM     26  C   UNL     1       0.742  -0.511   1.242  0.00  0.00    +0.031 C 
ATOM     27  C   UNL     1      -1.433  -0.534   0.013  0.00  0.00    +0.031 C 
ENDBRANCH  20  25
ENDBRANCH  19  21
ENDBRANCH  18  19
ENDBRANCH   1  18
TORSDOF 5
