REMARK  Name = ZINC04601980
REMARK  6 active torsions:
REMARK  status: ('A' for Active; 'I' for Inactive)
REMARK    1  A    between atoms: C_7  and  C_16
REMARK    2  A    between atoms: C_16  and  O_18
REMARK    3  A    between atoms: O_18  and  C_19
REMARK    4  A    between atoms: C_19  and  C_20
REMARK    5  A    between atoms: N_22  and  C_23
REMARK    6  A    between atoms: C_23  and  C_28
REMARK                            x       y       z     vdW  Elec       q    Type
REMARK                         _______ _______ _______ _____ _____    ______ ____
ROOT
ATOM      1  C   UNL     1       4.368   5.674   1.147  0.00  0.00    +0.001 A 
ATOM      2  C   UNL     1       5.398   4.992   0.504  0.00  0.00    +0.002 A 
ATOM      3  C   UNL     1       5.181   3.785  -0.086  0.00  0.00    +0.028 A 
ATOM      4  C   UNL     1       3.896   3.211  -0.049  0.00  0.00    +0.072 A 
ATOM      5  C   UNL     1       2.849   3.914   0.598  0.00  0.00    +0.015 A 
ATOM      6  C   UNL     1       3.110   5.152   1.199  0.00  0.00    +0.011 A 
ATOM      7  C   UNL     1       1.557   3.337   0.615  0.00  0.00    +0.073 A 
ATOM      8  C   UNL     1       1.377   2.096   0.000  0.00  0.00    -0.012 A 
ATOM      9  C   UNL     1       2.460   1.461  -0.586  0.00  0.00    +0.046 A 
ATOM     10  N   UNL     1       3.653   2.026  -0.604  0.00  0.00    -0.251 NA
ATOM     11  C   UNL     1       2.344   0.098  -1.222  0.00  0.00    +0.056 C 
ATOM     12  C   UNL     1       1.172   0.046  -2.206  0.00  0.00    +0.006 C 
ATOM     13  C   UNL     1      -0.047  -0.475  -1.452  0.00  0.00    +0.001 C 
ATOM     14  C   UNL     1       0.002  -0.004   0.002  0.00  0.00    +0.005 C 
ATOM     15  C   UNL     1      -0.019   1.524   0.010  0.00  0.00    +0.038 C 
ENDROOT
BRANCH   7  16
ATOM     16  C   UNL     1       0.427   4.030   1.269  0.00  0.00    +0.341 C 
ATOM     17  O   UNL     1       0.191   3.832   2.444  0.00  0.00    -0.245 OA
BRANCH  16  18
ATOM     18  O   UNL     1      -0.341   4.881   0.561  0.00  0.00    -0.452 OA
BRANCH  18  19
ATOM     19  C   UNL     1      -1.433   5.526   1.268  0.00  0.00    +0.328 C 
BRANCH  19  20
ATOM     20  C   UNL     1      -2.175   6.435   0.323  0.00  0.00    +0.252 C 
ATOM     21  O   UNL     1      -1.819   6.530  -0.833  0.00  0.00    -0.272 OA
ATOM     22  N   UNL     1      -3.235   7.143   0.761  0.00  0.00    -0.295 N 
ATOM     23  H   UNL     1      -3.521   7.067   1.685  0.00  0.00    +0.150 HD
BRANCH  22  24
ATOM     24  C   UNL     1      -3.957   8.026  -0.158  0.00  0.00    +0.121 C 
ATOM     25  C   UNL     1      -3.017   9.137  -0.670  0.00  0.00    +0.041 C 
ATOM     26  C   UNL     1      -3.923  10.392  -0.754  0.00  0.00    +0.003 C 
ATOM     27  C   UNL     1      -4.827  10.245   0.495  0.00  0.00    +0.003 C 
ATOM     28  C   UNL     1      -5.108   8.730   0.583  0.00  0.00    +0.041 C 
BRANCH  24  29
ATOM     29  C   UNL     1      -4.487   7.251  -1.291  0.00  0.00    +0.088 C 
ATOM     30  N   UNL     1      -4.895   6.652  -2.166  0.00  0.00    -0.194 NA
ENDBRANCH  24  29
ENDBRANCH  22  24
ENDBRANCH  19  20
ENDBRANCH  18  19
ENDBRANCH  16  18
ENDBRANCH   7  16
TORSDOF 6
