REMARK  Name = ZINC08190265
REMARK  10 active torsions:
REMARK  status: ('A' for Active; 'I' for Inactive)
REMARK    1  A    between atoms: C_1  and  C_2
REMARK    2  A    between atoms: C_5  and  S_24
REMARK    3  A    between atoms: C_7  and  N_8
REMARK    4  A    between atoms: C_9  and  C_11
REMARK    5  A    between atoms: C_11  and  C_13
REMARK    6  A    between atoms: C_11  and  N_14
REMARK    7  A    between atoms: N_14  and  C_15
REMARK    8  A    between atoms: S_24  and  N_27
REMARK    9  A    between atoms: N_27  and  C_28
REMARK   10  A    between atoms: N_27  and  C_29
REMARK                            x       y       z     vdW  Elec       q    Type
REMARK                         _______ _______ _______ _____ _____    ______ ____
ROOT
ATOM      1  N   UNL     1      -0.821  -5.067   0.688  0.00  0.00    -0.284 N 
ATOM      2  C   UNL     1       0.204  -4.199   0.575  0.00  0.00    +0.237 C 
ATOM      3  O   UNL     1       1.311  -4.514   0.958  0.00  0.00    -0.273 OA
ATOM      4  H   UNL     1      -1.721  -4.788   0.456  0.00  0.00    +0.155 HD
ENDROOT
BRANCH   1  11
ATOM      5  C   UNL     1      -2.975  -6.478   1.899  0.00  0.00    +0.045 C 
ATOM      6  C   UNL     1      -1.610  -7.095   1.736  0.00  0.00    -0.029 A 
ATOM      7  C   UNL     1      -1.375  -8.382   2.179  0.00  0.00    +0.007 A 
ATOM      8  C   UNL     1      -0.123  -8.949   2.029  0.00  0.00    +0.029 A 
ATOM      9  C   UNL     1       0.898  -8.231   1.434  0.00  0.00    +0.107 A 
ATOM     10  C   UNL     1       0.669  -6.945   0.984  0.00  0.00    +0.052 A 
ATOM     11  C   UNL     1      -0.586  -6.371   1.138  0.00  0.00    +0.038 A 
BRANCH   9  12
ATOM     12  S   UNL     1       2.492  -8.958   1.245  0.00  0.00    +0.060 S 
ATOM     13  O   UNL     1       3.419  -7.886   1.153  0.00  0.00    -0.153 OA
ATOM     14  O   UNL     1       2.595  -9.972   2.235  0.00  0.00    -0.153 OA
BRANCH  12  15
ATOM     15  N   UNL     1       2.508  -9.726  -0.222  0.00  0.00    -0.183 NA
ATOM     16  C   UNL     1       2.935  -9.003  -1.423  0.00  0.00    +0.131 C 
ATOM     17  C   UNL     1       2.096 -11.128  -0.320  0.00  0.00    +0.131 C 
ENDBRANCH  12  15
ENDBRANCH   9  12
ENDBRANCH   1  11
BRANCH   2  18
ATOM     18  C   UNL     1      -0.026  -2.836  -0.027  0.00  0.00    +0.154 C 
ATOM     19  C   UNL     1      -0.538  -2.991  -1.460  0.00  0.00    +0.038 C 
BRANCH  18  20
ATOM     20  N   UNL     1       1.234  -2.088  -0.037  0.00  0.00    -0.333 N 
ATOM     21  H   UNL     1       2.079  -2.562  -0.041  0.00  0.00    +0.147 HD
BRANCH  20  22
ATOM     22  C   UNL     1       1.216  -0.689  -0.039  0.00  0.00    +0.031 A 
ATOM     23  C   UNL     1       0.005  -0.009  -0.033  0.00  0.00    +0.027 A 
ATOM     24  C   UNL     1      -0.013   1.372  -0.035  0.00  0.00    +0.051 A 
ATOM     25  C   UNL     1       1.175   2.084  -0.044  0.00  0.00    +0.166 A 
ATOM     26  C   UNL     1       2.392   1.405  -0.051  0.00  0.00    +0.168 A 
ATOM     27  C   UNL     1       2.409   0.020  -0.048  0.00  0.00    +0.072 A 
ATOM     28  O   UNL     1       3.403   2.322  -0.059  0.00  0.00    -0.453 OA
ATOM     29  C   UNL     1       2.796   3.561  -0.470  0.00  0.00    +0.466 C 
ATOM     30  O   UNL     1       1.425   3.427  -0.049  0.00  0.00    -0.453 OA
ENDBRANCH  20  22
ENDBRANCH  18  20
ENDBRANCH   2  18
TORSDOF 6
