REMARK  Name = ZINC00386456
REMARK  8 active torsions:
REMARK  status: ('A' for Active; 'I' for Inactive)
REMARK    1  A    between atoms: C_1  and  C_2
REMARK    2  A    between atoms: C_2  and  C_3
REMARK    3  A    between atoms: C_7  and  C_20
REMARK    4  A    between atoms: C_8  and  N_9
REMARK    5  A    between atoms: C_10  and  C_12
REMARK    6  A    between atoms: C_12  and  S_13
REMARK    7  A    between atoms: S_13  and  C_14
REMARK    8  A    between atoms: C_20  and  C_21
REMARK                            x       y       z     vdW  Elec       q    Type
REMARK                         _______ _______ _______ _____ _____    ______ ____
ROOT
ATOM      1  N   UNL     1       1.684   1.812  -2.561  0.00  0.00    -0.284 N 
ATOM      2  C   UNL     1       2.333   2.343  -3.616  0.00  0.00    +0.227 C 
ATOM      3  O   UNL     1       3.357   2.971  -3.444  0.00  0.00    -0.275 OA
ATOM      4  H   UNL     1       0.906   1.250  -2.704  0.00  0.00    +0.155 HD
ENDROOT
BRANCH   1  10
ATOM      5  C   UNL     1       1.721   3.223  -0.601  0.00  0.00    -0.026 A 
ATOM      6  C   UNL     1       2.169   3.479   0.680  0.00  0.00    +0.005 A 
ATOM      7  C   UNL     1       3.016   2.586   1.310  0.00  0.00    +0.001 A 
ATOM      8  C   UNL     1       3.425   1.438   0.655  0.00  0.00    +0.005 A 
ATOM      9  C   UNL     1       2.985   1.179  -0.628  0.00  0.00    -0.026 A 
ATOM     10  C   UNL     1       2.131   2.072  -1.261  0.00  0.00    +0.040 A 
BRANCH   5  12
ATOM     11  C   UNL     1      -0.655   3.742  -1.087  0.00  0.00    +0.009 C 
ATOM     12  C   UNL     1       0.794   4.194  -1.284  0.00  0.00    +0.033 C 
ENDBRANCH   5  12
BRANCH   9  13
ATOM     13  C   UNL     1       3.433  -0.071  -1.340  0.00  0.00    +0.033 C 
ATOM     14  C   UNL     1       4.636   0.251  -2.229  0.00  0.00    +0.009 C 
ENDBRANCH   9  13
ENDBRANCH   1  10
BRANCH   2  15
ATOM     15  C   UNL     1       1.789   2.156  -5.008  0.00  0.00    +0.172 C 
BRANCH  15  16
ATOM     16  S   UNL     1       2.879   2.982  -6.200  0.00  0.00    -0.088 S 
BRANCH  16  17
ATOM     17  C   UNL     1       2.117   2.676  -7.759  0.00  0.00    +0.160 A 
ATOM     18  N   UNL     1       1.012   2.008  -8.033  0.00  0.00    -0.133 NA
ATOM     19  N   UNL     1       0.590   1.889  -9.336  0.00  0.00    -0.125 NA
ATOM     20  C   UNL     1       1.290   2.443 -10.306  0.00  0.00    +0.180 A 
ATOM     21  S   UNL     1       2.628   3.193  -9.390  0.00  0.00    -0.025 S 
ATOM     22  N   UNL     1       1.050   2.447 -11.675  0.00  0.00    -0.336 N 
ATOM     23  H   UNL     1       0.270   1.994 -12.032  0.00  0.00    +0.144 HD
ATOM     24  H   UNL     1       1.662   2.903 -12.274  0.00  0.00    +0.144 HD
ENDBRANCH  16  17
ENDBRANCH  15  16
ENDBRANCH   2  15
TORSDOF 6
