REMARK  Name = ZINC40019500
REMARK  21 active torsions:
REMARK  status: ('A' for Active; 'I' for Inactive)
REMARK    1  A    between atoms: C_1  and  C_2
REMARK    2  A    between atoms: C_2  and  C_3
REMARK    3  A    between atoms: C_3  and  C_4
REMARK    4  A    between atoms: C_4  and  N_5
REMARK    5  A    between atoms: N_5  and  C_6
REMARK    6  A    between atoms: N_5  and  C_10
REMARK    7  A    between atoms: C_6  and  C_7
REMARK    8  A    between atoms: C_7  and  C_8
REMARK    9  A    between atoms: C_8  and  C_9
REMARK   10  A    between atoms: C_10  and  C_11
REMARK   11  A    between atoms: C_11  and  C_12
REMARK   12  A    between atoms: C_12  and  N_13
REMARK   13  A    between atoms: C_14  and  C_33
REMARK   14  A    between atoms: C_16  and  C_21
REMARK   15  A    between atoms: C_21  and  C_23
REMARK   16  A    between atoms: C_26  and  O_30
REMARK   17  A    between atoms: C_27  and  C_29
REMARK   18  A    between atoms: O_30  and  C_31
REMARK   19  A    between atoms: C_31  and  C_32
REMARK   20  A    between atoms: C_36  and  O_39
REMARK   21  A    between atoms: O_39  and  C_40
REMARK                            x       y       z     vdW  Elec       q    Type
REMARK                         _______ _______ _______ _____ _____    ______ ____
ROOT
ATOM      1  N   UNL     1      -1.797  -6.473   4.021  0.00  0.00    -0.284 N 
ATOM      2  C   UNL     1      -0.447  -6.726   4.537  0.00  0.00    +0.145 C 
ATOM      3  C   UNL     1      -0.618  -7.131   5.983  0.00  0.00    +0.076 C 
ATOM      4  C   UNL     1      -1.946  -7.104   6.241  0.00  0.00    +0.249 C 
ATOM      5  C   UNL     1      -2.670  -6.690   5.021  0.00  0.00    +0.288 C 
ATOM      6  O   UNL     1      -3.876  -6.566   4.934  0.00  0.00    -0.266 OA
ATOM      7  O   UNL     1      -2.520  -7.405   7.429  0.00  0.00    -0.282 OA
ENDROOT
BRANCH   2   8
ATOM      8  C   UNL     1       0.386  -5.473   4.444  0.00  0.00    -0.022 A 
ATOM      9  C   UNL     1      -0.106  -4.279   4.938  0.00  0.00    +0.009 A 
ATOM     10  C   UNL     1       0.656  -3.130   4.853  0.00  0.00    +0.046 A 
ATOM     11  C   UNL     1       1.915  -3.174   4.273  0.00  0.00    +0.120 A 
ATOM     12  C   UNL     1       2.407  -4.374   3.779  0.00  0.00    +0.046 A 
ATOM     13  C   UNL     1       1.643  -5.522   3.871  0.00  0.00    +0.009 A 
BRANCH  11  14
ATOM     14  O   UNL     1       2.666  -2.045   4.188  0.00  0.00    -0.495 OA
ATOM     15  C   UNL     1       3.953  -2.166   3.579  0.00  0.00    +0.277 C 
ENDBRANCH  11  14
ENDBRANCH   2   8
BRANCH   3  16
ATOM     16  C   UNL     1       0.449  -7.485   6.924  0.00  0.00    +0.195 C 
ATOM     17  O   UNL     1       0.675  -6.772   7.884  0.00  0.00    -0.287 OA
BRANCH  16  18
ATOM     18  C   UNL     1       1.249  -8.706   6.707  0.00  0.00    +0.023 A 
ATOM     19  C   UNL     1       0.966  -9.547   5.627  0.00  0.00    +0.015 A 
ATOM     20  C   UNL     1       1.715 -10.685   5.428  0.00  0.00    +0.046 A 
ATOM     21  C   UNL     1       2.752 -10.999   6.300  0.00  0.00    +0.123 A 
ATOM     22  C   UNL     1       3.036 -10.165   7.376  0.00  0.00    -0.008 A 
ATOM     23  C   UNL     1       2.296  -9.022   7.578  0.00  0.00    +0.018 A 
ATOM     24  C   UNL     1       4.160 -10.510   8.319  0.00  0.00    +0.047 C 
BRANCH  21  25
ATOM     25  O   UNL     1       3.487 -12.122   6.101  0.00  0.00    -0.492 OA
BRANCH  25  26
ATOM     26  C   UNL     1       3.140 -12.933   4.978  0.00  0.00    +0.225 C 
ATOM     27  C   UNL     1       4.072 -14.145   4.917  0.00  0.00    +0.048 C 
ENDBRANCH  25  26
ENDBRANCH  21  25
ENDBRANCH  16  18
ENDBRANCH   3  16
BRANCH   1  28
ATOM     28  C   UNL     1      -2.134  -6.053   2.658  0.00  0.00    +0.107 C 
BRANCH  28  29
ATOM     29  C   UNL     1      -2.139  -4.525   2.582  0.00  0.00    +0.000 C 
BRANCH  29  30
ATOM     30  C   UNL     1      -2.491  -4.086   1.159  0.00  0.00    -0.077 C 
BRANCH  30  31
ATOM     31  N   UNL     1      -2.496  -2.619   1.087  0.00  0.00    +0.380 N 
ATOM     32  H   UNL     1      -3.121  -2.249   1.788  0.00  0.00    -0.082 HD
BRANCH  31  33
ATOM     33  C   UNL     1      -2.950  -2.196  -0.245  0.00  0.00    -0.079 C 
BRANCH  33  34
ATOM     34  C   UNL     1      -4.414  -2.599  -0.437  0.00  0.00    -0.019 C 
BRANCH  34  35
ATOM     35  C   UNL     1      -4.925  -2.046  -1.768  0.00  0.00    -0.005 C 
ATOM     36  C   UNL     1      -6.388  -2.449  -1.960  0.00  0.00    +0.004 C 
ENDBRANCH  34  35
ENDBRANCH  33  34
ENDBRANCH  31  33
BRANCH  31  37
ATOM     37  C   UNL     1      -1.138  -2.112   1.325  0.00  0.00    -0.079 C 
BRANCH  37  38
ATOM     38  C   UNL     1      -1.168  -0.584   1.389  0.00  0.00    -0.019 C 
BRANCH  38  40
ATOM     39  C   UNL     1       0.191   1.466   1.830  0.00  0.00    +0.004 C 
ATOM     40  C   UNL     1       0.220  -0.062   1.766  0.00  0.00    -0.005 C 
ENDBRANCH  38  40
ENDBRANCH  37  38
ENDBRANCH  31  37
ENDBRANCH  30  31
ENDBRANCH  29  30
ENDBRANCH  28  29
ENDBRANCH   1  28
TORSDOF 16
