REMARK  Name = ZINC25682149
REMARK  8 active torsions:
REMARK  status: ('A' for Active; 'I' for Inactive)
REMARK    1  A    between atoms: C_2  and  C_3
REMARK    2  A    between atoms: C_3  and  N_4
REMARK    3  A    between atoms: C_5  and  C_11
REMARK    4  A    between atoms: C_11  and  C_12
REMARK    5  A    between atoms: C_18  and  C_20
REMARK    6  A    between atoms: C_23  and  S_26
REMARK    7  A    between atoms: S_26  and  C_27
REMARK    8  A    between atoms: C_27  and  C_28
REMARK                            x       y       z     vdW  Elec       q    Type
REMARK                         _______ _______ _______ _____ _____    ______ ____
ROOT
ATOM      1  C   UNL     1       8.335  -0.962  -0.084  0.00  0.00    +0.058 A 
ATOM      2  C   UNL     1       8.136  -2.303  -0.089  0.00  0.00    +0.072 A 
ATOM      3  S   UNL     1       6.351  -2.374  -0.072  0.00  0.00    -0.060 S 
ATOM      4  C   UNL     1       6.057  -0.663  -0.059  0.00  0.00    +0.165 A 
ATOM      5  N   UNL     1       7.280  -0.170  -0.074  0.00  0.00    -0.229 NA
ATOM      6  N   UNL     1       4.844   0.014  -0.044  0.00  0.00    -0.261 N 
ATOM      7  C   UNL     1       3.687  -0.677  -0.036  0.00  0.00    +0.250 C 
ATOM      8  O   UNL     1       3.704  -1.893  -0.043  0.00  0.00    -0.270 OA
ATOM      9  H   UNL     1       4.828   1.114  -0.038  0.00  0.00    +0.157 HD
ENDROOT
BRANCH   7  10
ATOM     10  C   UNL     1       2.399   0.041  -0.020  0.00  0.00    +0.037 A 
ATOM     11  C   UNL     1       1.198  -0.675  -0.013  0.00  0.00    +0.014 A 
ATOM     12  C   UNL     1       0.002  -0.004   0.002  0.00  0.00    +0.015 A 
ATOM     13  C   UNL     1      -0.017   1.389   0.010  0.00  0.00    +0.008 A 
ATOM     14  C   UNL     1       1.178   2.104   0.002  0.00  0.00    +0.015 A 
ATOM     15  C   UNL     1       2.377   1.439  -0.013  0.00  0.00    +0.014 A 
BRANCH  13  16
ATOM     16  S   UNL     1      -1.556   2.247   0.022  0.00  0.00    -0.119 S 
BRANCH  16  17
ATOM     17  C   UNL     1      -1.081   3.998   0.029  0.00  0.00    +0.130 C 
BRANCH  17  18
ATOM     18  C   UNL     1      -2.321   4.854   0.039  0.00  0.00    +0.059 A 
ATOM     19  C   UNL     1      -2.896   5.260  -1.121  0.00  0.00    +0.070 A 
ATOM     20  S   UNL     1      -4.276   6.205  -0.492  0.00  0.00    -0.084 S 
ATOM     21  C   UNL     1      -3.951   5.978   1.199  0.00  0.00    +0.156 A 
ATOM     22  N   UNL     1      -2.870   5.232   1.175  0.00  0.00    -0.252 NA
ENDBRANCH  17  18
ENDBRANCH  16  17
ENDBRANCH  13  16
ENDBRANCH   7  10
BRANCH   1  23
ATOM     23  C   UNL     1       9.729  -0.389  -0.094  0.00  0.00    +0.132 C 
BRANCH  23  25
ATOM     24  N   UNL     1       9.606   1.910  -1.221  0.00  0.00    -0.303 N 
ATOM     25  C   UNL     1       9.872   0.563  -1.254  0.00  0.00    +0.138 A 
ATOM     26  N   UNL     1      10.270   0.245  -2.444  0.00  0.00    -0.158 NA
ATOM     27  N   UNL     1      10.263   1.405  -3.231  0.00  0.00    -0.254 N 
ATOM     28  H   UNL     1      10.564   1.355  -4.287  0.00  0.00    +0.191 HD
ATOM     29  C   UNL     1       9.850   2.421  -2.444  0.00  0.00    +0.176 A 
ATOM     30  S   UNL     1       9.670   4.058  -2.913  0.00  0.00    -0.011 S 
BRANCH  24  31
ATOM     31  C   UNL     1       9.137   2.662  -0.055  0.00  0.00    +0.152 C 
BRANCH  31  33
ATOM     32  C   UNL     1      10.428   4.455   0.984  0.00  0.00    +0.005 C 
ATOM     33  C   UNL     1      10.322   3.176   0.722  0.00  0.00    -0.013 C 
ENDBRANCH  31  33
ENDBRANCH  24  31
ENDBRANCH  23  25
ENDBRANCH   1  23
TORSDOF 8
