REMARK  Name = ZINC18168513
REMARK  5 active torsions:
REMARK  status: ('A' for Active; 'I' for Inactive)
REMARK    1  A    between atoms: C_1  and  C_2
REMARK    2  A    between atoms: C_9  and  N_21
REMARK    3  A    between atoms: C_10  and  C_13
REMARK    4  A    between atoms: N_14  and  C_15
REMARK    5  A    between atoms: N_21  and  C_22
REMARK                            x       y       z     vdW  Elec       q    Type
REMARK                         _______ _______ _______ _____ _____    ______ ____
ROOT
ATOM      1  C   UNL     1       1.448  -4.844  -0.086  0.00  0.00    +0.047 C 
ATOM      2  C   UNL     1       0.121  -4.131  -0.046  0.00  0.00    -0.007 A 
ATOM      3  C   UNL     1      -1.041  -4.844  -0.035  0.00  0.00    +0.008 A 
ATOM      4  C   UNL     1      -2.268  -4.166   0.001  0.00  0.00    +0.019 A 
ATOM      5  C   UNL     1      -2.295  -2.815   0.026  0.00  0.00    +0.096 A 
ATOM      6  N   UNL     1      -1.139  -2.093   0.015  0.00  0.00    -0.267 N 
ATOM      7  C   UNL     1       0.072  -2.726  -0.021  0.00  0.00    +0.145 A 
ATOM      8  N   UNL     1       1.213  -2.037  -0.032  0.00  0.00    -0.213 NA
ATOM      9  C   UNL     1       1.226  -0.711  -0.009  0.00  0.00    +0.139 A 
ATOM     10  C   UNL     1       0.003  -0.004   0.028  0.00  0.00    +0.098 A 
ATOM     11  C   UNL     1      -1.202  -0.744   0.045  0.00  0.00    +0.269 A 
ATOM     12  O   UNL     1      -2.279  -0.175   0.082  0.00  0.00    -0.266 OA
ENDROOT
BRANCH  10  13
ATOM     13  C   UNL     1      -0.016   1.413   0.053  0.00  0.00    +0.128 C 
ATOM     14  N   UNL     1      -1.158   2.053   0.082  0.00  0.00    -0.255 NA
BRANCH  14  15
ATOM     15  C   UNL     1      -1.176   3.420   0.107  0.00  0.00    +0.064 A 
ATOM     16  C   UNL     1      -0.322   4.118   0.965  0.00  0.00    +0.028 A 
ATOM     17  C   UNL     1      -0.341   5.497   0.980  0.00  0.00    +0.002 A 
ATOM     18  C   UNL     1      -1.212   6.189   0.157  0.00  0.00    +0.000 A 
ATOM     19  C   UNL     1      -2.064   5.505  -0.691  0.00  0.00    +0.002 A 
ATOM     20  C   UNL     1      -2.052   4.126  -0.721  0.00  0.00    +0.028 A 
ENDBRANCH  14  15
ENDBRANCH  10  13
BRANCH   9  21
ATOM     21  N   UNL     1       2.423  -0.028  -0.022  0.00  0.00    -0.296 N 
ATOM     22  H   UNL     1       2.429   1.069  -0.103  0.00  0.00    +0.154 HD
BRANCH  21  23
ATOM     23  C   UNL     1       3.630  -0.730   0.068  0.00  0.00    +0.068 A 
ATOM     24  C   UNL     1       3.664  -1.982   0.668  0.00  0.00    +0.026 A 
ATOM     25  C   UNL     1       4.856  -2.674   0.752  0.00  0.00    +0.002 A 
ATOM     26  C   UNL     1       6.018  -2.118   0.248  0.00  0.00    +0.003 A 
ATOM     27  C   UNL     1       5.990  -0.870  -0.346  0.00  0.00    +0.040 A 
ATOM     28  C   UNL     1       4.800  -0.173  -0.437  0.00  0.00    +0.144 A 
ATOM     29  F   UNL     1       4.772   1.047  -1.018  0.00  0.00    -0.204 F 
ENDBRANCH  21  23
ENDBRANCH   9  21
TORSDOF 4
