REMARK  Name = ZINC04663690
REMARK  11 active torsions:
REMARK  status: ('A' for Active; 'I' for Inactive)
REMARK    1  A    between atoms: C_1  and  C_2
REMARK    2  A    between atoms: C_6  and  C_30
REMARK    3  A    between atoms: C_6  and  C_31
REMARK    4  A    between atoms: C_11  and  C_28
REMARK    5  A    between atoms: C_11  and  O_29
REMARK    6  A    between atoms: C_12  and  C_14
REMARK    7  A    between atoms: C_14  and  C_15
REMARK    8  A    between atoms: N_17  and  N_18
REMARK    9  A    between atoms: N_18  and  C_19
REMARK   10  A    between atoms: C_19  and  N_21
REMARK   11  A    between atoms: N_21  and  C_22
REMARK                            x       y       z     vdW  Elec       q    Type
REMARK                         _______ _______ _______ _____ _____    ______ ____
ROOT
ATOM      1  C   UNL     1      -2.541  -1.202  -0.326  0.00  0.00    +0.104 C 
ENDROOT
BRANCH   1  12
ATOM      2  C   UNL     1       0.077   0.072  -0.194  0.00  0.00    +0.012 C 
ATOM      3  C   UNL     1      -0.062  -1.455   0.002  0.00  0.00    -0.023 C 
ATOM      4  C   UNL     1       0.007  -2.118  -1.369  0.00  0.00    +0.007 C 
ATOM      5  C   UNL     1       1.382  -1.878  -2.004  0.00  0.00    +0.001 C 
ATOM      6  C   UNL     1       2.457  -2.506  -1.125  0.00  0.00    +0.007 C 
ATOM      7  C   UNL     1       2.437  -1.913   0.282  0.00  0.00    -0.032 C 
ATOM      8  C   UNL     1       1.050  -1.980   0.907  0.00  0.00    +0.001 C 
ATOM      9  C   UNL     1       0.736  -3.434   1.284  0.00  0.00    +0.007 C 
ATOM     10  C   UNL     1      -0.583  -3.518   2.050  0.00  0.00    +0.035 C 
ATOM     11  C   UNL     1      -1.740  -2.998   1.208  0.00  0.00    +0.067 C 
ATOM     12  C   UNL     1      -1.435  -1.625   0.647  0.00  0.00    +0.035 C 
ATOM     13  C   UNL     1      -2.107  -3.996   0.112  0.00  0.00    +0.041 C 
ATOM     14  C   UNL     1       3.436  -2.729   1.134  0.00  0.00    +0.011 C 
ATOM     15  C   UNL     1       2.999  -0.487   0.255  0.00  0.00    +0.011 C 
BRANCH  11  16
ATOM     16  O   UNL     1      -2.889  -2.877   2.078  0.00  0.00    -0.389 OA
ATOM     17  H   UNL     1      -3.162  -3.710   2.487  0.00  0.00    +0.210 HD
ENDBRANCH  11  16
ENDBRANCH   1  12
BRANCH   1  18
ATOM     18  C   UNL     1      -3.842  -1.065   0.422  0.00  0.00    +0.229 C 
ATOM     19  O   UNL     1      -3.837  -0.910   1.625  0.00  0.00    -0.274 OA
ATOM     20  N   UNL     1      -5.012  -1.115  -0.246  0.00  0.00    -0.235 N 
ATOM     21  H   UNL     1      -5.016  -1.240  -1.208  0.00  0.00    +0.173 HD
BRANCH  20  22
ATOM     22  N   UNL     1      -6.222  -0.989   0.448  0.00  0.00    -0.246 N 
ATOM     23  H   UNL     1      -6.218  -0.864   1.410  0.00  0.00    +0.172 HD
BRANCH  22  24
ATOM     24  C   UNL     1      -7.391  -1.039  -0.220  0.00  0.00    +0.151 C 
ATOM     25  S   UNL     1      -8.870  -0.884   0.629  0.00  0.00    -0.017 S 
BRANCH  24  26
ATOM     26  N   UNL     1      -7.396  -1.211  -1.556  0.00  0.00    -0.296 N 
ATOM     27  H   UNL     1      -6.565  -1.381  -2.027  0.00  0.00    +0.154 HD
BRANCH  26  28
ATOM     28  C   UNL     1      -8.601  -1.146  -2.265  0.00  0.00    +0.033 A 
ATOM     29  C   UNL     1      -9.571  -0.220  -1.905  0.00  0.00    +0.023 A 
ATOM     30  C   UNL     1     -10.759  -0.158  -2.607  0.00  0.00    +0.002 A 
ATOM     31  C   UNL     1     -10.983  -1.017  -3.667  0.00  0.00    +0.000 A 
ATOM     32  C   UNL     1     -10.019  -1.941  -4.028  0.00  0.00    +0.002 A 
ATOM     33  C   UNL     1      -8.827  -2.004  -3.334  0.00  0.00    +0.023 A 
ENDBRANCH  26  28
ENDBRANCH  24  26
ENDBRANCH  22  24
ENDBRANCH  20  22
ENDBRANCH   1  18
TORSDOF 7
