REMARK  Name = ZINC08912755
REMARK  9 active torsions:
REMARK  status: ('A' for Active; 'I' for Inactive)
REMARK    1  A    between atoms: C_1  and  C_2
REMARK    2  A    between atoms: C_2  and  C_3
REMARK    3  A    between atoms: C_3  and  C_5
REMARK    4  A    between atoms: C_3  and  N_67
REMARK    5  A    between atoms: C_6  and  C_7
REMARK    6  A    between atoms: C_6  and  N_67
REMARK    7  A    between atoms: C_7  and  N_8
REMARK    8  A    between atoms: C_9  and  C_11
REMARK    9  A    between atoms: C_26  and  N_67
REMARK                            x       y       z     vdW  Elec       q    Type
REMARK                         _______ _______ _______ _____ _____    ______ ____
ROOT
ATOM      1  N   UNL     1      -1.249   2.110   0.414  0.00  0.00    -0.313 N 
ATOM      2  C   UNL     1      -0.096   1.471   0.133  0.00  0.00    +0.244 C 
ATOM      3  O   UNL     1      -0.118   0.317  -0.250  0.00  0.00    -0.270 OA
ATOM      4  H   UNL     1      -1.231   3.031   0.719  0.00  0.00    +0.149 HD
ENDROOT
BRANCH   2   5
ATOM      5  C   UNL     1       1.192   2.174   0.283  0.00  0.00    +0.038 A 
ATOM      6  C   UNL     1       1.230   3.504   0.723  0.00  0.00    +0.015 A 
ATOM      7  C   UNL     1       2.403   4.168   0.868  0.00  0.00    +0.029 A 
ATOM      8  C   UNL     1       3.640   3.540   0.579  0.00  0.00    +0.080 A 
ATOM      9  C   UNL     1       3.575   2.196   0.137  0.00  0.00    +0.041 A 
ATOM     10  C   UNL     1       2.395   1.520  -0.006  0.00  0.00    +0.030 A 
ATOM     11  S   UNL     1       5.289   1.795  -0.108  0.00  0.00    -0.052 S 
ATOM     12  C   UNL     1       5.961   3.379   0.375  0.00  0.00    +0.162 A 
ATOM     13  N   UNL     1       4.877   4.064   0.673  0.00  0.00    -0.225 NA
ATOM     14  N   UNL     1       7.278   3.781   0.423  0.00  0.00    -0.305 N 
ATOM     15  C   UNL     1       8.070   2.889   1.282  0.00  0.00    +0.135 C 
ATOM     16  C   UNL     1       9.534   3.335   1.260  0.00  0.00    +0.179 C 
ATOM     17  O   UNL     1       9.617   4.701   1.676  0.00  0.00    -0.377 OA
ATOM     18  C   UNL     1       8.858   5.598   0.861  0.00  0.00    +0.179 C 
ATOM     19  C   UNL     1       7.387   5.175   0.879  0.00  0.00    +0.135 C 
ENDBRANCH   2   5
BRANCH   1  20
ATOM     20  C   UNL     1      -2.529   1.414   0.259  0.00  0.00    +0.086 C 
BRANCH  20  21
ATOM     21  C   UNL     1      -3.671   2.357   0.641  0.00  0.00    -0.059 C 
BRANCH  21  22
ATOM     22  N   UNL     1      -4.956   1.708   0.306  0.00  0.00    +0.384 N 
ATOM     23  H   UNL     1      -4.918   1.374  -0.664  0.00  0.00    -0.081 HD
BRANCH  22  24
ATOM     24  C   UNL     1      -6.062   2.681   0.435  0.00  0.00    -0.068 C 
ATOM     25  C   UNL     1      -7.347   2.041  -0.093  0.00  0.00    -0.015 C 
ATOM     26  C   UNL     1      -8.498   3.044   0.013  0.00  0.00    -0.002 C 
ATOM     27  C   UNL     1      -8.169   4.287  -0.816  0.00  0.00    -0.000 C 
ATOM     28  C   UNL     1      -6.883   4.927  -0.288  0.00  0.00    -0.002 C 
ATOM     29  C   UNL     1      -5.733   3.924  -0.395  0.00  0.00    -0.015 C 
ENDBRANCH  22  24
BRANCH  22  30
ATOM     30  C   UNL     1      -5.189   0.557   1.203  0.00  0.00    -0.072 C 
ATOM     31  C   UNL     1      -4.537   0.802   2.565  0.00  0.00    -0.013 C 
BRANCH  30  33
ATOM     32  C   UNL     1      -5.339  -1.030  -0.722  0.00  0.00    +0.002 C 
ATOM     33  C   UNL     1      -4.578  -0.691   0.562  0.00  0.00    -0.019 C 
ENDBRANCH  30  33
ENDBRANCH  22  30
ENDBRANCH  21  22
ENDBRANCH  20  21
ENDBRANCH   1  20
TORSDOF 7
