REMARK  Name = ZINC38684680
REMARK  15 active torsions:
REMARK  status: ('A' for Active; 'I' for Inactive)
REMARK    1  A    between atoms: C_1  and  C_2
REMARK    2  A    between atoms: C_2  and  C_3
REMARK    3  A    between atoms: C_2  and  C_4
REMARK    4  A    between atoms: C_4  and  C_5
REMARK    5  A    between atoms: C_5  and  O_6
REMARK    6  A    between atoms: O_6  and  C_7
REMARK    7  A    between atoms: C_11  and  C_13
REMARK    8  A    between atoms: C_18  and  O_27
REMARK    9  A    between atoms: C_22  and  N_26
REMARK   10  A    between atoms: C_23  and  C_24
REMARK   11  A    between atoms: O_27  and  C_28
REMARK   12  A    between atoms: C_28  and  C_30
REMARK   13  A    between atoms: C_33  and  O_36
REMARK   14  A    between atoms: O_36  and  C_37
REMARK   15  A    between atoms: C_37  and  C_38
REMARK                            x       y       z     vdW  Elec       q    Type
REMARK                         _______ _______ _______ _____ _____    ______ ____
ROOT
ATOM      1  C   UNL     1       0.737  -0.951   8.541  0.00  0.00    +0.098 C 
ATOM      2  C   UNL     1       1.074   0.243   9.393  0.00  0.00    +0.008 A 
ATOM      3  C   UNL     1       2.212   0.980   9.114  0.00  0.00    +0.012 A 
ATOM      4  C   UNL     1       2.536   2.078   9.885  0.00  0.00    +0.047 A 
ATOM      5  C   UNL     1       1.720   2.448  10.945  0.00  0.00    +0.135 A 
ATOM      6  C   UNL     1       0.580   1.712  11.227  0.00  0.00    +0.093 A 
ATOM      7  C   UNL     1       0.255   0.608  10.451  0.00  0.00    +0.138 A 
ATOM      8  O   UNL     1      -0.864  -0.101  10.740  0.00  0.00    -0.441 OA
ATOM      9  C   UNL     1      -0.999  -1.357  10.282  0.00  0.00    +0.199 C 
ATOM     10  C   UNL     1      -0.270  -1.819   9.243  0.00  0.00    +0.098 C 
ENDROOT
BRANCH   1  15
ATOM     11  C   UNL     1       0.267  -0.377   4.836  0.00  0.00    +0.121 A 
ATOM     12  C   UNL     1      -0.894   0.382   4.821  0.00  0.00    +0.045 A 
ATOM     13  C   UNL     1      -1.522   0.705   6.008  0.00  0.00    +0.004 A 
ATOM     14  C   UNL     1      -0.994   0.273   7.211  0.00  0.00    +0.005 A 
ATOM     15  C   UNL     1       0.164  -0.483   7.229  0.00  0.00    -0.031 A 
ATOM     16  C   UNL     1       0.792  -0.814   6.044  0.00  0.00    +0.050 A 
BRANCH  11  17
ATOM     17  O   UNL     1       0.886  -0.697   3.669  0.00  0.00    -0.492 OA
BRANCH  17  18
ATOM     18  C   UNL     1       0.289  -0.213   2.465  0.00  0.00    +0.229 C 
BRANCH  18  19
ATOM     19  C   UNL     1       1.121  -0.670   1.264  0.00  0.00    +0.044 C 
BRANCH  19  21
ATOM     20  C   UNL     1       0.545   1.376  -0.048  0.00  0.00    +0.007 C 
ATOM     21  C   UNL     1       0.482  -0.152  -0.026  0.00  0.00    -0.014 C 
ATOM     22  C   UNL     1       1.240  -0.712  -1.231  0.00  0.00    +0.007 C 
ENDBRANCH  19  21
ENDBRANCH  18  19
ENDBRANCH  17  18
ENDBRANCH  11  17
ENDBRANCH   1  15
BRANCH   9  23
ATOM     23  N   UNL     1      -1.904  -2.193  10.886  0.00  0.00    -0.328 N 
ATOM     24  H   UNL     1      -2.435  -1.874  11.633  0.00  0.00    +0.145 HD
ATOM     25  H   UNL     1      -2.013  -3.102  10.567  0.00  0.00    +0.145 HD
ENDBRANCH   9  23
BRANCH  10  26
ATOM     26  C   UNL     1      -0.462  -3.168   8.802  0.00  0.00    +0.101 C 
ATOM     27  N   UNL     1      -0.615  -4.238   8.452  0.00  0.00    -0.191 NA
ENDBRANCH  10  26
BRANCH   5  28
ATOM     28  O   UNL     1       2.038   3.529  11.705  0.00  0.00    -0.422 OA
BRANCH  28  29
ATOM     29  C   UNL     1       2.433   3.315  12.975  0.00  0.00    +0.344 C 
ATOM     30  O   UNL     1       2.598   2.180  13.378  0.00  0.00    -0.245 OA
BRANCH  29  31
ATOM     31  C   UNL     1       2.667   4.458  13.877  0.00  0.00    +0.060 A 
ATOM     32  C   UNL     1       2.473   5.764  13.417  0.00  0.00    +0.018 A 
ATOM     33  C   UNL     1       2.692   6.829  14.263  0.00  0.00    +0.046 A 
ATOM     34  C   UNL     1       3.105   6.606  15.571  0.00  0.00    +0.121 A 
ATOM     35  C   UNL     1       3.299   5.309  16.032  0.00  0.00    +0.046 A 
ATOM     36  C   UNL     1       3.077   4.239  15.195  0.00  0.00    +0.018 A 
BRANCH  34  37
ATOM     37  O   UNL     1       3.319   7.658  16.401  0.00  0.00    -0.488 OA
BRANCH  37  38
ATOM     38  C   UNL     1       3.742   7.359  17.733  0.00  0.00    +0.256 C 
BRANCH  38  39
ATOM     39  C   UNL     1       3.929   8.641  18.501  0.00  0.00    +0.006 C 
ATOM     40  C   UNL     1       3.461   8.748  19.720  0.00  0.00    +0.007 C 
ENDBRANCH  38  39
ENDBRANCH  37  38
ENDBRANCH  34  37
ENDBRANCH  29  31
ENDBRANCH  28  29
ENDBRANCH   5  28
TORSDOF 13
