REMARK  Name = ZINC63794358
REMARK  4 active torsions:
REMARK  status: ('A' for Active; 'I' for Inactive)
REMARK    1  A    between atoms: C_1  and  N_2
REMARK    2  A    between atoms: C_10  and  C_12
REMARK    3  A    between atoms: C_13  and  C_23
REMARK    4  A    between atoms: C_16  and  C_18
REMARK                            x       y       z     vdW  Elec       q    Type
REMARK                         _______ _______ _______ _____ _____    ______ ____
ROOT
ATOM      1  C   UNL     1       1.316  -0.793   2.114  0.00  0.00    +0.027 C 
ATOM      2  C   UNL     1       2.285   0.140   2.039  0.00  0.00    +0.098 C 
ATOM      3  N   UNL     1       3.186  -0.031   3.042  0.00  0.00    -0.153 NA
ATOM      4  N   UNL     1       2.940  -0.977   3.793  0.00  0.00    -0.174 NA
ATOM      5  C   UNL     1       1.699  -1.619   3.329  0.00  0.00    +0.196 C 
ENDROOT
BRANCH   1  15
ATOM      6  C   UNL     1       1.318  -2.569  -0.488  0.00  0.00    +0.131 C 
ATOM      7  N   UNL     1       0.248  -2.223   0.451  0.00  0.00    -0.310 N 
ATOM      8  C   UNL     1      -0.846  -3.028   0.798  0.00  0.00    +0.052 A 
ATOM      9  C   UNL     1      -1.198  -4.303   0.373  0.00  0.00    +0.025 A 
ATOM     10  C   UNL     1      -2.341  -4.906   0.862  0.00  0.00    +0.002 A 
ATOM     11  C   UNL     1      -3.139  -4.243   1.775  0.00  0.00    +0.002 A 
ATOM     12  C   UNL     1      -2.797  -2.975   2.204  0.00  0.00    +0.025 A 
ATOM     13  C   UNL     1      -1.649  -2.361   1.718  0.00  0.00    +0.050 A 
ATOM     14  N   UNL     1      -1.103  -1.100   1.998  0.00  0.00    -0.321 N 
ATOM     15  C   UNL     1       0.126  -0.970   1.207  0.00  0.00    +0.190 C 
ATOM     16  H   UNL     1      -1.468  -0.438   2.606  0.00  0.00    +0.148 HD
ENDBRANCH   1  15
BRANCH   2  17
ATOM     17  C   UNL     1       2.360   1.204   1.008  0.00  0.00    +0.002 A 
ATOM     18  C   UNL     1       1.230   1.961   0.702  0.00  0.00    +0.010 A 
ATOM     19  C   UNL     1       1.305   2.950  -0.258  0.00  0.00    +0.001 A 
ATOM     20  C   UNL     1       2.498   3.189  -0.917  0.00  0.00    +0.000 A 
ATOM     21  C   UNL     1       3.622   2.440  -0.618  0.00  0.00    +0.001 A 
ATOM     22  C   UNL     1       3.560   1.452   0.345  0.00  0.00    +0.010 A 
ENDBRANCH   2  17
BRANCH   5  23
ATOM     23  C   UNL     1       1.958  -3.051   2.938  0.00  0.00    +0.020 A 
ATOM     24  C   UNL     1       1.140  -4.127   3.048  0.00  0.00    +0.014 A 
ATOM     25  C   UNL     1       1.594  -5.360   2.619  0.00  0.00    +0.008 A 
ATOM     26  C   UNL     1       2.843  -5.457   2.100  0.00  0.00    +0.045 A 
ATOM     27  S   UNL     1       3.417  -3.770   2.203  0.00  0.00    -0.099 S 
ENDBRANCH   5  23
TORSDOF 3
