REMARK  Name = ZINC26494490
REMARK  5 active torsions:
REMARK  status: ('A' for Active; 'I' for Inactive)
REMARK    1  A    between atoms: C_6  and  C_7
REMARK    2  A    between atoms: C_13  and  C_15
REMARK    3  A    between atoms: C_15  and  C_16
REMARK    4  A    between atoms: C_16  and  N_17
REMARK    5  A    between atoms: C_20  and  C_23
REMARK                            x       y       z     vdW  Elec       q    Type
REMARK                         _______ _______ _______ _____ _____    ______ ____
ROOT
ATOM      1  C   UNL     1      -0.124   0.993   2.451  0.00  0.00    -0.076 C 
ENDROOT
BRANCH   1   2
ATOM      2  N   UNL     1      -0.758   1.565   1.255  0.00  0.00    +0.382 N 
ATOM      3  C   UNL     1      -2.115   1.033   1.080  0.00  0.00    -0.074 C 
ATOM      4  C   UNL     1      -2.838   1.883   0.032  0.00  0.00    +0.018 C 
ATOM      5  C   UNL     1      -1.966   2.038  -1.183  0.00  0.00    -0.026 C 
ATOM      6  C   UNL     1      -0.675   1.784  -1.168  0.00  0.00    -0.040 C 
ATOM      7  C   UNL     1       0.052   1.310   0.057  0.00  0.00    -0.051 C 
ATOM      8  H   UNL     1      -0.827   2.654   1.398  0.00  0.00    -0.081 HD
BRANCH   5   9
ATOM      9  C   UNL     1      -2.584   2.493  -2.445  0.00  0.00    +0.117 A 
ATOM     10  C   UNL     1      -3.979   2.929  -2.628  0.00  0.00    +0.049 A 
ATOM     11  C   UNL     1      -5.067   3.061  -1.766  0.00  0.00    +0.016 A 
ATOM     12  C   UNL     1      -6.264   3.512  -2.246  0.00  0.00    +0.039 A 
ATOM     13  C   UNL     1      -6.404   3.846  -3.588  0.00  0.00    +0.127 A 
ATOM     14  C   UNL     1      -5.337   3.728  -4.455  0.00  0.00    +0.088 A 
ATOM     15  C   UNL     1      -4.112   3.271  -3.983  0.00  0.00    +0.171 A 
ATOM     16  O   UNL     1      -2.918   3.054  -4.571  0.00  0.00    -0.354 OA
ATOM     17  N   UNL     1      -1.997   2.578  -3.611  0.00  0.00    -0.077 NA
ATOM     18  F   UNL     1      -7.594   4.291  -4.047  0.00  0.00    -0.205 F 
ENDBRANCH   5   9
ENDBRANCH   1   2
BRANCH   1  19
ATOM     19  C   UNL     1       1.187   1.729   2.734  0.00  0.00    +0.018 C 
BRANCH  19  29
ATOM     20  C   UNL     1       4.066   4.111   4.615  0.00  0.00    +0.013 A 
ATOM     21  C   UNL     1       2.977   3.329   4.295  0.00  0.00    +0.007 A 
ATOM     22  C   UNL     1       3.069   1.943   4.332  0.00  0.00    -0.016 A 
ATOM     23  C   UNL     1       4.255   1.340   4.694  0.00  0.00    -0.039 A 
ATOM     24  C   UNL     1       5.354   2.114   5.019  0.00  0.00    +0.017 A 
ATOM     25  C   UNL     1       5.268   3.505   4.983  0.00  0.00    +0.037 A 
ATOM     26  C   UNL     1       4.388  -0.161   4.742  0.00  0.00    +0.063 C 
ATOM     27  C   UNL     1       3.000  -0.803   4.764  0.00  0.00    +0.165 C 
ATOM     28  O   UNL     1       2.214  -0.221   3.718  0.00  0.00    -0.372 OA
ATOM     29  C   UNL     1       1.848   1.133   3.979  0.00  0.00    +0.147 C 
BRANCH  25  30
ATOM     30  C   UNL     1       6.443   4.333   5.330  0.00  0.00    +0.242 C 
ATOM     31  O   UNL     1       7.488   3.801   5.649  0.00  0.00    -0.270 OA
ATOM     32  N   UNL     1       6.354   5.678   5.293  0.00  0.00    -0.325 N 
ATOM     33  H   UNL     1       7.228   6.294   5.551  0.00  0.00    +0.145 HD
ATOM     34  H   UNL     1       5.408   6.159   5.005  0.00  0.00    +0.145 HD
ENDBRANCH  25  30
ENDBRANCH  19  29
ENDBRANCH   1  19
TORSDOF 5
