REMARK  Name = ZINC20176521
REMARK  7 active torsions:
REMARK  status: ('A' for Active; 'I' for Inactive)
REMARK    1  A    between atoms: C_1  and  C_2
REMARK    2  A    between atoms: C_2  and  O_3
REMARK    3  A    between atoms: O_3  and  C_4
REMARK    4  A    between atoms: C_7  and  N_10
REMARK    5  A    between atoms: C_19  and  C_33
REMARK    6  A    between atoms: N_34  and  C_35
REMARK    7  A    between atoms: C_38  and  C_41
REMARK                            x       y       z     vdW  Elec       q    Type
REMARK                         _______ _______ _______ _____ _____    ______ ____
ROOT
ATOM      1  N   UNL     1       1.137  -5.959   1.753  0.00  0.00    -0.210 N 
ATOM      2  C   UNL     1       0.633  -6.854   0.853  0.00  0.00    +0.231 C 
ATOM      3  O   UNL     1      -0.167  -6.629  -0.029  0.00  0.00    -0.274 OA
ATOM      4  C   UNL     1       1.283  -8.193   1.184  0.00  0.00    +0.101 C 
ATOM      5  C   UNL     1       1.318  -7.936   2.715  0.00  0.00    +0.109 C 
ATOM      6  C   UNL     1       1.771  -6.555   2.822  0.00  0.00    +0.232 C 
ATOM      7  O   UNL     1       2.514  -6.058   3.641  0.00  0.00    -0.274 OA
ATOM      8  C   UNL     1       1.434  -9.159   3.572  0.00  0.00    +0.068 C 
ATOM      9  C   UNL     1      -0.085  -9.498   3.524  0.00  0.00    -0.027 A 
ATOM     10  C   UNL     1      -0.836  -9.767   4.623  0.00  0.00    +0.005 A 
ATOM     11  C   UNL     1      -2.201  -9.977   4.452  0.00  0.00    +0.000 A 
ATOM     12  C   UNL     1      -2.755  -9.898   3.187  0.00  0.00    +0.000 A 
ATOM     13  C   UNL     1      -1.968  -9.649   2.074  0.00  0.00    +0.004 A 
ATOM     14  C   UNL     1      -0.612  -9.483   2.241  0.00  0.00    -0.035 A 
ATOM     15  C   UNL     1       0.336  -9.420   1.037  0.00  0.00    +0.062 C 
ATOM     16  C   UNL     1       1.369 -10.495   1.441  0.00  0.00    -0.035 A 
ATOM     17  C   UNL     1       1.962 -10.313   2.697  0.00  0.00    -0.027 A 
ATOM     18  C   UNL     1       2.956 -11.155   3.126  0.00  0.00    +0.005 A 
ATOM     19  C   UNL     1       3.341 -12.206   2.305  0.00  0.00    +0.000 A 
ATOM     20  C   UNL     1       2.732 -12.404   1.080  0.00  0.00    +0.000 A 
ATOM     21  C   UNL     1       1.726 -11.534   0.633  0.00  0.00    +0.004 A 
ENDROOT
BRANCH   1  25
ATOM     22  C   UNL     1       0.802  -1.825   1.306  0.00  0.00    +0.121 A 
ATOM     23  C   UNL     1       0.259  -2.672   0.350  0.00  0.00    +0.047 A 
ATOM     24  C   UNL     1       0.370  -4.040   0.498  0.00  0.00    +0.027 A 
ATOM     25  C   UNL     1       1.024  -4.568   1.603  0.00  0.00    +0.044 A 
ATOM     26  C   UNL     1       1.567  -3.720   2.558  0.00  0.00    +0.027 A 
ATOM     27  C   UNL     1       1.461  -2.352   2.407  0.00  0.00    +0.047 A 
BRANCH  22  28
ATOM     28  O   UNL     1       0.693  -0.477   1.160  0.00  0.00    -0.492 OA
BRANCH  28  30
ATOM     29  C   UNL     1      -0.019   1.526   0.010  0.00  0.00    +0.048 C 
ATOM     30  C   UNL     1       0.002  -0.004   0.002  0.00  0.00    +0.225 C 
ENDBRANCH  28  30
ENDBRANCH  22  28
ENDBRANCH   1  25
BRANCH   8  31
ATOM     31  C   UNL     1       2.092  -8.982   4.917  0.00  0.00    +0.101 C 
ATOM     32  N   UNL     1       1.438  -9.255   5.996  0.00  0.00    -0.259 NA
BRANCH  32  33
ATOM     33  C   UNL     1       2.038  -9.094   7.221  0.00  0.00    +0.064 A 
ATOM     34  C   UNL     1       3.341  -9.545   7.427  0.00  0.00    +0.028 A 
ATOM     35  C   UNL     1       3.938  -9.380   8.661  0.00  0.00    +0.005 A 
ATOM     36  C   UNL     1       3.246  -8.769   9.691  0.00  0.00    -0.050 A 
ATOM     37  C   UNL     1       1.953  -8.320   9.492  0.00  0.00    +0.005 A 
ATOM     38  C   UNL     1       1.348  -8.472   8.262  0.00  0.00    +0.028 A 
ATOM     39  C   UNL     1       3.904  -8.593  11.035  0.00  0.00    +0.044 C 
ENDBRANCH  32  33
ENDBRANCH   8  31
TORSDOF 5
