REMARK  Name = ZINC42997112
REMARK  5 active torsions:
REMARK  status: ('A' for Active; 'I' for Inactive)
REMARK    1  A    between atoms: C_1  and  C_2
REMARK    2  A    between atoms: C_7  and  N_8
REMARK    3  A    between atoms: N_11  and  N_12
REMARK    4  A    between atoms: N_15  and  C_16
REMARK    5  A    between atoms: C_16  and  C_17
REMARK                            x       y       z     vdW  Elec       q    Type
REMARK                         _______ _______ _______ _____ _____    ______ ____
ROOT
ATOM      1  N   UNL     1      -0.173   1.375   4.750  0.00  0.00    -0.217 N 
ATOM      2  C   UNL     1      -0.272   2.043   5.917  0.00  0.00    +0.316 C 
ATOM      3  O   UNL     1      -0.288   3.258   5.921  0.00  0.00    -0.251 OA
ATOM      4  N   UNL     1      -0.354   1.363   7.077  0.00  0.00    -0.294 N 
ATOM      5  H   UNL     1      -0.115   1.864   3.915  0.00  0.00    +0.174 HD
ATOM      6  H   UNL     1      -0.341   0.393   7.074  0.00  0.00    +0.151 HD
ENDROOT
BRANCH   1  10
ATOM      7  N   UNL     1       0.026  -0.015   2.417  0.00  0.00    -0.268 N 
ATOM      8  C   UNL     1      -0.056  -0.694   3.578  0.00  0.00    +0.320 C 
ATOM      9  O   UNL     1      -0.040  -1.910   3.573  0.00  0.00    -0.251 OA
ATOM     10  N   UNL     1      -0.155  -0.026   4.745  0.00  0.00    -0.217 N 
ATOM     11  H   UNL     1       0.079   0.954   2.425  0.00  0.00    +0.156 HD
ATOM     12  H   UNL     1      -0.214  -0.515   5.580  0.00  0.00    +0.174 HD
BRANCH   7  19
ATOM     13  C   UNL     1      -1.265   1.184   0.182  0.00  0.00    +0.045 C 
ATOM     14  C   UNL     1      -0.585  -0.158   0.085  0.00  0.00    -0.029 A 
ATOM     15  C   UNL     1      -0.570  -0.840  -1.116  0.00  0.00    +0.005 A 
ATOM     16  C   UNL     1       0.054  -2.070  -1.206  0.00  0.00    +0.000 A 
ATOM     17  C   UNL     1       0.665  -2.622  -0.095  0.00  0.00    +0.002 A 
ATOM     18  C   UNL     1       0.654  -1.945   1.108  0.00  0.00    +0.023 A 
ATOM     19  C   UNL     1       0.033  -0.706   1.200  0.00  0.00    +0.038 A 
ENDBRANCH   7  19
ENDBRANCH   1  10
BRANCH   4  20
ATOM     20  C   UNL     1      -0.462   2.089   8.345  0.00  0.00    +0.142 C 
BRANCH  20  21
ATOM     21  C   UNL     1      -0.537   1.104   9.483  0.00  0.00    -0.012 A 
ATOM     22  C   UNL     1      -1.761   0.790  10.046  0.00  0.00    +0.008 A 
ATOM     23  C   UNL     1      -1.831  -0.113  11.089  0.00  0.00    +0.020 A 
ATOM     24  C   UNL     1      -0.677  -0.704  11.572  0.00  0.00    +0.042 A 
ATOM     25  C   UNL     1       0.547  -0.391  11.010  0.00  0.00    +0.040 A 
ATOM     26  C   UNL     1       0.617   0.509   9.962  0.00  0.00    +0.047 A 
ATOM     27 CL   UNL     1       2.152   0.898   9.251  0.00  0.00    -0.083 Cl
ATOM     28 CL   UNL     1      -0.765  -1.838  12.883  0.00  0.00    -0.083 Cl
ENDBRANCH  20  21
ENDBRANCH   4  20
TORSDOF 4
