REMARK  Name = ZINC48605316
REMARK  8 active torsions:
REMARK  status: ('A' for Active; 'I' for Inactive)
REMARK    1  A    between atoms: C_1  and  C_2
REMARK    2  A    between atoms: C_2  and  C_28
REMARK    3  A    between atoms: C_4  and  N_10
REMARK    4  A    between atoms: C_6  and  C_8
REMARK    5  A    between atoms: C_6  and  C_9
REMARK    6  A    between atoms: C_11  and  C_13
REMARK    7  A    between atoms: N_15  and  C_16
REMARK    8  A    between atoms: C_19  and  N_22
REMARK                            x       y       z     vdW  Elec       q    Type
REMARK                         _______ _______ _______ _____ _____    ______ ____
ROOT
ATOM      1  C   UNL     1      -5.923  -1.022   1.614  0.00  0.00    +0.303 C 
ATOM      2  O   UNL     1      -6.139  -1.864   0.767  0.00  0.00    -0.265 OA
ATOM      3  N   UNL     1      -6.926  -0.583   2.399  0.00  0.00    -0.278 N 
ATOM      4  H   UNL     1      -6.742   0.041   3.118  0.00  0.00    +0.155 HD
ENDROOT
BRANCH   3   5
ATOM      5  C   UNL     1      -8.233  -1.029   2.178  0.00  0.00    +0.034 A 
ATOM      6  C   UNL     1      -9.305  -0.168   2.382  0.00  0.00    +0.025 A 
ATOM      7  C   UNL     1     -10.595  -0.608   2.164  0.00  0.00    +0.025 A 
ATOM      8  C   UNL     1     -10.822  -1.911   1.741  0.00  0.00    +0.038 A 
ATOM      9  C   UNL     1      -9.751  -2.772   1.538  0.00  0.00    +0.025 A 
ATOM     10  C   UNL     1      -8.460  -2.331   1.749  0.00  0.00    +0.025 A 
BRANCH   8  11
ATOM     11  N   UNL     1     -12.131  -2.358   1.520  0.00  0.00    -0.254 N 
ATOM     12  C   UNL     1     -12.516  -3.738   1.190  0.00  0.00    +0.134 C 
ATOM     13  C   UNL     1     -14.050  -3.672   1.056  0.00  0.00    +0.125 C 
ATOM     14  N   UNL     1     -14.366  -2.261   1.325  0.00  0.00    -0.297 N 
ATOM     15  C   UNL     1     -13.231  -1.597   1.581  0.00  0.00    +0.307 C 
ATOM     16  O   UNL     1     -13.202  -0.409   1.841  0.00  0.00    -0.252 OA
ATOM     17  H   UNL     1     -15.255  -1.873   1.321  0.00  0.00    +0.150 HD
ENDBRANCH   8  11
ENDBRANCH   3   5
BRANCH   1  19
ATOM     18  N   UNL     1      -3.542  -0.910   0.999  0.00  0.00    -0.305 N 
ATOM     19  C   UNL     1      -4.545  -0.471   1.785  0.00  0.00    +0.300 C 
ATOM     20  O   UNL     1      -4.330   0.371   2.632  0.00  0.00    -0.265 OA
ATOM     21  H   UNL     1      -3.715  -1.583   0.322  0.00  0.00    +0.149 HD
BRANCH  18  25
ATOM     22  C   UNL     1      -0.012   1.544   0.045  0.00  0.00    -0.010 C 
ATOM     23  C   UNL     1       0.003   0.013   0.009  0.00  0.00    -0.072 C 
ATOM     24  C   UNL     1      -1.420  -0.514  -0.146  0.00  0.00    +0.009 C 
ATOM     25  C   UNL     1      -2.188  -0.369   1.168  0.00  0.00    +0.071 C 
ATOM     26  C   UNL     1      -1.453  -1.173   2.240  0.00  0.00    +0.009 C 
ATOM     27  C   UNL     1      -0.030  -0.653   2.413  0.00  0.00    -0.072 C 
ATOM     28  N   UNL     1       0.696  -0.536   1.161  0.00  0.00    +0.386 N 
ATOM     29  C   UNL     1       0.727  -1.666   3.303  0.00  0.00    -0.010 C 
ATOM     30  C   UNL     1      -0.054   0.679   3.170  0.00  0.00    -0.010 C 
ATOM     31  C   UNL     1       0.790  -0.404  -1.255  0.00  0.00    -0.010 C 
ATOM     32  H   UNL     1       1.052  -1.464   0.909  0.00  0.00    -0.084 HD
ATOM     33  H   UNL     1       1.536   0.027   1.329  0.00  0.00    -0.084 HD
ENDBRANCH  18  25
ENDBRANCH   1  19
TORSDOF 4
