REMARK  Name = ZINC12492741
REMARK  10 active torsions:
REMARK  status: ('A' for Active; 'I' for Inactive)
REMARK    1  A    between atoms: C_2  and  C_10
REMARK    2  A    between atoms: C_5  and  N_7
REMARK    3  A    between atoms: N_11  and  C_12
REMARK    4  A    between atoms: C_12  and  C_13
REMARK    5  A    between atoms: C_13  and  C_14
REMARK    6  A    between atoms: C_16  and  C_24
REMARK    7  A    between atoms: C_24  and  C_25
REMARK    8  A    between atoms: C_25  and  N_26
REMARK    9  A    between atoms: C_27  and  C_28
REMARK   10  A    between atoms: C_31  and  N_34
REMARK                            x       y       z     vdW  Elec       q    Type
REMARK                         _______ _______ _______ _____ _____    ______ ____
ROOT
ATOM      1  C   UNL     1       2.880   7.722   1.322  0.00  0.00    -0.027 C 
ATOM      2  C   UNL     1       3.498   8.230   2.626  0.00  0.00    +0.014 C 
ATOM      3  C   UNL     1       3.485   9.760   2.634  0.00  0.00    -0.027 C 
ATOM      4  C   UNL     1       2.043  10.259   2.524  0.00  0.00    +0.010 C 
ATOM      5  C   UNL     1       1.425   9.751   1.220  0.00  0.00    -0.010 C 
ATOM      6  C   UNL     1       1.438   8.221   1.212  0.00  0.00    +0.010 C 
ATOM      7  C   UNL     1       2.237  10.273   0.033  0.00  0.00    +0.007 C 
ATOM      8  C   UNL     1       3.679   9.775   0.143  0.00  0.00    -0.010 C 
ATOM      9  C   UNL     1       4.297  10.283   1.447  0.00  0.00    +0.010 C 
ATOM     10  C   UNL     1       3.692   8.245   0.135  0.00  0.00    +0.010 C 
ENDROOT
BRANCH   1  11
ATOM     11  C   UNL     1       2.893   6.192   1.314  0.00  0.00    +0.028 C 
BRANCH  11  12
ATOM     12  C   UNL     1       2.275   5.684   0.010  0.00  0.00    +0.113 C 
BRANCH  12  14
ATOM     13  C   UNL     1       1.173   3.563   0.009  0.00  0.00    +0.086 C 
ATOM     14  N   UNL     1       2.287   4.219   0.002  0.00  0.00    -0.390 N 
ATOM     15  H   UNL     1       3.131   3.741  -0.008  0.00  0.00    +0.159 HD
BRANCH  13  17
ATOM     16  C   UNL     1      -0.017   1.375   0.010  0.00  0.00    +0.011 A 
ATOM     17  C   UNL     1       1.185   2.087   0.002  0.00  0.00    -0.009 A 
ATOM     18  C   UNL     1       2.398   1.395  -0.013  0.00  0.00    +0.011 A 
ATOM     19  C   UNL     1       2.402   0.016  -0.021  0.00  0.00    +0.033 A 
ATOM     20  C   UNL     1       1.208  -0.683  -0.014  0.00  0.00    +0.126 A 
ATOM     21  C   UNL     1       0.002  -0.004   0.002  0.00  0.00    +0.033 A 
BRANCH  20  22
ATOM     22  N   UNL     1       1.220  -2.163  -0.023  0.00  0.00    +0.056 N 
ATOM     23  O   UNL     1       2.272  -2.758  -0.036  0.00  0.00    -0.126 OA
ATOM     24  O   UNL     1       0.178  -2.776  -0.016  0.00  0.00    -0.126 OA
ENDBRANCH  20  22
ENDBRANCH  13  17
ENDBRANCH  12  14
ENDBRANCH  11  12
ENDBRANCH   1  11
BRANCH   3  25
ATOM     25  C   UNL     1       4.103  10.269   3.938  0.00  0.00    +0.028 C 
BRANCH  25  26
ATOM     26  C   UNL     1       4.090  11.799   3.946  0.00  0.00    +0.113 C 
BRANCH  26  27
ATOM     27  N   UNL     1       4.681  12.286   5.195  0.00  0.00    -0.390 N 
ATOM     28  C   UNL     1       5.786  12.957   5.168  0.00  0.00    +0.086 C 
ATOM     29  H   UNL     1       4.244  12.104   6.042  0.00  0.00    +0.159 HD
BRANCH  28  30
ATOM     30  C   UNL     1       6.382  13.447   6.427  0.00  0.00    -0.009 A 
ATOM     31  C   UNL     1       5.758  13.183   7.648  0.00  0.00    +0.011 A 
ATOM     32  C   UNL     1       6.321  13.644   8.820  0.00  0.00    +0.033 A 
ATOM     33  C   UNL     1       7.500  14.367   8.787  0.00  0.00    +0.126 A 
ATOM     34  C   UNL     1       8.124  14.632   7.581  0.00  0.00    +0.033 A 
ATOM     35  C   UNL     1       7.575  14.172   6.402  0.00  0.00    +0.011 A 
BRANCH  33  36
ATOM     36  N   UNL     1       8.098  14.859  10.049  0.00  0.00    +0.056 N 
ATOM     37  O   UNL     1       7.555  14.630  11.105  0.00  0.00    -0.126 OA
ATOM     38  O   UNL     1       9.128  15.491  10.024  0.00  0.00    -0.126 OA
ENDBRANCH  33  36
ENDBRANCH  28  30
ENDBRANCH  26  27
ENDBRANCH  25  26
ENDBRANCH   3  25
TORSDOF 10
