REMARK  Name = ZINC36518832
REMARK  18 active torsions:
REMARK  status: ('A' for Active; 'I' for Inactive)
REMARK    1  A    between atoms: C_1  and  C_2
REMARK    2  A    between atoms: C_2  and  C_3
REMARK    3  A    between atoms: C_3  and  C_4
REMARK    4  A    between atoms: C_4  and  C_5
REMARK    5  A    between atoms: C_5  and  C_6
REMARK    6  A    between atoms: C_6  and  N_7
REMARK    7  A    between atoms: N_7  and  C_8
REMARK    8  A    between atoms: C_8  and  C_10
REMARK    9  A    between atoms: C_8  and  C_19
REMARK   10  A    between atoms: C_10  and  C_12
REMARK   11  A    between atoms: C_10  and  C_13
REMARK   12  A    between atoms: N_21  and  C_22
REMARK   13  A    between atoms: C_22  and  C_23
REMARK   14  A    between atoms: C_22  and  C_24
REMARK   15  A    between atoms: C_22  and  C_25
REMARK   16  A    between atoms: C_26  and  C_28
REMARK   17  A    between atoms: C_28  and  N_29
REMARK   18  A    between atoms: C_30  and  C_32
REMARK                            x       y       z     vdW  Elec       q    Type
REMARK                         _______ _______ _______ _____ _____    ______ ____
ROOT
ATOM      1  N   UNL     1      -4.328  -4.489  -0.020  0.00  0.00    -0.288 N 
ATOM      2  C   UNL     1      -5.002  -4.706   1.127  0.00  0.00    +0.233 C 
ATOM      3  O   UNL     1      -4.551  -4.308   2.180  0.00  0.00    -0.274 OA
ENDROOT
BRANCH   1   4
ATOM      4  C   UNL     1      -3.050  -3.774   0.006  0.00  0.00    +0.108 C 
BRANCH   4   5
ATOM      5  C   UNL     1      -3.309  -2.272   0.136  0.00  0.00    +0.019 C 
BRANCH   5   6
ATOM      6  C   UNL     1      -1.973  -1.528   0.206  0.00  0.00    +0.002 C 
BRANCH   6   7
ATOM      7  C   UNL     1      -2.232  -0.026   0.336  0.00  0.00    -0.000 C 
BRANCH   7   9
ATOM      8  C   UNL     1      -1.155   2.220   0.537  0.00  0.00    +0.004 C 
ATOM      9  C   UNL     1      -0.897   0.717   0.406  0.00  0.00    -0.003 C 
ENDBRANCH   7   9
ENDBRANCH   6   7
ENDBRANCH   5   6
ENDBRANCH   4   5
ENDBRANCH   1   4
BRANCH   1  10
ATOM     10  C   UNL     1      -4.873  -4.970  -1.292  0.00  0.00    +0.169 C 
BRANCH  10  11
ATOM     11  C   UNL     1      -4.882  -3.842  -2.292  0.00  0.00    +0.235 C 
ATOM     12  O   UNL     1      -3.996  -3.014  -2.281  0.00  0.00    -0.274 OA
ATOM     13  N   UNL     1      -5.875  -3.754  -3.199  0.00  0.00    -0.309 N 
ATOM     14  H   UNL     1      -6.584  -4.417  -3.208  0.00  0.00    +0.149 HD
BRANCH  13  15
ATOM     15  C   UNL     1      -5.884  -2.659  -4.171  0.00  0.00    +0.026 C 
ATOM     16  C   UNL     1      -4.613  -2.719  -5.020  0.00  0.00    +0.031 C 
ATOM     17  C   UNL     1      -7.110  -2.791  -5.078  0.00  0.00    +0.031 C 
ATOM     18  C   UNL     1      -5.940  -1.321  -3.431  0.00  0.00    +0.031 C 
ENDBRANCH  13  15
ENDBRANCH  10  11
BRANCH  10  19
ATOM     19  C   UNL     1      -4.004  -6.113  -1.820  0.00  0.00    +0.045 C 
ATOM     20  C   UNL     1      -2.550  -5.647  -1.913  0.00  0.00    +0.015 C 
BRANCH  19  21
ATOM     21  C   UNL     1      -4.096  -7.289  -0.882  0.00  0.00    -0.042 A 
ATOM     22  C   UNL     1      -3.710  -7.152   0.438  0.00  0.00    +0.004 A 
ATOM     23  C   UNL     1      -3.795  -8.230   1.298  0.00  0.00    +0.000 A 
ATOM     24  C   UNL     1      -4.266  -9.446   0.839  0.00  0.00    +0.000 A 
ATOM     25  C   UNL     1      -4.653  -9.583  -0.481  0.00  0.00    +0.000 A 
ATOM     26  C   UNL     1      -4.573  -8.503  -1.341  0.00  0.00    +0.004 A 
ENDBRANCH  19  21
ENDBRANCH  10  19
ENDBRANCH   1  10
BRANCH   2  27
ATOM     27  C   UNL     1      -6.317  -5.442   1.100  0.00  0.00    +0.200 C 
BRANCH  27  28
ATOM     28  N   UNL     1      -6.846  -5.547   2.462  0.00  0.00    -0.303 N 
ATOM     29  C   UNL     1      -8.020  -6.170   2.683  0.00  0.00    +0.244 C 
ATOM     30  O   UNL     1      -8.641  -6.645   1.752  0.00  0.00    -0.270 OA
ATOM     31  H   UNL     1      -6.350  -5.168   3.205  0.00  0.00    +0.150 HD
BRANCH  29  32
ATOM     32  C   UNL     1      -8.553  -6.276   4.058  0.00  0.00    +0.037 A 
ATOM     33  C   UNL     1      -7.846  -5.726   5.129  0.00  0.00    +0.013 A 
ATOM     34  C   UNL     1      -8.350  -5.828   6.409  0.00  0.00    +0.001 A 
ATOM     35  C   UNL     1      -9.553  -6.474   6.633  0.00  0.00    +0.000 A 
ATOM     36  C   UNL     1     -10.259  -7.021   5.577  0.00  0.00    +0.001 A 
ATOM     37  C   UNL     1      -9.769  -6.920   4.291  0.00  0.00    +0.013 A 
ENDBRANCH  29  32
ENDBRANCH  27  28
ENDBRANCH   2  27
TORSDOF 13
