REMARK  Name = ZINC20154205
REMARK  4 active torsions:
REMARK  status: ('A' for Active; 'I' for Inactive)
REMARK    1  A    between atoms: C_3  and  N_24
REMARK    2  A    between atoms: C_4  and  N_21
REMARK    3  A    between atoms: C_6  and  N_7
REMARK    4  A    between atoms: C_8  and  C_10
REMARK                            x       y       z     vdW  Elec       q    Type
REMARK                         _______ _______ _______ _____ _____    ______ ____
ROOT
ATOM      1  C   UNL     1       3.867   5.629  -0.091  0.00  0.00    +0.025 A 
ATOM      2  C   UNL     1       4.617   6.785  -0.183  0.00  0.00    +0.027 A 
ATOM      3  C   UNL     1       3.984   8.019  -0.257  0.00  0.00    +0.060 A 
ATOM      4  C   UNL     1       2.596   8.090  -0.245  0.00  0.00    +0.149 A 
ATOM      5  C   UNL     1       1.847   6.934  -0.160  0.00  0.00    +0.058 A 
ATOM      6  C   UNL     1       2.480   5.700  -0.086  0.00  0.00    +0.036 A 
ENDROOT
BRANCH   3   7
ATOM      7  N   UNL     1       4.743   9.191  -0.343  0.00  0.00    -0.332 N 
ATOM      8  C   UNL     1       5.628   9.332   0.821  0.00  0.00    +0.086 C 
ATOM      9  C   UNL     1       6.382  10.661   0.729  0.00  0.00    -0.063 C 
ATOM     10  N   UNL     1       7.152  10.698  -0.522  0.00  0.00    +0.381 N 
ATOM     11  C   UNL     1       6.267  10.557  -1.687  0.00  0.00    -0.063 C 
ATOM     12  C   UNL     1       5.514   9.228  -1.594  0.00  0.00    +0.086 C 
ATOM     13  H   UNL     1       7.685  11.658  -0.597  0.00  0.00    -0.086 HD
ATOM     14  H   UNL     1       7.880   9.873  -0.529  0.00  0.00    -0.086 HD
ENDBRANCH   3   7
BRANCH   6  15
ATOM     15  N   UNL     1       1.720   4.527   0.001  0.00  0.00    -0.281 N 
ATOM     16  C   UNL     1       0.546   4.434  -0.656  0.00  0.00    +0.256 C 
ATOM     17  O   UNL     1       0.107   5.398  -1.255  0.00  0.00    -0.269 OA
ATOM     18  H   UNL     1       2.080   3.681   0.606  0.00  0.00    +0.155 HD
BRANCH  16  19
ATOM     19  C   UNL     1      -0.201   3.171  -0.648  0.00  0.00    +0.094 A 
ATOM     20  C   UNL     1      -1.389   2.885  -1.247  0.00  0.00    +0.068 A 
ATOM     21  C   UNL     1      -1.947   1.599  -1.120  0.00  0.00    +0.008 A 
ATOM     22  C   UNL     1      -3.163   1.112  -1.664  0.00  0.00    +0.012 A 
ATOM     23  C   UNL     1      -3.560  -0.167  -1.445  0.00  0.00    +0.021 A 
ATOM     24  C   UNL     1      -2.796  -1.047  -0.685  0.00  0.00    +0.042 A 
ATOM     25  C   UNL     1      -1.605  -0.614  -0.137  0.00  0.00    +0.035 A 
ATOM     26  C   UNL     1      -1.190   0.684  -0.351  0.00  0.00    +0.023 A 
ATOM     27  S   UNL     1       0.225   1.632   0.147  0.00  0.00    -0.082 S 
ATOM     28 CL   UNL     1      -3.336  -2.676  -0.427  0.00  0.00    -0.084 Cl
ATOM     29 CL   UNL     1      -2.216   4.105  -2.164  0.00  0.00    -0.082 Cl
ENDBRANCH  16  19
ENDBRANCH   6  15
BRANCH   4  30
ATOM     30  N   UNL     1       1.922   9.405  -0.325  0.00  0.00    +0.058 N 
ATOM     31  O   UNL     1       0.711   9.476  -0.219  0.00  0.00    -0.126 OA
ATOM     32  O   UNL     1       2.578  10.417  -0.497  0.00  0.00    -0.126 OA
ENDBRANCH   4  30
TORSDOF 4
