REMARK  Name = ZINC16655654
REMARK  8 active torsions:
REMARK  status: ('A' for Active; 'I' for Inactive)
REMARK    1  A    between atoms: C_1  and  C_2
REMARK    2  A    between atoms: C_5  and  S_9
REMARK    3  A    between atoms: C_6  and  C_8
REMARK    4  A    between atoms: S_9  and  C_10
REMARK    5  A    between atoms: C_10  and  C_11
REMARK    6  A    between atoms: C_11  and  C_13
REMARK    7  A    between atoms: C_14  and  N_25
REMARK    8  A    between atoms: N_15  and  C_22
REMARK                            x       y       z     vdW  Elec       q    Type
REMARK                         _______ _______ _______ _____ _____    ______ ____
ROOT
ATOM      1  C   UNL     1       3.567   1.594  -0.511  0.00  0.00    +0.120 A 
ATOM      2  C   UNL     1       2.277   1.045  -0.413  0.00  0.00    +0.116 A 
ATOM      3  N   UNL     1       1.268   1.817   0.089  0.00  0.00    -0.278 N 
ATOM      4  C   UNL     1       1.486   3.082   0.482  0.00  0.00    +0.331 A 
ATOM      5  O   UNL     1       0.553   3.728   0.917  0.00  0.00    -0.246 OA
ATOM      6  N   UNL     1       2.697   3.657   0.416  0.00  0.00    -0.274 N 
ATOM      7  H   UNL     1       2.813   4.600   0.728  0.00  0.00    +0.173 HD
ATOM      8  C   UNL     1       3.760   2.979  -0.065  0.00  0.00    +0.266 A 
ATOM      9  O   UNL     1       4.856   3.506  -0.126  0.00  0.00    -0.267 OA
ENDROOT
BRANCH   3  10
ATOM     10  C   UNL     1      -0.081   1.254   0.195  0.00  0.00    +0.094 C 
ATOM     11  C   UNL     1      -1.242   2.101  -0.328  0.00  0.00    +0.027 C 
ATOM     12  C   UNL     1      -0.787   0.863  -1.104  0.00  0.00    +0.027 C 
ENDBRANCH   3  10
BRANCH   2  13
ATOM     13  N   UNL     1       2.037  -0.234  -0.810  0.00  0.00    -0.344 N 
ATOM     14  H   UNL     1       1.128  -0.569  -0.844  0.00  0.00    +0.144 HD
ATOM     15  H   UNL     1       2.776  -0.810  -1.061  0.00  0.00    +0.144 HD
ENDBRANCH   2  13
BRANCH   1  16
ATOM     16  C   UNL     1       4.644   0.837  -1.022  0.00  0.00    +0.182 C 
ATOM     17  O   UNL     1       4.445  -0.273  -1.474  0.00  0.00    -0.291 OA
BRANCH  16  18
ATOM     18  C   UNL     1       6.039   1.406  -1.008  0.00  0.00    +0.154 C 
BRANCH  18  19
ATOM     19  S   UNL     1       7.190   0.203  -1.727  0.00  0.00    -0.117 S 
BRANCH  19  24
ATOM     20  C   UNL     1      12.554   2.954  -1.427  0.00  0.00    +0.044 C 
ATOM     21  C   UNL     1      11.215   2.268  -1.502  0.00  0.00    -0.050 A 
ATOM     22  C   UNL     1      10.083   2.909  -1.032  0.00  0.00    +0.004 A 
ATOM     23  C   UNL     1       8.855   2.283  -1.099  0.00  0.00    +0.015 A 
ATOM     24  C   UNL     1       8.756   1.006  -1.640  0.00  0.00    +0.011 A 
ATOM     25  C   UNL     1       9.896   0.363  -2.106  0.00  0.00    -0.037 A 
ATOM     26  C   UNL     1      11.121   0.997  -2.040  0.00  0.00    +0.007 A 
ATOM     27  C   UNL     1       9.795  -1.024  -2.688  0.00  0.00    +0.045 C 
ENDBRANCH  19  24
ENDBRANCH  18  19
ENDBRANCH  16  18
ENDBRANCH   1  16
TORSDOF 6
