REMARK  Name = ZINC21595930
REMARK  5 active torsions:
REMARK  status: ('A' for Active; 'I' for Inactive)
REMARK    1  A    between atoms: C_1  and  C_2
REMARK    2  A    between atoms: C_9  and  N_14
REMARK    3  A    between atoms: C_10  and  C_11
REMARK    4  A    between atoms: C_15  and  C_17
REMARK    5  A    between atoms: C_23  and  N_26
REMARK                            x       y       z     vdW  Elec       q    Type
REMARK                         _______ _______ _______ _____ _____    ______ ____
ROOT
ATOM      1  N   UNL     1      -1.856  -4.466  -0.002  0.00  0.00    -0.275 N 
ATOM      2  C   UNL     1      -0.556  -4.111  -0.013  0.00  0.00    +0.257 C 
ATOM      3  O   UNL     1       0.308  -4.967  -0.026  0.00  0.00    -0.269 OA
ATOM      4  H   UNL     1      -2.638  -3.692   0.010  0.00  0.00    +0.156 HD
ENDROOT
BRANCH   1  12
ATOM      5  C   UNL     1      -3.418 -12.129   0.072  0.00  0.00    +0.008 C 
ATOM      6  C   UNL     1      -3.506 -10.630   0.364  0.00  0.00    -0.009 C 
ATOM      7  C   UNL     1      -4.639 -10.009  -0.459  0.00  0.00    +0.008 C 
ATOM      8  C   UNL     1      -4.895  -8.575   0.007  0.00  0.00    +0.037 C 
ATOM      9  C   UNL     1      -3.576  -7.814  -0.002  0.00  0.00    -0.023 A 
ATOM     10  C   UNL     1      -2.395  -8.469  -0.016  0.00  0.00    -0.004 A 
ATOM     11  S   UNL     1      -1.169  -7.192  -0.022  0.00  0.00    -0.077 S 
ATOM     12  C   UNL     1      -2.208  -5.806  -0.005  0.00  0.00    +0.085 A 
ATOM     13  C   UNL     1      -3.479  -6.364   0.010  0.00  0.00    +0.068 A 
ATOM     14  C   UNL     1      -2.184  -9.952  -0.025  0.00  0.00    +0.046 C 
BRANCH  13  15
ATOM     15  C   UNL     1      -4.679  -5.522   0.033  0.00  0.00    +0.244 C 
ATOM     16  O   UNL     1      -5.193  -5.166  -1.011  0.00  0.00    -0.270 OA
ATOM     17  N   UNL     1      -5.213  -5.142   1.211  0.00  0.00    -0.325 N 
ATOM     18  H   UNL     1      -6.113  -4.510   1.228  0.00  0.00    +0.145 HD
ATOM     19  H   UNL     1      -4.748  -5.463   2.155  0.00  0.00    +0.145 HD
ENDBRANCH  13  15
ENDBRANCH   1  12
BRANCH   2  20
ATOM     20  C   UNL     1      -0.184  -2.691  -0.009  0.00  0.00    +0.094 A 
ATOM     21  C   UNL     1       1.062  -2.141  -0.019  0.00  0.00    +0.068 A 
ATOM     22  C   UNL     1       1.210  -0.741  -0.013  0.00  0.00    +0.010 A 
ATOM     23  C   UNL     1       2.410   0.015  -0.021  0.00  0.00    +0.010 A 
ATOM     24  C   UNL     1       2.376   1.372  -0.014  0.00  0.00    +0.003 A 
ATOM     25  C   UNL     1       1.175   2.071   0.002  0.00  0.00    +0.034 A 
ATOM     26  C   UNL     1      -0.017   1.375   0.010  0.00  0.00    +0.140 A 
ATOM     27  C   UNL     1       0.002  -0.004   0.002  0.00  0.00    +0.052 A 
ATOM     28  S   UNL     1      -1.251  -1.261   0.008  0.00  0.00    -0.080 S 
ATOM     29 CL   UNL     1       2.464  -3.164  -0.038  0.00  0.00    -0.082 Cl
BRANCH  26  30
ATOM     30  N   UNL     1      -1.306   2.103   0.020  0.00  0.00    +0.058 N 
ATOM     31  O   UNL     1      -1.317   3.320   0.026  0.00  0.00    -0.126 OA
ATOM     32  O   UNL     1      -2.354   1.484   0.021  0.00  0.00    -0.126 OA
ENDBRANCH  26  30
ENDBRANCH   2  20
TORSDOF 4
