REMARK  Name = ZINC09182533
REMARK  10 active torsions:
REMARK  status: ('A' for Active; 'I' for Inactive)
REMARK    1  A    between atoms: C_1  and  C_2
REMARK    2  A    between atoms: C_5  and  C_34
REMARK    3  A    between atoms: N_8  and  S_10
REMARK    4  A    between atoms: S_10  and  C_13
REMARK    5  A    between atoms: C_16  and  C_19
REMARK    6  A    between atoms: C_19  and  O_21
REMARK    7  A    between atoms: O_21  and  C_22
REMARK    8  A    between atoms: C_22  and  C_24
REMARK    9  A    between atoms: C_22  and  C_25
REMARK   10  A    between atoms: N_27  and  C_28
REMARK                            x       y       z     vdW  Elec       q    Type
REMARK                         _______ _______ _______ _____ _____    ______ ____
ROOT
ATOM      1  C   UNL     1       2.547  -3.268  -0.217  0.00  0.00    +0.106 A 
ATOM      2  C   UNL     1       2.077  -4.392  -0.873  0.00  0.00    +0.029 A 
ATOM      3  C   UNL     1       2.502  -4.676  -2.154  0.00  0.00    +0.017 A 
ATOM      4  C   UNL     1       3.409  -3.825  -2.790  0.00  0.00    +0.059 A 
ATOM      5  C   UNL     1       3.879  -2.692  -2.122  0.00  0.00    +0.017 A 
ATOM      6  C   UNL     1       3.441  -2.418  -0.843  0.00  0.00    +0.029 A 
ENDROOT
BRANCH   1   7
ATOM      7  S   UNL     1       1.999  -2.914   1.419  0.00  0.00    +0.061 S 
ATOM      8  O   UNL     1       2.998  -2.098   2.015  0.00  0.00    -0.153 OA
ATOM      9  O   UNL     1       1.587  -4.150   1.986  0.00  0.00    -0.153 OA
BRANCH   7  15
ATOM     10  C   UNL     1      -0.019   1.526   0.010  0.00  0.00    +0.009 C 
ATOM     11  C   UNL     1       0.002  -0.004   0.002  0.00  0.00    +0.002 C 
ATOM     12  C   UNL     1      -1.433  -0.534   0.015  0.00  0.00    +0.009 C 
ATOM     13  C   UNL     1      -1.414  -2.064  -0.027  0.00  0.00    +0.002 C 
ATOM     14  C   UNL     1      -0.692  -2.596   1.215  0.00  0.00    +0.112 C 
ATOM     15  N   UNL     1       0.639  -1.977   1.288  0.00  0.00    -0.176 NA
ATOM     16  C   UNL     1       0.742  -0.512   1.244  0.00  0.00    +0.112 C 
ATOM     17  C   UNL     1      -0.680  -2.532  -1.285  0.00  0.00    +0.009 C 
ENDBRANCH   7  15
ENDBRANCH   1   7
BRANCH   4  18
ATOM     18  C   UNL     1       3.869  -4.122  -4.162  0.00  0.00    +0.340 C 
ATOM     19  O   UNL     1       3.458  -5.108  -4.739  0.00  0.00    -0.245 OA
BRANCH  18  20
ATOM     20  O   UNL     1       4.743  -3.299  -4.772  0.00  0.00    -0.449 OA
BRANCH  20  21
ATOM     21  C   UNL     1       5.145  -3.648  -6.098  0.00  0.00    +0.259 C 
ATOM     22  C   UNL     1       4.192  -3.002  -7.106  0.00  0.00    +0.062 C 
BRANCH  21  23
ATOM     23  C   UNL     1       6.547  -3.153  -6.345  0.00  0.00    +0.254 C 
ATOM     24  O   UNL     1       7.143  -2.560  -5.471  0.00  0.00    -0.272 OA
ATOM     25  N   UNL     1       7.138  -3.369  -7.537  0.00  0.00    -0.309 N 
ATOM     26  H   UNL     1       6.661  -3.843  -8.236  0.00  0.00    +0.149 HD
BRANCH  25  27
ATOM     27  C   UNL     1       8.501  -2.888  -7.777  0.00  0.00    +0.073 C 
ATOM     28  C   UNL     1       8.453  -1.427  -8.230  0.00  0.00    +0.022 C 
ATOM     29  C   UNL     1       9.877  -0.924  -8.481  0.00  0.00    +0.002 C 
ATOM     30  C   UNL     1      10.534  -1.776  -9.569  0.00  0.00    +0.000 C 
ATOM     31  C   UNL     1      10.581  -3.236  -9.115  0.00  0.00    +0.002 C 
ATOM     32  C   UNL     1       9.158  -3.739  -8.865  0.00  0.00    +0.022 C 
ENDBRANCH  25  27
ENDBRANCH  21  23
ENDBRANCH  20  21
ENDBRANCH  18  20
ENDBRANCH   4  18
TORSDOF 7
