REMARK  Name = ZINC36313918
REMARK  19 active torsions:
REMARK  status: ('A' for Active; 'I' for Inactive)
REMARK    1  A    between atoms: C_1  and  C_2
REMARK    2  A    between atoms: C_2  and  C_3
REMARK    3  A    between atoms: C_3  and  C_4
REMARK    4  A    between atoms: C_4  and  O_5
REMARK    5  A    between atoms: O_5  and  C_6
REMARK    6  A    between atoms: C_6  and  C_7
REMARK    7  A    between atoms: C_7  and  C_9
REMARK    8  A    between atoms: C_7  and  O_39
REMARK    9  A    between atoms: C_9  and  N_10
REMARK   10  A    between atoms: N_10  and  C_11
REMARK   11  A    between atoms: N_10  and  C_17
REMARK   12  A    between atoms: C_11  and  C_12
REMARK   13  A    between atoms: C_17  and  C_18
REMARK   14  A    between atoms: C_19  and  C_38
REMARK   15  A    between atoms: N_21  and  C_32
REMARK   16  A    between atoms: C_22  and  O_23
REMARK   17  A    between atoms: O_23  and  C_24
REMARK   18  A    between atoms: C_27  and  O_30
REMARK   19  A    between atoms: O_30  and  C_31
REMARK                            x       y       z     vdW  Elec       q    Type
REMARK                         _______ _______ _______ _____ _____    ______ ____
ROOT
ATOM      1  C   UNL     1       3.543  -8.246  -6.706  0.00  0.00    +0.021 A 
ATOM      2  C   UNL     1       3.151  -8.151  -8.045  0.00  0.00    +0.065 A 
ATOM      3  N   UNL     1       4.181  -8.437  -8.799  0.00  0.00    -0.168 NA
ATOM      4  N   UNL     1       5.271  -8.725  -7.968  0.00  0.00    -0.200 N 
ATOM      5  C   UNL     1       4.857  -8.596  -6.679  0.00  0.00    +0.225 A 
ATOM      6  C   UNL     1       1.775  -7.782  -8.536  0.00  0.00    +0.068 C 
ENDROOT
BRANCH   4   7
ATOM      7  C   UNL     1       6.561  -9.079  -8.389  0.00  0.00    +0.069 A 
ATOM      8  C   UNL     1       7.671  -8.591  -7.714  0.00  0.00    +0.028 A 
ATOM      9  C   UNL     1       8.941  -8.941  -8.132  0.00  0.00    +0.002 A 
ATOM     10  C   UNL     1       9.105  -9.777  -9.221  0.00  0.00    +0.000 A 
ATOM     11  C   UNL     1       8.001 -10.264  -9.896  0.00  0.00    +0.002 A 
ATOM     12  C   UNL     1       6.729  -9.922  -9.479  0.00  0.00    +0.028 A 
ENDBRANCH   4   7
BRANCH   5  13
ATOM     13  O   UNL     1       5.615  -8.785  -5.569  0.00  0.00    -0.438 OA
BRANCH  13  14
ATOM     14  C   UNL     1       5.765 -10.055  -5.108  0.00  0.00    +0.131 A 
ATOM     15  C   UNL     1       5.245 -11.121  -5.828  0.00  0.00    +0.050 A 
ATOM     16  C   UNL     1       5.398 -12.411  -5.360  0.00  0.00    +0.049 A 
ATOM     17  C   UNL     1       6.071 -12.642  -4.169  0.00  0.00    +0.120 A 
ATOM     18  C   UNL     1       6.591 -11.576  -3.449  0.00  0.00    +0.049 A 
ATOM     19  C   UNL     1       6.444 -10.286  -3.921  0.00  0.00    +0.050 A 
BRANCH  17  20
ATOM     20  O   UNL     1       6.221 -13.912  -3.708  0.00  0.00    -0.495 OA
ATOM     21  C   UNL     1       6.926 -14.075  -2.475  0.00  0.00    +0.277 C 
ENDBRANCH  17  20
ENDBRANCH  13  14
ENDBRANCH   5  13
BRANCH   1  22
ATOM     22  C   UNL     1       2.667  -7.998  -5.505  0.00  0.00    -0.035 C 
BRANCH  22  23
ATOM     23  N   UNL     1       2.739  -6.579  -5.131  0.00  0.00    +0.389 N 
ATOM     24  H   UNL     1       3.698  -6.329  -4.943  0.00  0.00    -0.081 HD
BRANCH  23  25
ATOM     25  C   UNL     1       2.226  -5.755  -6.234  0.00  0.00    -0.003 C 
BRANCH  25  26
ATOM     26  C   UNL     1       2.399  -4.297  -5.895  0.00  0.00    +0.089 A 
ATOM     27  C   UNL     1       3.437  -3.522  -6.260  0.00  0.00    +0.042 A 
ATOM     28  C   UNL     1       3.192  -2.234  -5.730  0.00  0.00    +0.041 A 
ATOM     29  C   UNL     1       2.020  -2.299  -5.074  0.00  0.00    +0.195 A 
ATOM     30  O   UNL     1       1.542  -3.549  -5.181  0.00  0.00    -0.470 OA
ENDBRANCH  25  26
ENDBRANCH  23  25
BRANCH  23  31
ATOM     31  C   UNL     1       1.927  -6.348  -3.929  0.00  0.00    -0.044 C 
BRANCH  31  32
ATOM     32  C   UNL     1       2.568  -7.060  -2.736  0.00  0.00    +0.124 C 
BRANCH  32  33
ATOM     33  O   UNL     1       2.478  -8.474  -2.922  0.00  0.00    -0.391 OA
ATOM     34  H   UNL     1       1.572  -8.804  -2.998  0.00  0.00    +0.210 HD
ENDBRANCH  32  33
BRANCH  32  35
ATOM     35  C   UNL     1       1.835  -6.666  -1.453  0.00  0.00    +0.189 C 
BRANCH  35  36
ATOM     36  O   UNL     1       2.504  -7.239  -0.327  0.00  0.00    -0.377 OA
BRANCH  36  37
ATOM     37  C   UNL     1       1.896  -6.930   0.929  0.00  0.00    +0.160 C 
BRANCH  37  38
ATOM     38  C   UNL     1       2.692  -7.591   2.056  0.00  0.00    +0.028 C 
BRANCH  38  40
ATOM     39  C   UNL     1       2.837  -7.922   4.529  0.00  0.00    +0.004 C 
ATOM     40  C   UNL     1       2.041  -7.261   3.401  0.00  0.00    -0.001 C 
ENDBRANCH  38  40
ENDBRANCH  37  38
ENDBRANCH  36  37
ENDBRANCH  35  36
ENDBRANCH  32  35
ENDBRANCH  31  32
ENDBRANCH  23  31
ENDBRANCH  22  23
ENDBRANCH   1  22
TORSDOF 16
