REMARK  Name = ZINC45091646
REMARK  10 active torsions:
REMARK  status: ('A' for Active; 'I' for Inactive)
REMARK    1  A    between atoms: C_1  and  C_2
REMARK    2  A    between atoms: C_6  and  C_25
REMARK    3  A    between atoms: C_8  and  O_11
REMARK    4  A    between atoms: O_11  and  C_12
REMARK    5  A    between atoms: C_12  and  C_14
REMARK    6  A    between atoms: C_14  and  S_15
REMARK    7  A    between atoms: S_15  and  C_16
REMARK    8  A    between atoms: N_20  and  C_21
REMARK    9  A    between atoms: C_25  and  C_26
REMARK   10  A    between atoms: C_25  and  C_27
REMARK                            x       y       z     vdW  Elec       q    Type
REMARK                         _______ _______ _______ _____ _____    ______ ____
ROOT
ATOM      1  C   UNL     1       2.735  -3.099   2.216  0.00  0.00    +0.318 C 
ATOM      2  O   UNL     1       3.299  -2.891   1.168  0.00  0.00    -0.250 OA
ENDROOT
BRANCH   1   3
ATOM      3  O   UNL     1       1.401  -2.970   2.298  0.00  0.00    -0.460 OA
BRANCH   3   9
ATOM      4  C   UNL     1      -0.201   0.884  -0.298  0.00  0.00    +0.007 C 
ATOM      5  C   UNL     1      -0.112  -0.642  -0.233  0.00  0.00    -0.011 C 
ATOM      6  C   UNL     1      -1.523  -1.235  -0.223  0.00  0.00    +0.004 C 
ATOM      7  C   UNL     1      -1.434  -2.761  -0.158  0.00  0.00    +0.007 C 
ATOM      8  C   UNL     1      -0.697  -3.175   1.117  0.00  0.00    +0.032 C 
ATOM      9  C   UNL     1       0.713  -2.583   1.107  0.00  0.00    +0.180 C 
ATOM     10  C   UNL     1       0.624  -1.056   1.042  0.00  0.00    +0.048 C 
BRANCH   8  11
ATOM     11  C   UNL     1      -0.609  -4.701   1.182  0.00  0.00    -0.011 C 
ATOM     12  C   UNL     1      -2.014  -5.288   1.335  0.00  0.00    +0.007 C 
ATOM     13  C   UNL     1       0.028  -5.230  -0.105  0.00  0.00    +0.007 C 
ENDBRANCH   8  11
ENDBRANCH   3   9
ENDBRANCH   1   3
BRANCH   1  14
ATOM     14  C   UNL     1       3.528  -3.505   3.432  0.00  0.00    +0.197 C 
BRANCH  14  15
ATOM     15  S   UNL     1       5.289  -3.592   3.003  0.00  0.00    -0.075 S 
BRANCH  15  16
ATOM     16  C   UNL     1       6.071  -4.071   4.508  0.00  0.00    +0.194 A 
ATOM     17  N   UNL     1       5.468  -4.305   5.649  0.00  0.00    -0.121 NA
ATOM     18  N   UNL     1       6.445  -4.658   6.589  0.00  0.00    -0.113 NA
ATOM     19  C   UNL     1       7.611  -4.628   5.992  0.00  0.00    +0.215 A 
ATOM     20  N   UNL     1       7.410  -4.270   4.689  0.00  0.00    -0.288 N 
ATOM     21  N   UNL     1       8.837  -4.916   6.580  0.00  0.00    -0.328 N 
ATOM     22  H   UNL     1       8.872  -5.237   7.495  0.00  0.00    +0.145 HD
ATOM     23  H   UNL     1       9.656  -4.796   6.075  0.00  0.00    +0.145 HD
BRANCH  20  24
ATOM     24  C   UNL     1       8.449  -4.121   3.667  0.00  0.00    +0.093 C 
ATOM     25  C   UNL     1       8.096  -3.320   2.412  0.00  0.00    +0.027 C 
ATOM     26  C   UNL     1       8.237  -4.841   2.334  0.00  0.00    +0.027 C 
ENDBRANCH  20  24
ENDBRANCH  15  16
ENDBRANCH  14  15
ENDBRANCH   1  14
TORSDOF 7
