REMARK  Name = ZINC04044448
REMARK  9 active torsions:
REMARK  status: ('A' for Active; 'I' for Inactive)
REMARK    1  A    between atoms: C_1  and  C_2
REMARK    2  A    between atoms: C_17  and  C_36
REMARK    3  A    between atoms: C_22  and  C_23
REMARK    4  A    between atoms: C_22  and  O_35
REMARK    5  A    between atoms: C_23  and  N_24
REMARK    6  A    between atoms: C_25  and  C_26
REMARK    7  A    between atoms: C_30  and  O_33
REMARK    8  A    between atoms: C_31  and  O_32
REMARK    9  A    between atoms: O_33  and  C_34
REMARK                            x       y       z     vdW  Elec       q    Type
REMARK                         _______ _______ _______ _____ _____    ______ ____
ROOT
ATOM      1  C   UNL     1       0.781   2.861  -0.822  0.00  0.00    +0.012 C 
ATOM      2  C   UNL     1       0.522   1.419  -0.381  0.00  0.00    -0.026 C 
ATOM      3  C   UNL     1      -0.976   1.222  -0.141  0.00  0.00    +0.007 C 
ATOM      4  C   UNL     1      -1.448   2.182   0.953  0.00  0.00    +0.001 C 
ATOM      5  C   UNL     1      -0.684   1.895   2.248  0.00  0.00    +0.000 C 
ATOM      6  C   UNL     1       0.814   2.094   2.009  0.00  0.00    +0.004 C 
ATOM      7  C   UNL     1       1.288   1.137   0.913  0.00  0.00    -0.005 C 
ATOM      8  C   UNL     1       1.030  -0.307   1.348  0.00  0.00    +0.004 C 
ATOM      9  C   UNL     1       1.524  -1.259   0.257  0.00  0.00    +0.004 C 
ATOM     10  C   UNL     1       0.769  -0.984  -1.047  0.00  0.00    -0.004 C 
ATOM     11  C   UNL     1       0.990   0.461  -1.475  0.00  0.00    -0.001 C 
ATOM     12  C   UNL     1       2.487   0.659  -1.733  0.00  0.00    +0.005 C 
ATOM     13  C   UNL     1       2.896  -0.231  -2.904  0.00  0.00    +0.010 C 
ATOM     14  C   UNL     1       2.667  -1.708  -2.578  0.00  0.00    +0.001 C 
ATOM     15  C   UNL     1       1.239  -1.934  -2.126  0.00  0.00    +0.001 C 
ATOM     16  C   UNL     1       0.424  -1.800  -3.426  0.00  0.00    +0.007 C 
ATOM     17  C   UNL     1       1.325  -2.478  -4.484  0.00  0.00    +0.037 C 
ATOM     18  C   UNL     1       2.729  -2.474  -3.927  0.00  0.00    +0.089 C 
ATOM     19  C   UNL     1       3.700  -2.231  -1.578  0.00  0.00    +0.014 C 
ENDROOT
BRANCH  18  20
ATOM     20  O   UNL     1       3.578  -1.782  -4.845  0.00  0.00    -0.386 OA
ATOM     21  H   UNL     1       3.658  -2.213  -5.708  0.00  0.00    +0.210 HD
ENDBRANCH  18  20
BRANCH  18  22
ATOM     22  C   UNL     1       3.248  -3.896  -3.700  0.00  0.00    +0.147 C 
BRANCH  22  23
ATOM     23  N   UNL     1       3.301  -4.606  -4.981  0.00  0.00    -0.387 N 
ATOM     24  C   UNL     1       4.441  -4.981  -5.466  0.00  0.00    +0.090 C 
ATOM     25  H   UNL     1       2.483  -4.795  -5.465  0.00  0.00    +0.159 HD
BRANCH  24  26
ATOM     26  C   UNL     1       4.513  -5.557  -6.820  0.00  0.00    +0.036 A 
ATOM     27  C   UNL     1       5.719  -6.074  -7.301  0.00  0.00    +0.013 A 
ATOM     28  C   UNL     1       5.782  -6.612  -8.568  0.00  0.00    +0.004 A 
ATOM     29  C   UNL     1       4.653  -6.644  -9.371  0.00  0.00    +0.049 A 
ATOM     30  C   UNL     1       3.451  -6.135  -8.909  0.00  0.00    +0.162 A 
ATOM     31  C   UNL     1       3.371  -5.594  -7.630  0.00  0.00    +0.167 A 
BRANCH  31  32
ATOM     32  O   UNL     1       2.192  -5.100  -7.171  0.00  0.00    -0.503 OA
ATOM     33  H   UNL     1       2.057  -4.162  -7.365  0.00  0.00    +0.292 HD
ENDBRANCH  31  32
BRANCH  30  34
ATOM     34  O   UNL     1       2.348  -6.170  -9.703  0.00  0.00    -0.491 OA
ATOM     35  C   UNL     1       2.501  -6.745 -11.002  0.00  0.00    +0.277 C 
ENDBRANCH  30  34
ENDBRANCH  24  26
ENDBRANCH  22  23
ENDBRANCH  18  22
TORSDOF 6
