REMARK  Name = ZINC64158229
REMARK  4 active torsions:
REMARK  status: ('A' for Active; 'I' for Inactive)
REMARK    1  A    between atoms: C_1  and  N_2
REMARK    2  A    between atoms: C_10  and  C_12
REMARK    3  A    between atoms: N_26  and  C_27
REMARK    4  A    between atoms: C_27  and  C_28
REMARK                            x       y       z     vdW  Elec       q    Type
REMARK                         _______ _______ _______ _____ _____    ______ ____
ROOT
ATOM      1  C   UNL     1       1.255  -0.676   1.971  0.00  0.00    -0.002 C 
ATOM      2  C   UNL     1       2.497  -1.089   1.177  0.00  0.00    +0.096 C 
ATOM      3  C   UNL     1       3.686  -0.865   2.104  0.00  0.00    -0.042 C 
ATOM      4  C   UNL     1       4.539  -0.097   1.442  0.00  0.00    -0.001 A 
ATOM      5  C   UNL     1       5.891   0.382   1.771  0.00  0.00    +0.010 A 
ATOM      6  C   UNL     1       6.485   1.183   0.848  0.00  0.00    +0.001 A 
ATOM      7  C   UNL     1       5.877   1.553  -0.355  0.00  0.00    +0.002 A 
ATOM      8  C   UNL     1       4.639   1.156  -0.743  0.00  0.00    +0.026 A 
ATOM      9  C   UNL     1       3.917   0.304   0.142  0.00  0.00    +0.043 A 
ATOM     10  N   UNL     1       2.725  -0.245   0.006  0.00  0.00    -0.379 N 
ATOM     11  C   UNL     1       3.695  -1.395   3.518  0.00  0.00    +0.015 C 
ATOM     12  C   UNL     1       2.334  -1.010   4.126  0.00  0.00    -0.073 C 
ATOM     13  N   UNL     1       1.245  -1.423   3.238  0.00  0.00    +0.388 N 
ATOM     14  H   UNL     1       2.107  -0.116  -0.730  0.00  0.00    +0.160 HD
ATOM     15  H   UNL     1       1.339  -2.408   3.040  0.00  0.00    -0.081 HD
ENDROOT
BRANCH   1  25
ATOM     16  C   UNL     1      -0.041   1.221  -0.204  0.00  0.00    +0.131 C 
ATOM     17  N   UNL     1      -0.024  -0.239  -0.083  0.00  0.00    -0.315 N 
ATOM     18  C   UNL     1      -0.018  -1.160  -1.140  0.00  0.00    +0.052 A 
ATOM     19  C   UNL     1      -0.026  -0.957  -2.514  0.00  0.00    +0.025 A 
ATOM     20  C   UNL     1      -0.017  -2.037  -3.376  0.00  0.00    +0.002 A 
ATOM     21  C   UNL     1      -0.001  -3.325  -2.874  0.00  0.00    +0.002 A 
ATOM     22  C   UNL     1       0.007  -3.537  -1.509  0.00  0.00    +0.025 A 
ATOM     23  C   UNL     1      -0.001  -2.457  -0.634  0.00  0.00    +0.050 A 
ATOM     24  N   UNL     1       0.004  -2.420   0.767  0.00  0.00    -0.326 N 
ATOM     25  C   UNL     1      -0.004  -1.008   1.167  0.00  0.00    +0.147 C 
ATOM     26  H   UNL     1       0.015  -3.186   1.362  0.00  0.00    +0.148 HD
ENDBRANCH   1  25
BRANCH  13  27
ATOM     27  C   UNL     1      -0.038  -1.196   3.917  0.00  0.00    -0.040 C 
BRANCH  27  28
ATOM     28  C   UNL     1      -0.091  -2.016   5.180  0.00  0.00    -0.038 A 
ATOM     29  C   UNL     1      -0.766  -3.198   5.199  0.00  0.00    +0.004 A 
ATOM     30  C   UNL     1      -0.827  -3.972   6.356  0.00  0.00    +0.001 A 
ATOM     31  C   UNL     1      -0.212  -3.566   7.502  0.00  0.00    +0.010 A 
ATOM     32  C   UNL     1       0.493  -2.352   7.518  0.00  0.00    +0.001 A 
ATOM     33  C   UNL     1       0.561  -1.566   6.341  0.00  0.00    +0.072 A 
ATOM     34  N   UNL     1       1.235  -0.411   6.350  0.00  0.00    -0.255 NA
ATOM     35  C   UNL     1       1.845   0.013   7.430  0.00  0.00    +0.111 A 
ATOM     36  C   UNL     1       1.822  -0.714   8.619  0.00  0.00    +0.020 A 
ATOM     37  C   UNL     1       1.141  -1.897   8.681  0.00  0.00    +0.011 A 
ENDBRANCH  27  28
ENDBRANCH  13  27
TORSDOF 3
