REMARK  Name = ZINC08445415
REMARK  6 active torsions:
REMARK  status: ('A' for Active; 'I' for Inactive)
REMARK    1  A    between atoms: C_4  and  N_7
REMARK    2  A    between atoms: C_16  and  C_27
REMARK    3  A    between atoms: C_16  and  C_31
REMARK    4  A    between atoms: C_17  and  C_19
REMARK    5  A    between atoms: C_19  and  C_20
REMARK    6  A    between atoms: C_20  and  C_21
REMARK                            x       y       z     vdW  Elec       q    Type
REMARK                         _______ _______ _______ _____ _____    ______ ____
ROOT
ATOM      1  N   UNL     1       2.096  -1.598  -0.090  0.00  0.00    -0.250 N 
ATOM      2  C   UNL     1       1.433  -0.661   0.665  0.00  0.00    +0.124 A 
ATOM      3  C   UNL     1       0.175  -0.273   0.308  0.00  0.00    +0.098 A 
ATOM      4  C   UNL     1      -0.414  -0.839  -0.835  0.00  0.00    +0.262 A 
ATOM      5  O   UNL     1      -1.536  -0.506  -1.178  0.00  0.00    -0.267 OA
ATOM      6  N   UNL     1       0.271  -1.754  -1.550  0.00  0.00    -0.274 N 
ATOM      7  H   UNL     1      -0.145  -2.159  -2.365  0.00  0.00    +0.173 HD
ATOM      8  C   UNL     1       1.509  -2.127  -1.180  0.00  0.00    +0.335 A 
ATOM      9  O   UNL     1       2.107  -2.956  -1.839  0.00  0.00    -0.246 OA
ATOM     10  C   UNL     1      -0.570   0.744   1.124  0.00  0.00    +0.264 C 
ATOM     11  C   UNL     1       1.512   1.054   2.304  0.00  0.00    +0.074 C 
ATOM     12  N   UNL     1       2.024  -0.104   1.775  0.00  0.00    -0.290 N 
ATOM     13  H   UNL     1       2.798  -0.526   2.180  0.00  0.00    +0.155 HD
ATOM     14  N   UNL     1       0.302   1.542   2.057  0.00  0.00    -0.352 N 
ATOM     15  H   UNL     1      -0.022   2.420   2.481  0.00  0.00    +0.162 HD
ENDROOT
BRANCH   1  19
ATOM     16  C   UNL     1       5.934  -2.804   0.999  0.00  0.00    +0.000 A 
ATOM     17  C   UNL     1       4.833  -3.490   1.479  0.00  0.00    +0.002 A 
ATOM     18  C   UNL     1       3.560  -3.092   1.120  0.00  0.00    +0.026 A 
ATOM     19  C   UNL     1       3.386  -2.004   0.276  0.00  0.00    +0.053 A 
ATOM     20  C   UNL     1       4.494  -1.321  -0.209  0.00  0.00    +0.026 A 
ATOM     21  C   UNL     1       5.764  -1.719   0.158  0.00  0.00    +0.002 A 
ENDBRANCH   1  19
BRANCH  10  22
ATOM     22  C   UNL     1      -1.247   1.744   0.184  0.00  0.00    +0.426 C 
ATOM     23  F   UNL     1      -2.371   1.148  -0.399  0.00  0.00    -0.167 F 
ATOM     24  F   UNL     1      -1.640   2.873   0.909  0.00  0.00    -0.167 F 
ATOM     25  F   UNL     1      -0.348   2.123  -0.819  0.00  0.00    -0.167 F 
ENDBRANCH  10  22
BRANCH  10  26
ATOM     26  C   UNL     1      -1.641   0.034   1.954  0.00  0.00    +0.426 C 
ATOM     27  F   UNL     1      -1.032  -0.896   2.804  0.00  0.00    -0.167 F 
ATOM     28  F   UNL     1      -2.339   0.976   2.718  0.00  0.00    -0.167 F 
ATOM     29  F   UNL     1      -2.531  -0.626   1.101  0.00  0.00    -0.167 F 
ENDBRANCH  10  26
BRANCH  11  30
ATOM     30  C   UNL     1       2.360   1.867   3.248  0.00  0.00    +0.070 C 
BRANCH  30  31
ATOM     31  C   UNL     1       1.579   3.102   3.701  0.00  0.00    +0.011 C 
BRANCH  31  32
ATOM     32  C   UNL     1       2.440   3.927   4.659  0.00  0.00    -0.011 C 
ATOM     33  C   UNL     1       2.700   3.122   5.934  0.00  0.00    +0.003 C 
ATOM     34  C   UNL     1       3.562   3.948   6.891  0.00  0.00    +0.000 C 
ATOM     35  C   UNL     1       2.831   5.244   7.247  0.00  0.00    +0.000 C 
ATOM     36  C   UNL     1       2.571   6.049   5.972  0.00  0.00    +0.000 C 
ATOM     37  C   UNL     1       1.709   5.223   5.014  0.00  0.00    +0.003 C 
ENDBRANCH  31  32
ENDBRANCH  30  31
ENDBRANCH  11  30
TORSDOF 6
