REMARK  Name = ZINC22746413
REMARK  10 active torsions:
REMARK  status: ('A' for Active; 'I' for Inactive)
REMARK    1  A    between atoms: C_1  and  C_2
REMARK    2  A    between atoms: C_7  and  N_12
REMARK    3  A    between atoms: C_9  and  C_11
REMARK    4  A    between atoms: C_13  and  C_15
REMARK    5  A    between atoms: C_15  and  C_17
REMARK    6  A    between atoms: C_15  and  S_18
REMARK    7  A    between atoms: S_18  and  C_19
REMARK    8  A    between atoms: C_22  and  C_31
REMARK    9  A    between atoms: N_23  and  C_24
REMARK   10  A    between atoms: C_24  and  C_25
REMARK                            x       y       z     vdW  Elec       q    Type
REMARK                         _______ _______ _______ _____ _____    ______ ____
ROOT
ATOM      1  C   UNL     1      -9.360   1.798   3.217  0.00  0.00    +0.193 A 
ATOM      2  N   UNL     1      -9.439   0.518   2.939  0.00  0.00    -0.122 NA
ATOM      3  N   UNL     1     -10.651   0.111   3.069  0.00  0.00    -0.128 NA
ATOM      4  C   UNL     1     -11.422   1.109   3.439  0.00  0.00    +0.167 A 
ATOM      5  N   UNL     1     -10.618   2.219   3.551  0.00  0.00    -0.300 N 
ENDROOT
BRANCH   4   6
ATOM      6  C   UNL     1     -12.876   1.048   3.693  0.00  0.00    +0.044 A 
ATOM      7  C   UNL     1     -13.535   1.564   4.762  0.00  0.00    +0.095 A 
ATOM      8  N   UNL     1     -14.871   1.310   4.646  0.00  0.00    -0.360 N 
ATOM      9  H   UNL     1     -15.566   1.656   5.425  0.00  0.00    +0.165 HD
ATOM     10  C   UNL     1     -15.123   0.612   3.484  0.00  0.00    +0.047 A 
ATOM     11  C   UNL     1     -13.893   0.421   2.833  0.00  0.00    +0.010 A 
ATOM     12  C   UNL     1     -13.846  -0.258   1.616  0.00  0.00    +0.011 A 
ATOM     13  C   UNL     1     -15.010  -0.736   1.057  0.00  0.00    +0.001 A 
ATOM     14  C   UNL     1     -16.226  -0.544   1.698  0.00  0.00    +0.002 A 
ATOM     15  C   UNL     1     -16.287   0.119   2.904  0.00  0.00    +0.026 A 
ENDBRANCH   4   6
BRANCH   1  16
ATOM     16  S   UNL     1      -7.903   2.788   3.175  0.00  0.00    -0.074 S 
BRANCH  16  17
ATOM     17  C   UNL     1      -6.692   1.544   2.666  0.00  0.00    +0.137 C 
ATOM     18  C   UNL     1      -6.559   0.484   3.761  0.00  0.00    +0.029 C 
BRANCH  17  20
ATOM     19  N   UNL     1      -4.457   1.643   1.609  0.00  0.00    -0.311 N 
ATOM     20  C   UNL     1      -5.356   2.205   2.442  0.00  0.00    +0.226 C 
ATOM     21  O   UNL     1      -5.090   3.243   3.010  0.00  0.00    -0.275 OA
ATOM     22  H   UNL     1      -4.699   0.702   1.093  0.00  0.00    +0.149 HD
BRANCH  19  28
ATOM     23  C   UNL     1      -0.693   2.115  -1.561  0.00  0.00    +0.008 C 
ATOM     24  C   UNL     1      -1.248   2.536  -0.199  0.00  0.00    -0.009 C 
ATOM     25  C   UNL     1      -0.276   2.108   0.903  0.00  0.00    +0.003 C 
ATOM     26  C   UNL     1      -0.831   2.529   2.265  0.00  0.00    +0.002 C 
ATOM     27  C   UNL     1      -2.187   1.858   2.492  0.00  0.00    +0.022 C 
ATOM     28  C   UNL     1      -3.159   2.286   1.391  0.00  0.00    +0.076 C 
ATOM     29  C   UNL     1      -2.604   1.865   0.029  0.00  0.00    +0.009 C 
ATOM     30  C   UNL     1      -2.432   0.345  -0.004  0.00  0.00    +0.009 C 
ENDBRANCH  19  28
ENDBRANCH  17  20
ENDBRANCH  16  17
ENDBRANCH   1  16
BRANCH   5  31
ATOM     31  C   UNL     1     -11.024   3.571   3.944  0.00  0.00    +0.157 C 
BRANCH  31  32
ATOM     32  C   UNL     1     -11.300   4.405   2.692  0.00  0.00    +0.138 C 
ATOM     33  C   UNL     1     -11.609   5.868   3.077  0.00  0.00    +0.035 C 
ATOM     34  C   UNL     1     -12.706   6.296   2.077  0.00  0.00    +0.031 C 
ATOM     35  C   UNL     1     -12.931   5.041   1.206  0.00  0.00    +0.160 C 
ATOM     36  O   UNL     1     -12.496   3.937   2.030  0.00  0.00    -0.375 OA
ENDBRANCH  31  32
ENDBRANCH   5  31
TORSDOF 7
