REMARK  Name = ZINC25955488
REMARK  9 active torsions:
REMARK  status: ('A' for Active; 'I' for Inactive)
REMARK    1  A    between atoms: C_1  and  C_2
REMARK    2  A    between atoms: C_2  and  C_4
REMARK    3  A    between atoms: C_2  and  S_18
REMARK    4  A    between atoms: C_9  and  C_12
REMARK    5  A    between atoms: S_18  and  C_19
REMARK    6  A    between atoms: C_22  and  C_29
REMARK    7  A    between atoms: N_23  and  C_24
REMARK    8  A    between atoms: C_24  and  C_25
REMARK    9  A    between atoms: C_25  and  C_26
REMARK                            x       y       z     vdW  Elec       q    Type
REMARK                         _______ _______ _______ _____ _____    ______ ____
ROOT
ATOM      1  S   UNL     1      -1.700  -0.632   0.015  0.00  0.00    -0.074 S 
ENDROOT
BRANCH   1   2
ATOM      2  C   UNL     1      -2.335  -0.110   1.573  0.00  0.00    +0.193 A 
ATOM      3  N   UNL     1      -1.690   0.581   2.486  0.00  0.00    -0.122 NA
ATOM      4  N   UNL     1      -2.448   0.791   3.501  0.00  0.00    -0.125 NA
ATOM      5  C   UNL     1      -3.628   0.245   3.300  0.00  0.00    +0.200 A 
ATOM      6  N   UNL     1      -3.592  -0.344   2.055  0.00  0.00    -0.299 N 
BRANCH   5   7
ATOM      7  C   UNL     1      -4.771   0.265   4.227  0.00  0.00    +0.172 A 
ATOM      8  C   UNL     1      -4.911   1.083   5.307  0.00  0.00    +0.053 A 
ATOM      9  C   UNL     1      -6.146   0.763   5.901  0.00  0.00    +0.042 A 
ATOM     10  C   UNL     1      -6.695  -0.224   5.165  0.00  0.00    +0.196 A 
ATOM     11  O   UNL     1      -5.864  -0.519   4.151  0.00  0.00    -0.460 OA
ENDBRANCH   5   7
BRANCH   6  12
ATOM     12  C   UNL     1      -4.675  -1.072   1.389  0.00  0.00    +0.135 C 
BRANCH  12  13
ATOM     13  C   UNL     1      -4.594  -2.555   1.756  0.00  0.00    +0.117 C 
BRANCH  13  14
ATOM     14  C   UNL     1      -5.708  -3.304   1.071  0.00  0.00    +0.212 C 
ATOM     15  O   UNL     1      -6.489  -2.710   0.358  0.00  0.00    -0.276 OA
ATOM     16  N   UNL     1      -5.835  -4.633   1.249  0.00  0.00    -0.329 N 
ATOM     17  H   UNL     1      -5.210  -5.109   1.819  0.00  0.00    +0.145 HD
ATOM     18  H   UNL     1      -6.552  -5.115   0.808  0.00  0.00    +0.145 HD
ENDBRANCH  13  14
ENDBRANCH  12  13
ENDBRANCH   6  12
ENDBRANCH   1   2
BRANCH   1  20
ATOM     19  C   UNL     1      -0.019   1.526   0.010  0.00  0.00    +0.029 C 
ATOM     20  C   UNL     1       0.002  -0.004   0.002  0.00  0.00    +0.137 C 
BRANCH  20  21
ATOM     21  C   UNL     1       0.707  -0.490  -1.238  0.00  0.00    +0.232 C 
ATOM     22  O   UNL     1       0.066  -0.782  -2.225  0.00  0.00    -0.274 OA
ATOM     23  N   UNL     1       2.051  -0.601  -1.250  0.00  0.00    -0.264 N 
ATOM     24  C   UNL     1       2.701  -1.049  -2.393  0.00  0.00    +0.165 A 
ATOM     25  N   UNL     1       3.991  -1.230  -2.603  0.00  0.00    -0.225 NA
ATOM     26  C   UNL     1       4.444  -1.669  -3.768  0.00  0.00    +0.080 A 
ATOM     27  C   UNL     1       3.557  -1.941  -4.772  0.00  0.00    +0.076 A 
ATOM     28  S   UNL     1       2.012  -1.541  -3.967  0.00  0.00    -0.060 S 
ATOM     29  H   UNL     1       2.563  -0.367  -0.460  0.00  0.00    +0.157 HD
BRANCH  26  30
ATOM     30  C   UNL     1       5.899  -1.864  -3.980  0.00  0.00    +0.001 A 
ATOM     31  C   UNL     1       6.371  -2.321  -5.210  0.00  0.00    +0.010 A 
ATOM     32  C   UNL     1       7.726  -2.501  -5.402  0.00  0.00    +0.001 A 
ATOM     33  C   UNL     1       8.614  -2.229  -4.377  0.00  0.00    +0.000 A 
ATOM     34  C   UNL     1       8.151  -1.776  -3.155  0.00  0.00    +0.001 A 
ATOM     35  C   UNL     1       6.799  -1.586  -2.953  0.00  0.00    +0.010 A 
ENDBRANCH  26  30
ENDBRANCH  20  21
ENDBRANCH   1  20
TORSDOF 8
