REMARK  Name = ZINC05149615
REMARK  9 active torsions:
REMARK  status: ('A' for Active; 'I' for Inactive)
REMARK    1  A    between atoms: C_1  and  C_2
REMARK    2  A    between atoms: C_2  and  O_3
REMARK    3  A    between atoms: O_3  and  C_4
REMARK    4  A    between atoms: C_7  and  C_10
REMARK    5  A    between atoms: C_17  and  N_31
REMARK    6  A    between atoms: C_18  and  C_29
REMARK    7  A    between atoms: C_19  and  C_21
REMARK    8  A    between atoms: C_24  and  S_27
REMARK    9  A    between atoms: S_27  and  C_28
REMARK                            x       y       z     vdW  Elec       q    Type
REMARK                         _______ _______ _______ _____ _____    ______ ____
ROOT
ATOM      1  C   UNL     1       1.087  -6.409   1.944  0.00  0.00    +0.100 A 
ATOM      2  C   UNL     1       2.328  -6.922   2.337  0.00  0.00    +0.054 A 
ATOM      3  C   UNL     1       2.231  -8.283   2.370  0.00  0.00    +0.223 A 
ATOM      4  N   UNL     1       0.973  -8.614   2.013  0.00  0.00    -0.246 N 
ATOM      5  H   UNL     1       0.616  -9.513   1.949  0.00  0.00    +0.192 HD
ATOM      6  N   UNL     1       0.269  -7.427   1.754  0.00  0.00    -0.171 NA
ATOM      7  O   UNL     1       3.271  -9.082   2.714  0.00  0.00    -0.423 OA
ATOM      8  C   UNL     1       4.498  -8.525   2.761  0.00  0.00    +0.200 C 
ATOM      9  C   UNL     1       4.720  -7.192   2.748  0.00  0.00    +0.098 C 
ATOM     10  C   UNL     1       3.597  -6.187   2.682  0.00  0.00    +0.102 C 
ENDROOT
BRANCH   1  14
ATOM     11  C   UNL     1       0.117  -2.295   1.465  0.00  0.00    +0.121 A 
ATOM     12  C   UNL     1       1.336  -2.777   1.008  0.00  0.00    +0.046 A 
ATOM     13  C   UNL     1       1.653  -4.110   1.162  0.00  0.00    +0.013 A 
ATOM     14  C   UNL     1       0.749  -4.974   1.777  0.00  0.00    +0.003 A 
ATOM     15  C   UNL     1      -0.474  -4.487   2.236  0.00  0.00    +0.013 A 
ATOM     16  C   UNL     1      -0.784  -3.152   2.083  0.00  0.00    +0.046 A 
BRANCH  11  17
ATOM     17  O   UNL     1      -0.193  -0.981   1.312  0.00  0.00    -0.492 OA
BRANCH  17  19
ATOM     18  C   UNL     1       0.256   1.280   0.586  0.00  0.00    +0.048 C 
ATOM     19  C   UNL     1       0.779  -0.156   0.666  0.00  0.00    +0.225 C 
ENDBRANCH  17  19
ENDBRANCH  11  17
ENDBRANCH   1  14
BRANCH  10  20
ATOM     20  C   UNL     1       3.444  -5.507   4.018  0.00  0.00    -0.034 A 
ATOM     21  C   UNL     1       3.097  -6.248   5.133  0.00  0.00    +0.005 A 
ATOM     22  C   UNL     1       2.956  -5.628   6.359  0.00  0.00    +0.015 A 
ATOM     23  C   UNL     1       3.162  -4.258   6.471  0.00  0.00    +0.008 A 
ATOM     24  C   UNL     1       3.510  -3.517   5.349  0.00  0.00    +0.015 A 
ATOM     25  C   UNL     1       3.655  -4.144   4.127  0.00  0.00    +0.005 A 
BRANCH  23  26
ATOM     26  S   UNL     1       2.982  -3.463   8.034  0.00  0.00    -0.129 S 
ATOM     27  C   UNL     1       3.343  -1.720   7.683  0.00  0.00    +0.090 C 
ENDBRANCH  23  26
ENDBRANCH  10  20
BRANCH   8  28
ATOM     28  N   UNL     1       5.585  -9.361   2.827  0.00  0.00    -0.328 N 
ATOM     29  H   UNL     1       5.458 -10.322   2.838  0.00  0.00    +0.145 HD
ATOM     30  H   UNL     1       6.481  -8.989   2.862  0.00  0.00    +0.145 HD
ENDBRANCH   8  28
BRANCH   9  31
ATOM     31  C   UNL     1       6.069  -6.716   2.800  0.00  0.00    +0.101 C 
ATOM     32  N   UNL     1       7.140  -6.339   2.840  0.00  0.00    -0.191 NA
ENDBRANCH   9  31
TORSDOF 7
