REMARK  Name = ZINC49077985
REMARK  4 active torsions:
REMARK  status: ('A' for Active; 'I' for Inactive)
REMARK    1  A    between atoms: C_1  and  C_2
REMARK    2  A    between atoms: C_2  and  C_4
REMARK    3  A    between atoms: C_2  and  N_10
REMARK    4  A    between atoms: C_4  and  N_5
REMARK                            x       y       z     vdW  Elec       q    Type
REMARK                         _______ _______ _______ _____ _____    ______ ____
ROOT
ATOM      1  N   UNL     1       0.688  -0.476  -1.203  0.00  0.00    -0.306 N 
ATOM      2  C   UNL     1       0.145  -1.274  -2.199  0.00  0.00    +0.089 A 
ATOM      3  C   UNL     1       1.165  -1.466  -3.144  0.00  0.00    +0.092 A 
ATOM      4  C   UNL     1       0.914  -2.241  -4.279  0.00  0.00    +0.030 A 
ATOM      5  C   UNL     1      -0.328  -2.807  -4.460  0.00  0.00    +0.004 A 
ATOM      6  C   UNL     1      -1.333  -2.615  -3.523  0.00  0.00    +0.022 A 
ATOM      7  C   UNL     1      -1.101  -1.851  -2.396  0.00  0.00    +0.067 A 
ATOM      8 CL   UNL     1      -2.364  -1.615  -1.230  0.00  0.00    -0.081 Cl
ATOM      9  N   UNL     1       2.259  -0.795  -2.696  0.00  0.00    -0.215 NA
ATOM     10  C   UNL     1       1.978  -0.208  -1.558  0.00  0.00    +0.194 A 
ATOM     11  N   UNL     1       2.858   0.562  -0.827  0.00  0.00    -0.329 N 
ATOM     12  H   UNL     1       2.572   0.961   0.010  0.00  0.00    +0.145 HD
ATOM     13  H   UNL     1       3.761   0.705  -1.149  0.00  0.00    +0.145 HD
ENDROOT
BRANCH   1  15
ATOM     14  C   UNL     1      -0.019   1.526   0.010  0.00  0.00    +0.033 C 
ATOM     15  C   UNL     1       0.002  -0.004   0.002  0.00  0.00    +0.109 C 
BRANCH  15  16
ATOM     16  C   UNL     1       0.742  -0.511   1.242  0.00  0.00    +0.168 C 
BRANCH  16  17
ATOM     17  N   UNL     1      -0.008  -0.140   2.444  0.00  0.00    -0.269 N 
ATOM     18  C   UNL     1      -0.428  -0.984   3.410  0.00  0.00    +0.108 A 
ATOM     19  C   UNL     1      -1.081  -0.252   4.342  0.00  0.00    +0.041 A 
ATOM     20  C   UNL     1      -1.060   1.085   3.932  0.00  0.00    +0.134 A 
ATOM     21  N   UNL     1      -0.412   1.154   2.797  0.00  0.00    -0.180 NA
ENDBRANCH  16  17
ENDBRANCH  15  16
ENDBRANCH   1  15
TORSDOF 3
