REMARK  Name = ZINC12892697
REMARK  10 active torsions:
REMARK  status: ('A' for Active; 'I' for Inactive)
REMARK    1  A    between atoms: C_1  and  N_2
REMARK    2  A    between atoms: C_3  and  C_5
REMARK    3  A    between atoms: C_5  and  S_6
REMARK    4  A    between atoms: S_6  and  C_7
REMARK    5  A    between atoms: C_9  and  C_29
REMARK    6  A    between atoms: C_10  and  N_12
REMARK    7  A    between atoms: C_13  and  C_15
REMARK    8  A    between atoms: C_15  and  C_16
REMARK    9  A    between atoms: C_16  and  C_17
REMARK   10  A    between atoms: C_17  and  N_18
REMARK                            x       y       z     vdW  Elec       q    Type
REMARK                         _______ _______ _______ _____ _____    ______ ____
ROOT
ATOM      1  C   UNL     1      -1.185   8.237   1.952  0.00  0.00    +0.137 A 
ATOM      2  N   UNL     1      -1.786   7.759   3.025  0.00  0.00    -0.231 NA
ATOM      3  C   UNL     1      -1.889   6.445   3.231  0.00  0.00    +0.101 A 
ATOM      4  C   UNL     1      -1.357   5.582   2.305  0.00  0.00    +0.100 A 
ATOM      5  S   UNL     1      -0.689   6.737   1.116  0.00  0.00    -0.045 S 
ENDROOT
BRANCH   3   6
ATOM      6  C   UNL     1      -2.566   5.925   4.441  0.00  0.00    +0.003 A 
ATOM      7  C   UNL     1      -3.316   4.751   4.374  0.00  0.00    +0.010 A 
ATOM      8  C   UNL     1      -3.941   4.269   5.506  0.00  0.00    +0.001 A 
ATOM      9  C   UNL     1      -3.834   4.954   6.703  0.00  0.00    +0.000 A 
ATOM     10  C   UNL     1      -3.096   6.122   6.775  0.00  0.00    +0.001 A 
ATOM     11  C   UNL     1      -2.462   6.611   5.651  0.00  0.00    +0.010 A 
ENDBRANCH   3   6
BRANCH   4  12
ATOM     12  N   UNL     1      -1.338   4.186   2.297  0.00  0.00    -0.278 N 
ATOM     13  C   UNL     1      -0.755   3.526   1.278  0.00  0.00    +0.218 C 
ATOM     14  O   UNL     1      -0.247   4.145   0.366  0.00  0.00    -0.275 OA
ATOM     15  H   UNL     1      -1.745   3.692   3.026  0.00  0.00    +0.155 HD
BRANCH  13  16
ATOM     16  C   UNL     1      -0.735   2.019   1.269  0.00  0.00    +0.097 C 
BRANCH  16  17
ATOM     17  C   UNL     1      -0.019   1.526   0.010  0.00  0.00    +0.029 C 
BRANCH  17  18
ATOM     18  C   UNL     1       0.002  -0.004   0.002  0.00  0.00    +0.117 C 
BRANCH  18  19
ATOM     19  N   UNL     1       0.688  -0.476  -1.203  0.00  0.00    -0.234 N 
ATOM     20  C   UNL     1       0.077  -0.738  -2.373  0.00  0.00    +0.254 C 
ATOM     21  O   UNL     1      -1.111  -0.620  -2.595  0.00  0.00    -0.270 OA
ATOM     22  C   UNL     1       1.096  -1.188  -3.345  0.00  0.00    +0.049 A 
ATOM     23  C   UNL     1       1.058  -1.583  -4.673  0.00  0.00    +0.014 A 
ATOM     24  C   UNL     1       2.229  -1.962  -5.311  0.00  0.00    +0.001 A 
ATOM     25  C   UNL     1       3.433  -1.949  -4.631  0.00  0.00    +0.001 A 
ATOM     26  C   UNL     1       3.486  -1.557  -3.303  0.00  0.00    +0.014 A 
ATOM     27  C   UNL     1       2.323  -1.175  -2.652  0.00  0.00    +0.049 A 
ATOM     28  C   UNL     1       2.010  -0.712  -1.284  0.00  0.00    +0.254 C 
ATOM     29  O   UNL     1       2.812  -0.568  -0.384  0.00  0.00    -0.270 OA
ENDBRANCH  18  19
ENDBRANCH  17  18
ENDBRANCH  16  17
ENDBRANCH  13  16
ENDBRANCH   4  12
BRANCH   1  30
ATOM     30  S   UNL     1      -0.932   9.913   1.473  0.00  0.00    -0.089 S 
BRANCH  30  31
ATOM     31  C   UNL     1      -0.049   9.665  -0.087  0.00  0.00    +0.172 C 
BRANCH  31  34
ATOM     32  C   UNL     1       1.265  12.366  -2.461  0.00  0.00    +0.128 C 
ATOM     33  N   UNL     1       0.943  11.065  -1.869  0.00  0.00    -0.318 N 
ATOM     34  C   UNL     1       0.282  11.003  -0.696  0.00  0.00    +0.223 C 
ATOM     35  O   UNL     1      -0.047  12.024  -0.131  0.00  0.00    -0.275 OA
ATOM     36  H   UNL     1       1.207  10.248  -2.321  0.00  0.00    +0.148 HD
ENDBRANCH  31  34
ENDBRANCH  30  31
ENDBRANCH   1  30
TORSDOF 9
