REMARK  Name = ZINC39441392
REMARK  7 active torsions:
REMARK  status: ('A' for Active; 'I' for Inactive)
REMARK    1  A    between atoms: C_1  and  C_2
REMARK    2  A    between atoms: C_2  and  C_4
REMARK    3  A    between atoms: C_2  and  S_19
REMARK    4  A    between atoms: C_9  and  C_12
REMARK    5  A    between atoms: C_12  and  C_13
REMARK    6  A    between atoms: S_19  and  C_20
REMARK    7  A    between atoms: C_24  and  C_27
REMARK                            x       y       z     vdW  Elec       q    Type
REMARK                         _______ _______ _______ _____ _____    ______ ____
ROOT
ATOM      1  C   UNL     1      -1.412  -0.526   0.013  0.00  0.00    +0.228 C 
ATOM      2  O   UNL     1      -1.927  -0.901  -1.019  0.00  0.00    -0.274 OA
ATOM      3  N   UNL     1      -2.103  -0.575   1.169  0.00  0.00    -0.301 N 
ATOM      4  C   UNL     1      -1.494  -0.118   2.425  0.00  0.00    +0.108 C 
ATOM      5  C   UNL     1      -1.610  -1.237   3.465  0.00  0.00    +0.023 C 
ATOM      6  C   UNL     1      -3.076  -1.659   3.594  0.00  0.00    -0.004 C 
ATOM      7  C   UNL     1      -3.574  -2.194   2.249  0.00  0.00    +0.023 C 
ATOM      8  C   UNL     1      -3.482  -1.081   1.195  0.00  0.00    +0.108 C 
ENDROOT
BRANCH   1  10
ATOM      9  C   UNL     1      -0.019   1.526   0.010  0.00  0.00    +0.029 C 
ATOM     10  C   UNL     1       0.002  -0.004   0.002  0.00  0.00    +0.134 C 
BRANCH  10  11
ATOM     11  S   UNL     1       0.851  -0.589  -1.490  0.00  0.00    -0.092 S 
BRANCH  11  12
ATOM     12  C   UNL     1       2.558  -0.012  -1.279  0.00  0.00    +0.319 C 
ATOM     13  N   UNL     1       3.120  -0.532  -0.026  0.00  0.00    -0.146 NA
ATOM     14  N   UNL     1       3.725   0.366   0.574  0.00  0.00    -0.154 NA
ATOM     15  C   UNL     1       3.656   1.618  -0.190  0.00  0.00    +0.286 C 
ATOM     16  O   UNL     1       2.587   1.424  -1.142  0.00  0.00    -0.316 OA
BRANCH  15  17
ATOM     17  C   UNL     1       3.336   2.790   0.740  0.00  0.00    +0.155 C 
ATOM     18  C   UNL     1       3.294   4.084  -0.043  0.00  0.00    +0.003 C 
ATOM     19  C   UNL     1       4.246   4.857   0.476  0.00  0.00    +0.015 C 
ATOM     20  C   UNL     1       4.916   4.142   1.563  0.00  0.00    +0.078 C 
ATOM     21  N   UNL     1       4.409   2.963   1.727  0.00  0.00    -0.380 N 
ATOM     22  H   UNL     1       4.688   2.308   2.386  0.00  0.00    +0.160 HD
ENDBRANCH  15  17
ENDBRANCH  11  12
ENDBRANCH  10  11
ENDBRANCH   1  10
BRANCH   6  23
ATOM     23  C   UNL     1      -3.200  -2.752   4.656  0.00  0.00    +0.038 C 
BRANCH  23  24
ATOM     24  C   UNL     1      -4.655  -3.081   4.871  0.00  0.00    -0.047 A 
ATOM     25  C   UNL     1      -5.387  -2.391   5.819  0.00  0.00    +0.003 A 
ATOM     26  C   UNL     1      -6.722  -2.692   6.016  0.00  0.00    +0.000 A 
ATOM     27  C   UNL     1      -7.325  -3.683   5.264  0.00  0.00    +0.000 A 
ATOM     28  C   UNL     1      -6.593  -4.372   4.315  0.00  0.00    +0.000 A 
ATOM     29  C   UNL     1      -5.260  -4.068   4.115  0.00  0.00    +0.003 A 
ENDBRANCH  23  24
ENDBRANCH   6  23
TORSDOF 6
