REMARK  Name = ZINC02806968
REMARK  3 active torsions:
REMARK  status: ('A' for Active; 'I' for Inactive)
REMARK    1  A    between atoms: C_3  and  C_6
REMARK    2  A    between atoms: C_8  and  C_21
REMARK    3  A    between atoms: C_13  and  C_17
REMARK                            x       y       z     vdW  Elec       q    Type
REMARK                         _______ _______ _______ _____ _____    ______ ____
ROOT
ATOM      1  C   UNL     1      -2.622   3.739   0.007  0.00  0.00    +0.112 A 
ATOM      2  C   UNL     1      -3.785   2.967  -0.115  0.00  0.00    +0.064 A 
ATOM      3  C   UNL     1      -3.655   1.594  -0.204  0.00  0.00    +0.150 A 
ATOM      4  N   UNL     1      -2.446   1.054  -0.177  0.00  0.00    -0.207 NA
ATOM      5  C   UNL     1      -1.365   1.807  -0.055  0.00  0.00    +0.253 A 
ATOM      6  N   UNL     1      -1.439   3.123   0.034  0.00  0.00    -0.207 NA
ATOM      7  N   UNL     1      -0.111   1.194  -0.024  0.00  0.00    -0.194 N 
ATOM      8  C   UNL     1       0.126  -0.143   0.008  0.00  0.00    +0.150 A 
ATOM      9  C   UNL     1       1.466  -0.321   0.024  0.00  0.00    +0.054 A 
ATOM     10  C   UNL     1       2.070   0.943   0.002  0.00  0.00    +0.135 A 
ATOM     11  N   UNL     1       1.127   1.849  -0.027  0.00  0.00    -0.172 NA
ENDROOT
BRANCH   1  14
ATOM     12  C   UNL     1      -2.188   7.362   0.289  0.00  0.00    +0.042 A 
ATOM     13  C   UNL     1      -1.652   6.061   0.234  0.00  0.00    +0.051 A 
ATOM     14  C   UNL     1      -2.705   5.209   0.106  0.00  0.00    +0.153 A 
ATOM     15  O   UNL     1      -3.837   5.940   0.092  0.00  0.00    -0.461 OA
ATOM     16  C   UNL     1      -3.528   7.241   0.202  0.00  0.00    +0.196 A 
ENDBRANCH   1  14
BRANCH   8  17
ATOM     17  C   UNL     1      -0.916  -1.232   0.022  0.00  0.00    +0.434 C 
ATOM     18  F   UNL     1      -1.643  -1.197  -1.172  0.00  0.00    -0.164 F 
ATOM     19  F   UNL     1      -0.289  -2.476   0.150  0.00  0.00    -0.164 F 
ATOM     20  F   UNL     1      -1.783  -1.034   1.102  0.00  0.00    -0.164 F 
ENDBRANCH   8  17
BRANCH   3  21
ATOM     21  C   UNL     1      -4.877   0.721  -0.338  0.00  0.00    +0.434 C 
ATOM     22  F   UNL     1      -5.177   0.543  -1.693  0.00  0.00    -0.164 F 
ATOM     23  F   UNL     1      -4.627  -0.523   0.252  0.00  0.00    -0.164 F 
ATOM     24  F   UNL     1      -5.959   1.332   0.303  0.00  0.00    -0.164 F 
ENDBRANCH   3  21
TORSDOF 3
