REMARK  Name = ZINC06077413
REMARK  13 active torsions:
REMARK  status: ('A' for Active; 'I' for Inactive)
REMARK    1  A    between atoms: C_1  and  C_2
REMARK    2  A    between atoms: C_2  and  C_3
REMARK    3  A    between atoms: C_3  and  C_4
REMARK    4  A    between atoms: C_3  and  C_5
REMARK    5  A    between atoms: C_3  and  N_6
REMARK    6  A    between atoms: C_7  and  C_9
REMARK    7  A    between atoms: C_9  and  C_11
REMARK    8  A    between atoms: C_9  and  N_18
REMARK    9  A    between atoms: N_18  and  C_19
REMARK   10  A    between atoms: C_19  and  C_20
REMARK   11  A    between atoms: C_26  and  C_28
REMARK   12  A    between atoms: C_29  and  N_36
REMARK   13  A    between atoms: C_30  and  C_33
REMARK                            x       y       z     vdW  Elec       q    Type
REMARK                         _______ _______ _______ _____ _____    ______ ____
ROOT
ATOM      1  N   UNL     1       4.661  -0.909   0.162  0.00  0.00    -0.277 N 
ATOM      2  C   UNL     1       4.338  -2.014   0.864  0.00  0.00    +0.258 C 
ATOM      3  O   UNL     1       4.976  -2.311   1.857  0.00  0.00    -0.269 OA
ENDROOT
BRANCH   2   4
ATOM      4  C   UNL     1       3.221  -2.856   0.431  0.00  0.00    +0.115 A 
ATOM      5  C   UNL     1       3.118  -4.248   0.412  0.00  0.00    +0.076 A 
ATOM      6  C   UNL     1       1.885  -4.686  -0.072  0.00  0.00    +0.155 A 
ATOM      7  N   UNL     1       0.988  -3.799  -0.443  0.00  0.00    -0.203 NA
ATOM      8  S   UNL     1       1.629  -2.378  -0.209  0.00  0.00    +0.019 S 
BRANCH   6   9
ATOM      9  C   UNL     1       1.592  -6.127  -0.168  0.00  0.00    +0.262 C 
ATOM     10  O   UNL     1       2.426  -6.942   0.176  0.00  0.00    -0.269 OA
ATOM     11  N   UNL     1       0.398  -6.542  -0.636  0.00  0.00    -0.324 N 
ATOM     12  H   UNL     1      -0.268  -5.893  -0.911  0.00  0.00    +0.145 HD
ATOM     13  H   UNL     1       0.205  -7.491  -0.699  0.00  0.00    +0.145 HD
ENDBRANCH   6   9
BRANCH   5  14
ATOM     14  N   UNL     1       4.131  -5.102   0.827  0.00  0.00    -0.355 N 
ATOM     15  H   UNL     1       4.001  -6.062   0.790  0.00  0.00    +0.142 HD
ATOM     16  H   UNL     1       4.968  -4.738   1.155  0.00  0.00    +0.142 HD
ENDBRANCH   5  14
ENDBRANCH   2   4
BRANCH   1  17
ATOM     17  C   UNL     1       5.860  -0.144   0.510  0.00  0.00    +0.193 C 
BRANCH  17  18
ATOM     18  C   UNL     1       5.471   1.050   1.343  0.00  0.00    -0.018 A 
ATOM     19  C   UNL     1       4.362   1.800   0.998  0.00  0.00    +0.009 A 
ATOM     20  C   UNL     1       4.001   2.892   1.765  0.00  0.00    +0.038 A 
ATOM     21  C   UNL     1       4.756   3.240   2.872  0.00  0.00    +0.123 A 
ATOM     22  C   UNL     1       5.869   2.491   3.213  0.00  0.00    +0.038 A 
ATOM     23  C   UNL     1       6.225   1.396   2.448  0.00  0.00    +0.009 A 
ATOM     24  F   UNL     1       4.407   4.311   3.618  0.00  0.00    -0.205 F 
ENDBRANCH  17  18
BRANCH  17  26
ATOM     25  N   UNL     1       7.790  -0.096  -1.038  0.00  0.00    -0.308 N 
ATOM     26  C   UNL     1       6.541   0.324  -0.750  0.00  0.00    +0.239 C 
ATOM     27  O   UNL     1       5.966   1.078  -1.506  0.00  0.00    -0.273 OA
ATOM     28  H   UNL     1       8.207  -0.782  -0.494  0.00  0.00    +0.149 HD
BRANCH  25  29
ATOM     29  C   UNL     1       8.515   0.484  -2.171  0.00  0.00    +0.029 C 
ATOM     30  C   UNL     1       7.779   0.153  -3.471  0.00  0.00    +0.031 C 
ATOM     31  C   UNL     1       8.594   2.003  -2.002  0.00  0.00    +0.031 C 
BRANCH  29  33
ATOM     32  C   UNL     1      10.687   0.508  -3.406  0.00  0.00    +0.006 C 
ATOM     33  C   UNL     1       9.929  -0.098  -2.223  0.00  0.00    +0.022 C 
ENDBRANCH  29  33
ENDBRANCH  25  29
ENDBRANCH  17  26
ENDBRANCH   1  17
BRANCH   1  34
ATOM     34  C   UNL     1       3.811  -0.474  -0.950  0.00  0.00    +0.145 C 
BRANCH  34  35
ATOM     35  C   UNL     1       4.098  -1.321  -2.163  0.00  0.00    -0.012 A 
ATOM     36  C   UNL     1       4.921  -0.847  -3.172  0.00  0.00    +0.008 A 
ATOM     37  C   UNL     1       5.161  -1.663  -4.267  0.00  0.00    +0.020 A 
ATOM     38  C   UNL     1       4.567  -2.910  -4.321  0.00  0.00    +0.111 A 
ATOM     39  N   UNL     1       3.785  -3.326  -3.344  0.00  0.00    -0.263 NA
ATOM     40  C   UNL     1       3.539  -2.579  -2.286  0.00  0.00    +0.115 A 
ENDBRANCH  34  35
ENDBRANCH   1  34
TORSDOF 10
