REMARK  Name = ZINC33937031
REMARK  12 active torsions:
REMARK  status: ('A' for Active; 'I' for Inactive)
REMARK    1  A    between atoms: C_1  and  C_2
REMARK    2  A    between atoms: C_2  and  C_3
REMARK    3  A    between atoms: C_3  and  C_5
REMARK    4  A    between atoms: C_3  and  N_17
REMARK    5  A    between atoms: N_9  and  C_10
REMARK    6  A    between atoms: C_10  and  C_11
REMARK    7  A    between atoms: N_17  and  C_18
REMARK    8  A    between atoms: N_17  and  C_28
REMARK    9  A    between atoms: C_18  and  C_19
REMARK   10  A    between atoms: C_28  and  C_29
REMARK   11  A    between atoms: C_33  and  C_42
REMARK   12  A    between atoms: C_34  and  C_41
REMARK                            x       y       z     vdW  Elec       q    Type
REMARK                         _______ _______ _______ _____ _____    ______ ____
ROOT
ATOM      1  N   UNL     1      -0.563   0.307  -2.629  0.00  0.00    +0.392 N 
ATOM      2  H   UNL     1      -1.456  -0.025  -2.961  0.00  0.00    -0.080 HD
ENDROOT
BRANCH   1   3
ATOM      3  C   UNL     1      -0.166  -0.461  -1.441  0.00  0.00    +0.003 C 
BRANCH   3   4
ATOM      4  C   UNL     1       1.288  -0.204  -1.140  0.00  0.00    +0.138 A 
ATOM      5  N   UNL     1       2.308  -0.477  -1.917  0.00  0.00    -0.115 NA
ATOM      6  N   UNL     1       3.382  -0.110  -1.307  0.00  0.00    -0.023 NA
ATOM      7  N   UNL     1       3.074   0.391  -0.162  0.00  0.00    -0.044 NA
ATOM      8  N   UNL     1       1.792   0.356  -0.024  0.00  0.00    -0.228 N 
BRANCH   8   9
ATOM      9  C   UNL     1       1.027   0.832   1.131  0.00  0.00    +0.178 C 
BRANCH   9  10
ATOM     10  C   UNL     1       0.866  -0.307   2.140  0.00  0.00    +0.140 C 
ATOM     11  C   UNL     1       0.139   0.199   3.411  0.00  0.00    +0.035 C 
ATOM     12  C   UNL     1      -0.474  -1.124   3.947  0.00  0.00    +0.031 C 
ATOM     13  C   UNL     1      -0.801  -1.884   2.644  0.00  0.00    +0.160 C 
ATOM     14  O   UNL     1       0.017  -1.333   1.603  0.00  0.00    -0.375 OA
ENDBRANCH   9  10
ENDBRANCH   8   9
ENDBRANCH   3   4
BRANCH   3  16
ATOM     15  C   UNL     1      -1.873  -2.243  -1.832  0.00  0.00    +0.002 C 
ATOM     16  C   UNL     1      -0.376  -1.953  -1.705  0.00  0.00    -0.011 C 
ENDBRANCH   3  16
ENDBRANCH   1   3
BRANCH   1  17
ATOM     17  C   UNL     1       0.446   0.136  -3.682  0.00  0.00    -0.041 C 
BRANCH  17  18
ATOM     18  C   UNL     1       0.408  -1.282  -4.189  0.00  0.00    -0.060 A 
ATOM     19  C   UNL     1       1.429  -2.158  -3.868  0.00  0.00    +0.005 A 
ATOM     20  C   UNL     1       1.398  -3.460  -4.331  0.00  0.00    +0.050 A 
ATOM     21  C   UNL     1       0.342  -3.891  -5.118  0.00  0.00    +0.166 A 
ATOM     22  C   UNL     1      -0.686  -3.010  -5.442  0.00  0.00    +0.166 A 
ATOM     23  C   UNL     1      -0.651  -1.707  -4.970  0.00  0.00    +0.051 A 
ATOM     24  O   UNL     1      -1.596  -3.667  -6.218  0.00  0.00    -0.453 OA
ATOM     25  C   UNL     1      -0.912  -4.837  -6.705  0.00  0.00    +0.466 C 
ATOM     26  O   UNL     1       0.077  -5.101  -5.692  0.00  0.00    -0.453 OA
ENDBRANCH  17  18
ENDBRANCH   1  17
BRANCH   1  27
ATOM     27  C   UNL     1      -0.670   1.730  -2.279  0.00  0.00    -0.036 C 
BRANCH  27  28
ATOM     28  C   UNL     1      -1.185   2.502  -3.466  0.00  0.00    +0.001 A 
ATOM     29  C   UNL     1      -2.510   2.767  -3.576  0.00  0.00    +0.017 A 
ATOM     30  C   UNL     1      -2.978   3.520  -4.742  0.00  0.00    -0.001 A 
ATOM     31  C   UNL     1      -4.332   3.825  -4.910  0.00  0.00    +0.013 A 
ATOM     32  C   UNL     1      -4.737   4.529  -6.008  0.00  0.00    -0.047 A 
ATOM     33  C   UNL     1      -3.815   4.945  -6.959  0.00  0.00    -0.046 A 
ATOM     34  C   UNL     1      -2.475   4.656  -6.814  0.00  0.00    +0.030 A 
ATOM     35  C   UNL     1      -2.040   3.941  -5.704  0.00  0.00    +0.049 A 
ATOM     36  N   UNL     1      -0.706   3.638  -5.533  0.00  0.00    -0.322 N 
ATOM     37  H   UNL     1      -0.061   3.929  -6.197  0.00  0.00    +0.169 HD
ATOM     38  C   UNL     1      -0.285   2.951  -4.456  0.00  0.00    +0.251 A 
ATOM     39  O   UNL     1       0.903   2.706  -4.335  0.00  0.00    -0.268 OA
ATOM     40  C   UNL     1      -4.284   5.720  -8.163  0.00  0.00    +0.044 C 
ATOM     41  C   UNL     1      -6.197   4.857  -6.189  0.00  0.00    +0.044 C 
ENDBRANCH  27  28
ENDBRANCH   1  27
TORSDOF 9
