REMARK  Name = ZINC40827290
REMARK  5 active torsions:
REMARK  status: ('A' for Active; 'I' for Inactive)
REMARK    1  A    between atoms: C_1  and  C_2
REMARK    2  A    between atoms: C_7  and  N_8
REMARK    3  A    between atoms: N_8  and  C_9
REMARK    4  A    between atoms: N_14  and  C_17
REMARK    5  A    between atoms: C_20  and  N_23
REMARK                            x       y       z     vdW  Elec       q    Type
REMARK                         _______ _______ _______ _____ _____    ______ ____
ROOT
ATOM      1  C   UNL     1      -0.001  -0.614   3.615  0.00  0.00    +0.166 C 
ATOM      2  C   UNL     1       0.655  -0.022   4.878  0.00  0.00    +0.128 C 
ATOM      3  C   UNL     1      -0.473   0.000   5.887  0.00  0.00    +0.228 C 
ATOM      4  O   UNL     1      -0.386   0.398   7.029  0.00  0.00    -0.275 OA
ATOM      5  N   UNL     1      -1.582  -0.488   5.318  0.00  0.00    -0.209 N 
ATOM      6  C   UNL     1      -1.431  -0.867   4.039  0.00  0.00    +0.247 C 
ATOM      7  O   UNL     1      -2.300  -1.336   3.336  0.00  0.00    -0.273 OA
ENDROOT
BRANCH   5   8
ATOM      8  C   UNL     1      -2.801  -0.597   6.002  0.00  0.00    +0.044 A 
ATOM      9  C   UNL     1      -3.322  -1.848   6.299  0.00  0.00    +0.026 A 
ATOM     10  C   UNL     1      -4.523  -1.952   6.974  0.00  0.00    +0.034 A 
ATOM     11  C   UNL     1      -5.206  -0.811   7.353  0.00  0.00    +0.126 A 
ATOM     12  C   UNL     1      -4.689   0.437   7.058  0.00  0.00    +0.034 A 
ATOM     13  C   UNL     1      -3.486   0.547   6.389  0.00  0.00    +0.026 A 
BRANCH  11  14
ATOM     14  N   UNL     1      -6.492  -0.925   8.076  0.00  0.00    +0.056 N 
ATOM     15  O   UNL     1      -6.945  -2.016   8.334  0.00  0.00    -0.126 OA
ATOM     16  O   UNL     1      -7.090   0.071   8.408  0.00  0.00    -0.126 OA
ENDBRANCH  11  14
ENDBRANCH   5   8
BRANCH   1  17
ATOM     17  N   UNL     1       0.046   0.347   2.510  0.00  0.00    -0.332 N 
ATOM     18  H   UNL     1       0.135   1.295   2.696  0.00  0.00    +0.147 HD
BRANCH  17  25
ATOM     19  C   UNL     1       0.146   2.282   0.427  0.00  0.00    +0.045 C 
ATOM     20  C   UNL     1       0.008   0.809   0.142  0.00  0.00    -0.030 A 
ATOM     21  C   UNL     1      -0.068   0.362  -1.163  0.00  0.00    +0.005 A 
ATOM     22  C   UNL     1      -0.196  -0.990  -1.425  0.00  0.00    +0.000 A 
ATOM     23  C   UNL     1      -0.246  -1.898  -0.384  0.00  0.00    +0.002 A 
ATOM     24  C   UNL     1      -0.170  -1.458   0.923  0.00  0.00    +0.023 A 
ATOM     25  C   UNL     1      -0.037  -0.101   1.190  0.00  0.00    +0.031 A 
ENDBRANCH  17  25
ENDBRANCH   1  17
TORSDOF 4
