REMARK  Name = ZINC08296548
REMARK  5 active torsions:
REMARK  status: ('A' for Active; 'I' for Inactive)
REMARK    1  A    between atoms: C_1  and  S_2
REMARK    2  A    between atoms: S_2  and  C_3
REMARK    3  A    between atoms: C_6  and  C_9
REMARK    4  A    between atoms: C_20  and  N_27
REMARK    5  A    between atoms: C_28  and  C_30
REMARK                            x       y       z     vdW  Elec       q    Type
REMARK                         _______ _______ _______ _____ _____    ______ ____
ROOT
ATOM      1  C   UNL     1      -3.677   7.106  -1.271  0.00  0.00    -0.017 A 
ATOM      2  C   UNL     1      -3.162   7.695  -0.114  0.00  0.00    +0.010 A 
ATOM      3  C   UNL     1      -2.135   7.089   0.568  0.00  0.00    +0.024 A 
ATOM      4  C   UNL     1      -1.589   5.880   0.121  0.00  0.00    +0.046 A 
ATOM      5  C   UNL     1      -2.110   5.279  -1.024  0.00  0.00    +0.059 A 
ATOM      6  C   UNL     1      -3.152   5.905  -1.723  0.00  0.00    +0.023 A 
ATOM      7  C   UNL     1      -1.607   3.997  -1.543  0.00  0.00    +0.249 C 
ATOM      8  O   UNL     1      -1.516   3.850  -2.746  0.00  0.00    -0.270 OA
ATOM      9  N   UNL     1      -1.283   2.972  -0.745  0.00  0.00    -0.284 N 
ATOM     10  C   UNL     1      -0.838   1.637  -1.182  0.00  0.00    +0.111 C 
ATOM     11  C   UNL     1      -0.013   1.086   0.008  0.00  0.00    +0.043 C 
ATOM     12  C   UNL     1      -0.816   1.624   1.221  0.00  0.00    +0.104 C 
ATOM     13  C   UNL     1      -1.310   3.001   0.728  0.00  0.00    +0.183 C 
ATOM     14  C   UNL     1      -0.363   4.080   1.187  0.00  0.00    +0.240 C 
ATOM     15  O   UNL     1       0.589   3.777   1.874  0.00  0.00    -0.273 OA
ATOM     16  N   UNL     1      -0.545   5.355   0.858  0.00  0.00    -0.283 N 
ATOM     17  H   UNL     1       0.127   5.983   1.169  0.00  0.00    +0.155 HD
ENDROOT
BRANCH   1  21
ATOM     18  C   UNL     1      -6.840   8.991  -3.402  0.00  0.00    +0.008 A 
ATOM     19  C   UNL     1      -6.331   9.581  -2.250  0.00  0.00    +0.015 A 
ATOM     20  C   UNL     1      -5.306   8.971  -1.558  0.00  0.00    +0.009 A 
ATOM     21  C   UNL     1      -4.780   7.763  -2.014  0.00  0.00    -0.018 A 
ATOM     22  C   UNL     1      -5.288   7.176  -3.172  0.00  0.00    +0.009 A 
ATOM     23  C   UNL     1      -6.317   7.785  -3.858  0.00  0.00    +0.015 A 
BRANCH  18  25
ATOM     24  C   UNL     1      -8.468   8.654  -5.678  0.00  0.00    +0.090 C 
ATOM     25  S   UNL     1      -8.151   9.771  -4.284  0.00  0.00    -0.129 S 
ENDBRANCH  18  25
ENDBRANCH   1  21
BRANCH  12  26
ATOM     26  N   UNL     1      -1.949   0.746   1.523  0.00  0.00    -0.310 N 
ATOM     27  C   UNL     1      -1.778  -0.321   2.328  0.00  0.00    +0.216 C 
ATOM     28  O   UNL     1      -0.687  -0.554   2.803  0.00  0.00    -0.276 OA
ATOM     29  H   UNL     1      -2.822   0.932   1.143  0.00  0.00    +0.149 HD
BRANCH  27  30
ATOM     30  C   UNL     1      -2.944  -1.225   2.639  0.00  0.00    +0.075 C 
ATOM     31  C   UNL     1      -4.043  -0.434   3.378  0.00  0.00    +0.013 C 
ATOM     32  C   UNL     1      -4.608  -1.444   4.409  0.00  0.00    +0.001 C 
ATOM     33  C   UNL     1      -3.342  -2.208   4.870  0.00  0.00    +0.001 C 
ATOM     34  C   UNL     1      -2.498  -2.352   3.587  0.00  0.00    +0.013 C 
ENDBRANCH  27  30
ENDBRANCH  12  26
TORSDOF 4
