REMARK  Name = ZINC60066278
REMARK  13 active torsions:
REMARK  status: ('A' for Active; 'I' for Inactive)
REMARK    1  A    between atoms: C_1  and  C_2
REMARK    2  A    between atoms: C_2  and  S_3
REMARK    3  A    between atoms: S_3  and  N_6
REMARK    4  A    between atoms: N_6  and  C_7
REMARK    5  A    between atoms: N_6  and  C_16
REMARK    6  A    between atoms: C_7  and  C_8
REMARK    7  A    between atoms: C_16  and  C_17
REMARK    8  A    between atoms: C_17  and  C_19
REMARK    9  A    between atoms: C_17  and  N_22
REMARK   10  A    between atoms: C_19  and  C_20
REMARK   11  A    between atoms: C_19  and  C_21
REMARK   12  A    between atoms: N_22  and  C_23
REMARK   13  A    between atoms: N_22  and  C_24
REMARK                            x       y       z     vdW  Elec       q    Type
REMARK                         _______ _______ _______ _____ _____    ______ ____
ROOT
ATOM      1  N   UNL     1      -1.826  -4.629   0.940  0.00  0.00    -0.178 NA
ENDROOT
BRANCH   1   2
ATOM      2  S   UNL     1      -3.299  -4.012   1.378  0.00  0.00    +0.032 S 
ATOM      3  O   UNL     1      -3.591  -4.622   2.628  0.00  0.00    -0.158 OA
ATOM      4  O   UNL     1      -4.135  -4.236   0.251  0.00  0.00    -0.158 OA
BRANCH   2   6
ATOM      5  C   UNL     1      -4.266  -1.587   2.195  0.00  0.00    +0.029 C 
ATOM      6  C   UNL     1      -3.013  -2.235   1.601  0.00  0.00    +0.182 C 
ENDBRANCH   2   6
ENDBRANCH   1   2
BRANCH   1   7
ATOM      7  C   UNL     1      -0.895  -5.100   1.968  0.00  0.00    +0.144 C 
BRANCH   7   8
ATOM      8  C   UNL     1      -1.315  -6.468   2.438  0.00  0.00    -0.030 A 
ATOM      9  C   UNL     1      -2.195  -6.595   3.497  0.00  0.00    +0.006 A 
ATOM     10  C   UNL     1      -2.581  -7.849   3.930  0.00  0.00    +0.022 A 
ATOM     11  C   UNL     1      -2.089  -8.979   3.302  0.00  0.00    +0.059 A 
ATOM     12  C   UNL     1      -1.209  -8.853   2.241  0.00  0.00    +0.060 A 
ATOM     13  C   UNL     1      -0.827  -7.596   1.806  0.00  0.00    +0.026 A 
ATOM     14 CL   UNL     1      -0.589 -10.270   1.452  0.00  0.00    -0.082 Cl
ATOM     15 CL   UNL     1      -2.573 -10.556   3.845  0.00  0.00    -0.082 Cl
ENDBRANCH   7   8
ENDBRANCH   1   7
BRANCH   1  16
ATOM     16  C   UNL     1      -1.454  -4.703  -0.475  0.00  0.00    +0.094 C 
BRANCH  16  17
ATOM     17  C   UNL     1      -0.516  -3.544  -0.818  0.00  0.00    -0.051 C 
BRANCH  17  18
ATOM     18  N   UNL     1       0.422  -3.329   0.292  0.00  0.00    +0.379 N 
ATOM     19  C   UNL     1       1.577  -2.558  -0.185  0.00  0.00    -0.096 C 
ATOM     20  C   UNL     1      -0.252  -2.588   1.367  0.00  0.00    -0.096 C 
ATOM     21  H   UNL     1       0.736  -4.221   0.645  0.00  0.00    -0.082 HD
ENDBRANCH  17  18
BRANCH  17  22
ATOM     22  C   UNL     1       0.267  -3.880  -2.089  0.00  0.00    -0.030 C 
ATOM     23  C   UNL     1       1.046  -2.646  -2.548  0.00  0.00    +0.005 C 
ATOM     24  C   UNL     1       1.243  -5.022  -1.800  0.00  0.00    +0.005 C 
ENDBRANCH  17  22
ENDBRANCH  16  17
ENDBRANCH   1  16
TORSDOF 8
