REMARK  Name = ZINC62162437
REMARK  5 active torsions:
REMARK  status: ('A' for Active; 'I' for Inactive)
REMARK    1  A    between atoms: C_1  and  C_2
REMARK    2  A    between atoms: C_6  and  N_8
REMARK    3  A    between atoms: C_11  and  C_14
REMARK    4  A    between atoms: C_18  and  C_25
REMARK    5  A    between atoms: C_21  and  C_24
REMARK                            x       y       z     vdW  Elec       q    Type
REMARK                         _______ _______ _______ _____ _____    ______ ____
ROOT
ATOM      1  N   UNL     1       1.034  -2.811   2.463  0.00  0.00    -0.279 N 
ATOM      2  C   UNL     1       0.558  -4.112   2.501  0.00  0.00    +0.164 A 
ATOM      3  N   UNL     1       0.366  -4.897   3.542  0.00  0.00    -0.220 NA
ATOM      4  C   UNL     1      -0.106  -6.137   3.395  0.00  0.00    +0.135 A 
ATOM      5  C   UNL     1      -0.392  -6.595   2.133  0.00  0.00    +0.081 A 
ATOM      6  S   UNL     1       0.038  -5.163   1.153  0.00  0.00    -0.060 S 
ATOM      7  H   UNL     1       1.349  -2.385   3.276  0.00  0.00    +0.155 HD
ENDROOT
BRANCH   4   8
ATOM      8  C   UNL     1      -0.315  -7.000   4.569  0.00  0.00    +0.266 C 
ATOM      9  O   UNL     1      -0.374  -8.208   4.433  0.00  0.00    -0.268 OA
ATOM     10  N   UNL     1      -0.441  -6.453   5.794  0.00  0.00    -0.296 N 
ATOM     11  C   UNL     1      -0.369  -4.997   5.974  0.00  0.00    +0.111 C 
ATOM     12  C   UNL     1      -1.618  -4.532   6.729  0.00  0.00    +0.004 C 
ATOM     13  C   UNL     1      -1.745  -5.321   8.034  0.00  0.00    +0.009 C 
ATOM     14  C   UNL     1      -1.898  -6.811   7.718  0.00  0.00    +0.004 C 
ATOM     15  C   UNL     1      -0.658  -7.302   6.974  0.00  0.00    +0.111 C 
ATOM     16  C   UNL     1      -2.059  -7.596   9.021  0.00  0.00    +0.009 C 
ATOM     17  C   UNL     1      -1.498  -3.039   7.044  0.00  0.00    +0.009 C 
ENDBRANCH   4   8
BRANCH   1  23
ATOM     18  C   UNL     1       0.353  -2.860  -2.276  0.00  0.00    +0.065 C 
ATOM     19  C   UNL     1       0.740  -2.110  -1.027  0.00  0.00    +0.040 A 
ATOM     20  C   UNL     1       1.102  -0.780  -1.115  0.00  0.00    +0.023 A 
ATOM     21  C   UNL     1       1.457  -0.095   0.040  0.00  0.00    +0.005 A 
ATOM     22  C   UNL     1       1.435  -0.775   1.244  0.00  0.00    +0.044 A 
ATOM     23  C   UNL     1       1.060  -2.115   1.258  0.00  0.00    +0.125 A 
ATOM     24  N   UNL     1       0.723  -2.732   0.136  0.00  0.00    -0.237 NA
ENDBRANCH   1  23
TORSDOF 2
