REMARK  Name = ZINC46913040
REMARK  12 active torsions:
REMARK  status: ('A' for Active; 'I' for Inactive)
REMARK    1  A    between atoms: C_1  and  N_2
REMARK    2  A    between atoms: N_2  and  C_3
REMARK    3  A    between atoms: N_2  and  C_4
REMARK    4  A    between atoms: C_7  and  C_10
REMARK    5  A    between atoms: C_10  and  C_12
REMARK    6  A    between atoms: C_10  and  C_28
REMARK    7  A    between atoms: C_12  and  N_13
REMARK    8  A    between atoms: C_14  and  C_16
REMARK    9  A    between atoms: C_16  and  N_17
REMARK   10  A    between atoms: N_17  and  C_18
REMARK   11  A    between atoms: N_17  and  S_19
REMARK   12  A    between atoms: S_19  and  C_22
REMARK                            x       y       z     vdW  Elec       q    Type
REMARK                         _______ _______ _______ _____ _____    ______ ____
ROOT
ATOM      1  C   UNL     1      -0.006  -2.813  -4.924  0.00  0.00    +0.068 C 
ENDROOT
BRANCH   1   2
ATOM      2  C   UNL     1       1.215  -2.433  -5.721  0.00  0.00    -0.013 A 
ATOM      3  C   UNL     1       1.544  -1.200  -6.139  0.00  0.00    +0.088 A 
ATOM      4  N   UNL     1       2.722  -1.242  -6.834  0.00  0.00    -0.360 N 
ATOM      5  H   UNL     1       3.160  -0.474  -7.234  0.00  0.00    +0.165 HD
ATOM      6  C   UNL     1       3.192  -2.535  -6.881  0.00  0.00    +0.047 A 
ATOM      7  C   UNL     1       2.272  -3.337  -6.180  0.00  0.00    +0.003 A 
ATOM      8  C   UNL     1       2.496  -4.709  -6.058  0.00  0.00    +0.010 A 
ATOM      9  C   UNL     1       3.611  -5.267  -6.617  0.00  0.00    +0.001 A 
ATOM     10  C   UNL     1       4.524  -4.480  -7.305  0.00  0.00    +0.002 A 
ATOM     11  C   UNL     1       4.318  -3.125  -7.446  0.00  0.00    +0.026 A 
ENDBRANCH   1   2
BRANCH   1  15
ATOM     12  C   UNL     1       0.000  -0.696  -1.211  0.00  0.00    +0.029 A 
ATOM     13  C   UNL     1       0.013  -2.085  -1.221  0.00  0.00    +0.023 A 
ATOM     14  C   UNL     1       0.010  -2.766  -2.422  0.00  0.00    +0.006 A 
ATOM     15  C   UNL     1      -0.005  -2.066  -3.615  0.00  0.00    -0.038 A 
ATOM     16  C   UNL     1      -0.018  -0.684  -3.609  0.00  0.00    +0.006 A 
ATOM     17  C   UNL     1      -0.021   0.004  -2.411  0.00  0.00    +0.023 A 
BRANCH  12  19
ATOM     18  C   UNL     1      -0.018   1.461   0.010  0.00  0.00    +0.129 C 
ATOM     19  N   UNL     1       0.002  -0.004   0.002  0.00  0.00    -0.336 N 
ATOM     20  C   UNL     1       0.024  -0.743   1.267  0.00  0.00    +0.129 C 
ENDBRANCH  12  19
ENDBRANCH   1  15
BRANCH   1  21
ATOM     21  C   UNL     1      -1.265  -2.451  -5.716  0.00  0.00    +0.117 C 
BRANCH  21  22
ATOM     22  N   UNL     1      -1.327  -3.265  -6.933  0.00  0.00    -0.313 N 
ATOM     23  C   UNL     1      -2.356  -3.117  -7.790  0.00  0.00    +0.229 C 
ATOM     24  O   UNL     1      -3.231  -2.311  -7.554  0.00  0.00    -0.274 OA
ATOM     25  H   UNL     1      -0.627  -3.909  -7.121  0.00  0.00    +0.149 HD
BRANCH  23  26
ATOM     26  C   UNL     1      -2.420  -3.954  -9.042  0.00  0.00    +0.204 C 
BRANCH  26  27
ATOM     27  N   UNL     1      -3.625  -3.607  -9.800  0.00  0.00    -0.171 NA
ATOM     28  C   UNL     1      -3.606  -2.474 -10.727  0.00  0.00    +0.132 C 
BRANCH  27  29
ATOM     29  S   UNL     1      -5.008  -4.498  -9.608  0.00  0.00    +0.062 S 
ATOM     30  O   UNL     1      -5.770  -4.325 -10.795  0.00  0.00    -0.153 OA
ATOM     31  O   UNL     1      -4.606  -5.778  -9.141  0.00  0.00    -0.153 OA
BRANCH  29  32
ATOM     32  C   UNL     1      -5.931  -3.753  -8.305  0.00  0.00    +0.123 A 
ATOM     33  C   UNL     1      -5.735  -4.149  -6.990  0.00  0.00    +0.031 A 
ATOM     34  C   UNL     1      -6.483  -3.536  -5.998  0.00  0.00    +0.022 A 
ATOM     35  C   UNL     1      -7.393  -2.556  -6.349  0.00  0.00    +0.111 A 
ATOM     36  N   UNL     1      -7.553  -2.204  -7.609  0.00  0.00    -0.261 NA
ATOM     37  C   UNL     1      -6.854  -2.762  -8.579  0.00  0.00    +0.139 A 
ENDBRANCH  29  32
ENDBRANCH  27  29
ENDBRANCH  26  27
ENDBRANCH  23  26
ENDBRANCH  21  22
ENDBRANCH   1  21
TORSDOF 9
