REMARK  Name = ZINC09581955
REMARK  14 active torsions:
REMARK  status: ('A' for Active; 'I' for Inactive)
REMARK    1  A    between atoms: C_1  and  C_2
REMARK    2  A    between atoms: C_2  and  O_3
REMARK    3  A    between atoms: O_3  and  C_4
REMARK    4  A    between atoms: C_4  and  C_6
REMARK    5  A    between atoms: C_6  and  C_7
REMARK    6  A    between atoms: C_7  and  N_8
REMARK    7  A    between atoms: C_12  and  S_30
REMARK    8  A    between atoms: N_17  and  C_18
REMARK    9  A    between atoms: C_18  and  C_20
REMARK   10  A    between atoms: C_24  and  O_28
REMARK   11  A    between atoms: C_25  and  O_26
REMARK   12  A    between atoms: O_26  and  C_27
REMARK   13  A    between atoms: O_28  and  C_29
REMARK   14  A    between atoms: S_30  and  N_33
REMARK                            x       y       z     vdW  Elec       q    Type
REMARK                         _______ _______ _______ _____ _____    ______ ____
ROOT
ATOM      1  N   UNL     1      -0.462   1.412   9.640  0.00  0.00    -0.321 N 
ATOM      2  C   UNL     1      -1.185   1.910  10.709  0.00  0.00    +0.058 A 
ATOM      3  C   UNL     1      -0.938   1.744  12.080  0.00  0.00    +0.029 A 
ATOM      4  C   UNL     1      -1.766   2.314  13.018  0.00  0.00    +0.030 A 
ATOM      5  C   UNL     1      -2.864   3.068  12.641  0.00  0.00    +0.106 A 
ATOM      6  C   UNL     1      -3.131   3.249  11.296  0.00  0.00    +0.045 A 
ATOM      7  C   UNL     1      -2.304   2.679  10.357  0.00  0.00    +0.041 A 
ATOM      8  S   UNL     1      -2.270   2.661   8.583  0.00  0.00    -0.052 S 
ATOM      9  C   UNL     1      -0.856   1.680   8.366  0.00  0.00    +0.167 A 
ATOM     10  N   UNL     1      -0.291   1.289   7.229  0.00  0.00    -0.152 NA
ENDROOT
BRANCH   5  11
ATOM     11  S   UNL     1      -3.910   3.790  13.862  0.00  0.00    +0.056 S 
ATOM     12  O   UNL     1      -3.128   3.923  15.040  0.00  0.00    -0.153 OA
ATOM     13  O   UNL     1      -4.551   4.898  13.244  0.00  0.00    -0.153 OA
BRANCH  11  14
ATOM     14  N   UNL     1      -5.097   2.687  14.204  0.00  0.00    -0.204 NA
ATOM     15  H   UNL     1      -5.109   1.831  13.749  0.00  0.00    +0.144 HD
ATOM     16  H   UNL     1      -5.780   2.897  14.860  0.00  0.00    +0.144 HD
ENDBRANCH  11  14
ENDBRANCH   5  11
BRANCH  10  17
ATOM     17  C   UNL     1      -0.824   1.653   6.058  0.00  0.00    +0.273 C 
ATOM     18  O   UNL     1      -1.829   2.343   6.033  0.00  0.00    -0.268 OA
BRANCH  17  19
ATOM     19  C   UNL     1      -0.195   1.218   4.792  0.00  0.00    +0.084 A 
ATOM     20  C   UNL     1       0.957   0.427   4.817  0.00  0.00    +0.017 A 
ATOM     21  C   UNL     1       1.541   0.024   3.636  0.00  0.00    +0.005 A 
ATOM     22  C   UNL     1       0.992   0.398   2.420  0.00  0.00    +0.049 A 
ATOM     23  C   UNL     1      -0.148   1.182   2.381  0.00  0.00    +0.162 A 
ATOM     24  C   UNL     1      -0.746   1.601   3.565  0.00  0.00    +0.174 A 
BRANCH  24  25
ATOM     25  O   UNL     1      -1.862   2.374   3.530  0.00  0.00    -0.491 OA
ATOM     26  C   UNL     1      -3.120   1.696   3.518  0.00  0.00    +0.277 C 
ENDBRANCH  24  25
BRANCH  23  27
ATOM     27  O   UNL     1      -0.682   1.547   1.184  0.00  0.00    -0.491 OA
ATOM     28  C   UNL     1      -0.013   1.086   0.008  0.00  0.00    +0.277 C 
ENDBRANCH  23  27
ENDBRANCH  17  19
ENDBRANCH  10  17
BRANCH   1  29
ATOM     29  C   UNL     1       0.729   0.593   9.881  0.00  0.00    +0.135 C 
BRANCH  29  30
ATOM     30  C   UNL     1       1.961   1.497   9.963  0.00  0.00    +0.142 C 
BRANCH  30  31
ATOM     31  C   UNL     1       3.186   0.655  10.210  0.00  0.00    +0.309 C 
ATOM     32  O   UNL     1       3.085  -0.544  10.311  0.00  0.00    -0.251 OA
BRANCH  31  33
ATOM     33  O   UNL     1       4.390   1.239  10.319  0.00  0.00    -0.465 OA
BRANCH  33  35
ATOM     34  C   UNL     1       6.803   1.204  10.651  0.00  0.00    +0.048 C 
ATOM     35  C   UNL     1       5.526   0.366  10.557  0.00  0.00    +0.229 C 
ENDBRANCH  33  35
ENDBRANCH  31  33
ENDBRANCH  30  31
ENDBRANCH  29  30
ENDBRANCH   1  29
TORSDOF 11
