REMARK  Name = ZINC26457228
REMARK  2 active torsions:
REMARK  status: ('A' for Active; 'I' for Inactive)
REMARK    1  A    between atoms: C_1  and  N_2
REMARK    2  A    between atoms: C_7  and  C_21
REMARK                            x       y       z     vdW  Elec       q    Type
REMARK                         _______ _______ _______ _____ _____    ______ ____
ROOT
ATOM      1  C   UNL     1      -0.018   1.465   0.010  0.00  0.00    -0.096 C 
ATOM      2  N   UNL     1       0.002  -0.004   0.002  0.00  0.00    +0.381 N 
ATOM      3  C   UNL     1      -1.377  -0.515   0.024  0.00  0.00    -0.073 C 
ATOM      4  C   UNL     1      -1.347  -2.010  -0.295  0.00  0.00    +0.037 C 
ATOM      5  C   UNL     1      -0.348  -2.703   0.597  0.00  0.00    +0.043 A 
ATOM      6  C   UNL     1       0.615  -1.992   1.286  0.00  0.00    -0.034 A 
ATOM      7  C   UNL     1       1.526  -2.663   2.099  0.00  0.00    -0.003 A 
ATOM      8  C   UNL     1       1.443  -4.080   2.208  0.00  0.00    +0.040 A 
ATOM      9  C   UNL     1       2.294  -4.973   3.005  0.00  0.00    +0.070 A 
ATOM     10  C   UNL     1       1.998  -6.324   2.935  0.00  0.00    +0.085 A 
ATOM     11  C   UNL     1       2.729  -7.285   3.646  0.00  0.00    +0.200 A 
ATOM     12  C   UNL     1       3.782  -6.867   4.443  0.00  0.00    +0.122 A 
ATOM     13  C   UNL     1       4.074  -5.500   4.507  0.00  0.00    +0.253 A 
ATOM     14  O   UNL     1       5.000  -5.121   5.207  0.00  0.00    -0.268 OA
ATOM     15  N   UNL     1       3.362  -4.598   3.819  0.00  0.00    -0.321 N 
ATOM     16  H   UNL     1       3.595  -3.660   3.889  0.00  0.00    +0.169 HD
ATOM     17  O   UNL     1       2.412  -8.599   3.555  0.00  0.00    -0.286 OA
ATOM     18  S   UNL     1       0.613  -6.427   1.831  0.00  0.00    -0.063 S 
ATOM     19  C   UNL     1       0.422  -4.700   1.463  0.00  0.00    +0.112 A 
ATOM     20  N   UNL     1      -0.412  -4.021   0.708  0.00  0.00    -0.244 NA
ATOM     21  C   UNL     1       0.711  -0.491   1.189  0.00  0.00    -0.041 C 
ATOM     22  H   UNL     1       0.471  -0.331  -0.829  0.00  0.00    -0.082 HD
ENDROOT
BRANCH   7  23
ATOM     23  C   UNL     1       2.566  -1.912   2.840  0.00  0.00    -0.017 A 
ATOM     24  C   UNL     1       3.558  -1.220   2.146  0.00  0.00    +0.008 A 
ATOM     25  C   UNL     1       4.524  -0.522   2.841  0.00  0.00    +0.001 A 
ATOM     26  C   UNL     1       4.509  -0.508   4.225  0.00  0.00    +0.000 A 
ATOM     27  C   UNL     1       3.527  -1.192   4.919  0.00  0.00    +0.001 A 
ATOM     28  C   UNL     1       2.553  -1.889   4.234  0.00  0.00    +0.008 A 
ENDBRANCH   7  23
TORSDOF 1
