REMARK  Name = ZINC09692637
REMARK  12 active torsions:
REMARK  status: ('A' for Active; 'I' for Inactive)
REMARK    1  A    between atoms: C_1  and  C_2
REMARK    2  A    between atoms: C_2  and  N_3
REMARK    3  A    between atoms: N_3  and  C_4
REMARK    4  A    between atoms: N_3  and  C_31
REMARK    5  A    between atoms: C_4  and  C_5
REMARK    6  A    between atoms: C_5  and  N_6
REMARK    7  A    between atoms: C_7  and  C_9
REMARK    8  A    between atoms: C_9  and  C_11
REMARK    9  A    between atoms: C_9  and  N_18
REMARK   10  A    between atoms: C_11  and  C_12
REMARK   11  A    between atoms: N_18  and  S_19
REMARK   12  A    between atoms: S_19  and  C_22
REMARK                            x       y       z     vdW  Elec       q    Type
REMARK                         _______ _______ _______ _____ _____    ______ ____
ROOT
ATOM      1  C   UNL     1       3.103  -2.616  -1.874  0.00  0.00    +0.166 C 
ENDROOT
BRANCH   1   3
ATOM      2  N   UNL     1       4.927  -3.510  -3.286  0.00  0.00    -0.312 N 
ATOM      3  C   UNL     1       3.670  -3.644  -2.819  0.00  0.00    +0.232 C 
ATOM      4  O   UNL     1       2.994  -4.592  -3.160  0.00  0.00    -0.274 OA
ATOM      5  H   UNL     1       5.467  -2.752  -3.013  0.00  0.00    +0.149 HD
BRANCH   2   6
ATOM      6  C   UNL     1       5.477  -4.510  -4.205  0.00  0.00    +0.123 C 
BRANCH   6   7
ATOM      7  C   UNL     1       6.910  -4.125  -4.579  0.00  0.00    +0.124 C 
BRANCH   7   8
ATOM      8  N   UNL     1       7.460  -5.124  -5.498  0.00  0.00    -0.329 N 
BRANCH   8   9
ATOM      9  C   UNL     1       8.139  -6.236  -4.995  0.00  0.00    +0.030 A 
ATOM     10  C   UNL     1       8.299  -6.393  -3.623  0.00  0.00    +0.023 A 
ATOM     11  C   UNL     1       8.967  -7.496  -3.129  0.00  0.00    +0.002 A 
ATOM     12  C   UNL     1       9.486  -8.439  -3.998  0.00  0.00    +0.000 A 
ATOM     13  C   UNL     1       9.333  -8.283  -5.364  0.00  0.00    +0.002 A 
ATOM     14  C   UNL     1       8.662  -7.185  -5.864  0.00  0.00    +0.023 A 
ENDBRANCH   8   9
BRANCH   8  16
ATOM     15  C   UNL     1       8.483  -4.166  -7.502  0.00  0.00    +0.024 C 
ATOM     16  C   UNL     1       7.298  -4.957  -6.944  0.00  0.00    +0.102 C 
ENDBRANCH   8  16
ENDBRANCH   7   8
ENDBRANCH   6   7
ENDBRANCH   2   6
ENDBRANCH   1   3
BRANCH   1  17
ATOM     17  N   UNL     1       1.732  -2.985  -1.516  0.00  0.00    -0.178 NA
ATOM     18  H   UNL     1       0.994  -2.730  -2.092  0.00  0.00    +0.149 HD
BRANCH  17  19
ATOM     19  S   UNL     1       1.440  -3.837  -0.126  0.00  0.00    +0.061 S 
ATOM     20  O   UNL     1       2.385  -4.898  -0.095  0.00  0.00    -0.153 OA
ATOM     21  O   UNL     1       0.038  -4.064  -0.076  0.00  0.00    -0.153 OA
BRANCH  19  22
ATOM     22  C   UNL     1       1.827  -2.777   1.227  0.00  0.00    +0.133 A 
ATOM     23  C   UNL     1       0.836  -2.291   2.011  0.00  0.00    +0.031 A 
ATOM     24  C   UNL     1       1.105  -1.449   3.090  0.00  0.00    +0.004 A 
ATOM     25  C   UNL     1       2.371  -1.081   3.403  0.00  0.00    +0.031 A 
ATOM     26  C   UNL     1       3.460  -1.553   2.625  0.00  0.00    +0.102 A 
ATOM     27  C   UNL     1       3.178  -2.434   1.495  0.00  0.00    +0.126 A 
ATOM     28  N   UNL     1       4.287  -2.799   0.856  0.00  0.00    -0.189 NA
ATOM     29  S   UNL     1       5.474  -2.107   1.610  0.00  0.00    +0.117 S 
ATOM     30  N   UNL     1       4.763  -1.315   2.760  0.00  0.00    -0.191 NA
ENDBRANCH  19  22
ENDBRANCH  17  19
ENDBRANCH   1  17
BRANCH   1  31
ATOM     31  C   UNL     1       3.102  -1.245  -2.553  0.00  0.00    +0.065 C 
BRANCH  31  32
ATOM     32  C   UNL     1       2.663  -0.195  -1.565  0.00  0.00    -0.045 A 
ATOM     33  C   UNL     1       1.320   0.093  -1.413  0.00  0.00    +0.004 A 
ATOM     34  C   UNL     1       0.917   1.053  -0.503  0.00  0.00    +0.000 A 
ATOM     35  C   UNL     1       1.859   1.731   0.248  0.00  0.00    +0.000 A 
ATOM     36  C   UNL     1       3.203   1.447   0.092  0.00  0.00    +0.000 A 
ATOM     37  C   UNL     1       3.605   0.484  -0.814  0.00  0.00    +0.004 A 
ENDBRANCH  31  32
ENDBRANCH   1  31
TORSDOF 11
