REMARK  Name = ZINC40322378
REMARK  7 active torsions:
REMARK  status: ('A' for Active; 'I' for Inactive)
REMARK    1  A    between atoms: C_1  and  C_2
REMARK    2  A    between atoms: C_5  and  S_8
REMARK    3  A    between atoms: S_8  and  C_11
REMARK    4  A    between atoms: C_14  and  C_16
REMARK    5  A    between atoms: C_22  and  S_24
REMARK    6  A    between atoms: S_24  and  C_25
REMARK    7  A    between atoms: C_25  and  C_26
REMARK                            x       y       z     vdW  Elec       q    Type
REMARK                         _______ _______ _______ _____ _____    ______ ____
ROOT
ATOM      1  C   UNL     1       4.847  -5.931  -1.667  0.00  0.00    +0.285 C 
ATOM      2  O   UNL     1       5.929  -6.255  -1.214  0.00  0.00    -0.266 OA
ATOM      3  N   UNL     1       4.666  -5.865  -3.001  0.00  0.00    -0.257 N 
ATOM      4  C   UNL     1       5.718  -6.169  -3.861  0.00  0.00    +0.189 A 
ATOM      5  N   UNL     1       6.949  -6.542  -3.575  0.00  0.00    -0.125 NA
ATOM      6  N   UNL     1       7.841  -6.796  -4.591  0.00  0.00    -0.133 NA
ATOM      7  C   UNL     1       7.459  -6.665  -5.848  0.00  0.00    +0.160 A 
ATOM      8  S   UNL     1       5.756  -6.165  -5.647  0.00  0.00    -0.024 S 
ATOM      9  H   UNL     1       3.804  -5.607  -3.362  0.00  0.00    +0.157 HD
ENDROOT
BRANCH   1  13
ATOM     10  C   UNL     1       1.752  -5.029  -0.035  0.00  0.00    +0.246 A 
ATOM     11  C   UNL     1       2.512  -5.263   1.058  0.00  0.00    +0.070 A 
ATOM     12  C   UNL     1       3.786  -5.637   0.604  0.00  0.00    +0.056 A 
ATOM     13  C   UNL     1       3.740  -5.611  -0.761  0.00  0.00    +0.192 A 
ATOM     14  O   UNL     1       2.494  -5.245  -1.129  0.00  0.00    -0.433 OA
BRANCH  10  15
ATOM     15  S   UNL     1       0.063  -4.530  -0.023  0.00  0.00    +0.058 S 
ATOM     16  O   UNL     1      -0.476  -4.950   1.223  0.00  0.00    -0.161 OA
ATOM     17  O   UNL     1      -0.490  -4.937  -1.267  0.00  0.00    -0.161 OA
BRANCH  15  22
ATOM     18  C   UNL     1      -0.018   1.503   0.010  0.00  0.00    +0.044 C 
ATOM     19  C   UNL     1       0.002  -0.004   0.002  0.00  0.00    -0.050 A 
ATOM     20  C   UNL     1       0.006  -0.689  -1.199  0.00  0.00    +0.005 A 
ATOM     21  C   UNL     1       0.025  -2.071  -1.206  0.00  0.00    +0.028 A 
ATOM     22  C   UNL     1       0.040  -2.768  -0.013  0.00  0.00    +0.097 A 
ATOM     23  C   UNL     1       0.037  -2.084   1.188  0.00  0.00    +0.028 A 
ATOM     24  C   UNL     1       0.023  -0.702   1.195  0.00  0.00    +0.005 A 
ENDBRANCH  15  22
ENDBRANCH  10  15
ENDBRANCH   1  13
BRANCH   7  25
ATOM     25  S   UNL     1       8.379  -6.923  -7.328  0.00  0.00    -0.092 S 
BRANCH  25  26
ATOM     26  C   UNL     1      10.021  -7.423  -6.742  0.00  0.00    +0.111 C 
BRANCH  26  27
ATOM     27  C   UNL     1      10.921  -7.678  -7.925  0.00  0.00    -0.037 A 
ATOM     28  C   UNL     1      10.984  -8.940  -8.485  0.00  0.00    +0.007 A 
ATOM     29  C   UNL     1      11.808  -9.175  -9.569  0.00  0.00    +0.038 A 
ATOM     30  C   UNL     1      12.570  -8.145 -10.095  0.00  0.00    +0.123 A 
ATOM     31  C   UNL     1      12.506  -6.881  -9.533  0.00  0.00    +0.038 A 
ATOM     32  C   UNL     1      11.677  -6.648  -8.451  0.00  0.00    +0.007 A 
ATOM     33  F   UNL     1      13.376  -8.373 -11.155  0.00  0.00    -0.205 F 
ENDBRANCH  26  27
ENDBRANCH  25  26
ENDBRANCH   7  25
TORSDOF 6
