REMARK  Name = ZINC63869720
REMARK  6 active torsions:
REMARK  status: ('A' for Active; 'I' for Inactive)
REMARK    1  A    between atoms: C_1  and  C_2
REMARK    2  A    between atoms: C_2  and  C_3
REMARK    3  A    between atoms: C_2  and  C_4
REMARK    4  A    between atoms: N_11  and  C_12
REMARK    5  A    between atoms: C_12  and  C_13
REMARK    6  A    between atoms: C_18  and  C_19
REMARK                            x       y       z     vdW  Elec       q    Type
REMARK                         _______ _______ _______ _____ _____    ______ ____
ROOT
ATOM      1  C   UNL     1      -0.397  -4.033  -1.155  0.00  0.00    -0.053 A 
ATOM      2  C   UNL     1       0.888  -4.523  -1.046  0.00  0.00    +0.002 A 
ATOM      3  C   UNL     1       1.106  -5.885  -0.940  0.00  0.00    +0.000 A 
ATOM      4  C   UNL     1       0.038  -6.765  -0.942  0.00  0.00    +0.001 A 
ATOM      5  C   UNL     1      -1.252  -6.288  -1.050  0.00  0.00    +0.012 A 
ATOM      6  C   UNL     1      -1.479  -4.914  -1.151  0.00  0.00    +0.019 A 
ENDROOT
BRANCH   6   7
ATOM      7  C   UNL     1      -2.858  -4.396  -1.260  0.00  0.00    +0.141 A 
ATOM      8  N   UNL     1      -3.907  -5.259  -1.143  0.00  0.00    -0.307 N 
ATOM      9  H   UNL     1      -3.745  -6.204  -0.990  0.00  0.00    +0.170 HD
ATOM     10  C   UNL     1      -5.172  -4.793  -1.239  0.00  0.00    +0.255 A 
ATOM     11  O   UNL     1      -6.127  -5.546  -1.137  0.00  0.00    -0.268 OA
ATOM     12  C   UNL     1      -5.357  -3.415  -1.460  0.00  0.00    +0.038 A 
ATOM     13  C   UNL     1      -4.280  -2.607  -1.572  0.00  0.00    +0.052 A 
ATOM     14  N   UNL     1      -3.050  -3.109  -1.465  0.00  0.00    -0.234 NA
ATOM     15  C   UNL     1      -4.466  -1.124  -1.818  0.00  0.00    +0.056 C 
ATOM     16  C   UNL     1      -4.978  -0.929  -3.247  0.00  0.00    +0.006 C 
ATOM     17  C   UNL     1      -6.488  -1.056  -3.304  0.00  0.00    +0.001 C 
ATOM     18  C   UNL     1      -7.007  -2.454  -3.027  0.00  0.00    +0.005 C 
ATOM     19  C   UNL     1      -6.756  -2.849  -1.569  0.00  0.00    +0.042 C 
ENDBRANCH   6   7
BRANCH   1  20
ATOM     20  C   UNL     1      -0.632  -2.549  -1.271  0.00  0.00    -0.041 C 
BRANCH  20  27
ATOM     21  C   UNL     1       0.446  -0.406  -1.344  0.00  0.00    +0.022 C 
ATOM     22  C   UNL     1       1.671   0.364  -0.943  0.00  0.00    +0.200 C 
ATOM     23  O   UNL     1       1.831   1.480  -1.392  0.00  0.00    -0.278 OA
ATOM     24  N   UNL     1       2.594  -0.130  -0.109  0.00  0.00    -0.318 N 
ATOM     25  C   UNL     1       2.501  -1.472   0.461  0.00  0.00    +0.085 C 
ATOM     26  C   UNL     1       1.070  -1.996   0.329  0.00  0.00    -0.058 C 
ATOM     27  N   UNL     1       0.636  -1.835  -1.067  0.00  0.00    +0.391 N 
ATOM     28  H   UNL     1       3.354   0.425   0.126  0.00  0.00    +0.149 HD
ATOM     29  H   UNL     1       1.339  -2.208  -1.687  0.00  0.00    -0.080 HD
BRANCH  21  31
ATOM     30  C   UNL     1      -0.157   1.257  -3.110  0.00  0.00    +0.006 C 
ATOM     31  C   UNL     1       0.190  -0.209  -2.840  0.00  0.00    -0.022 C 
ATOM     32  C   UNL     1       1.447  -0.588  -3.626  0.00  0.00    +0.006 C 
ENDBRANCH  21  31
ENDBRANCH  20  27
ENDBRANCH   1  20
TORSDOF 4
