REMARK  Name = ZINC12637759
REMARK  9 active torsions:
REMARK  status: ('A' for Active; 'I' for Inactive)
REMARK    1  A    between atoms: C_1  and  C_2
REMARK    2  A    between atoms: C_4  and  C_38
REMARK    3  A    between atoms: C_6  and  N_8
REMARK    4  A    between atoms: N_8  and  C_9
REMARK    5  A    between atoms: C_9  and  C_11
REMARK    6  A    between atoms: C_9  and  C_18
REMARK    7  A    between atoms: C_14  and  O_17
REMARK    8  A    between atoms: N_20  and  C_21
REMARK    9  A    between atoms: C_26  and  C_28
REMARK                            x       y       z     vdW  Elec       q    Type
REMARK                         _______ _______ _______ _____ _____    ______ ____
ROOT
ATOM      1  N   UNL     1       3.869  -2.066   0.367  0.00  0.00    -0.251 N 
ATOM      2  C   UNL     1       3.820  -0.726   0.507  0.00  0.00    +0.252 C 
ATOM      3  O   UNL     1       3.038  -0.225   1.293  0.00  0.00    -0.270 OA
ENDROOT
BRANCH   2   4
ATOM      4  C   UNL     1       4.715   0.132  -0.293  0.00  0.00    +0.041 A 
ATOM      5  C   UNL     1       5.919  -0.377  -0.784  0.00  0.00    +0.017 A 
ATOM      6  C   UNL     1       6.753   0.427  -1.529  0.00  0.00    +0.050 A 
ATOM      7  C   UNL     1       6.402   1.746  -1.794  0.00  0.00    +0.162 A 
ATOM      8  C   UNL     1       5.201   2.259  -1.310  0.00  0.00    +0.163 A 
ATOM      9  C   UNL     1       4.360   1.457  -0.560  0.00  0.00    +0.062 A 
ATOM     10  O   UNL     1       4.839   3.545  -1.568  0.00  0.00    -0.485 OA
ATOM     11  C   UNL     1       5.876   4.431  -2.005  0.00  0.00    +0.270 C 
ATOM     12  C   UNL     1       6.691   3.716  -3.092  0.00  0.00    +0.270 C 
ATOM     13  O   UNL     1       7.245   2.524  -2.525  0.00  0.00    -0.485 OA
ENDBRANCH   2   4
BRANCH   1  19
ATOM     14  C   UNL     1      -0.761  -3.711   0.225  0.00  0.00    +0.044 C 
ATOM     15  C   UNL     1       0.603  -3.680   0.864  0.00  0.00    -0.048 A 
ATOM     16  C   UNL     1       0.856  -4.441   1.990  0.00  0.00    +0.006 A 
ATOM     17  C   UNL     1       2.107  -4.415   2.579  0.00  0.00    -0.048 A 
ATOM     18  C   UNL     1       3.108  -3.629   2.044  0.00  0.00    +0.027 A 
ATOM     19  C   UNL     1       2.857  -2.863   0.912  0.00  0.00    +0.038 A 
ATOM     20  C   UNL     1       1.598  -2.887   0.327  0.00  0.00    +0.027 A 
ATOM     21  C   UNL     1       2.378  -5.247   3.807  0.00  0.00    +0.044 C 
ENDBRANCH   1  19
BRANCH   1  22
ATOM     22  C   UNL     1       4.982  -2.687  -0.355  0.00  0.00    +0.197 C 
BRANCH  22  23
ATOM     23  C   UNL     1       4.771  -4.178  -0.418  0.00  0.00    -0.018 A 
ATOM     24  C   UNL     1       3.734  -4.697  -1.170  0.00  0.00    +0.009 A 
ATOM     25  C   UNL     1       3.542  -6.064  -1.234  0.00  0.00    +0.046 A 
ATOM     26  C   UNL     1       4.383  -6.915  -0.532  0.00  0.00    +0.117 A 
ATOM     27  C   UNL     1       5.420  -6.390   0.227  0.00  0.00    +0.046 A 
ATOM     28  C   UNL     1       5.611  -5.023   0.282  0.00  0.00    +0.009 A 
BRANCH  26  29
ATOM     29  O   UNL     1       4.193  -8.259  -0.587  0.00  0.00    -0.507 OA
ATOM     30  H   UNL     1       3.601  -8.601   0.097  0.00  0.00    +0.292 HD
ENDBRANCH  26  29
ENDBRANCH  22  23
BRANCH  22  31
ATOM     31  C   UNL     1       5.045  -2.130  -1.754  0.00  0.00    +0.239 C 
ATOM     32  O   UNL     1       4.240  -1.296  -2.112  0.00  0.00    -0.273 OA
ATOM     33  N   UNL     1       5.997  -2.558  -2.607  0.00  0.00    -0.311 N 
ATOM     34  H   UNL     1       6.640  -3.224  -2.321  0.00  0.00    +0.149 HD
BRANCH  33  35
ATOM     35  C   UNL     1       6.058  -2.016  -3.967  0.00  0.00    +0.073 C 
ATOM     36  C   UNL     1       5.153  -2.840  -4.906  0.00  0.00    +0.022 C 
ATOM     37  C   UNL     1       5.935  -2.888  -6.242  0.00  0.00    +0.002 C 
ATOM     38  C   UNL     1       7.404  -3.032  -5.773  0.00  0.00    +0.002 C 
ATOM     39  C   UNL     1       7.490  -2.138  -4.519  0.00  0.00    +0.022 C 
ENDBRANCH  33  35
ENDBRANCH  22  31
ENDBRANCH   1  22
TORSDOF 7
