REMARK  Name = ZINC35743748
REMARK  13 active torsions:
REMARK  status: ('A' for Active; 'I' for Inactive)
REMARK    1  A    between atoms: C_1  and  C_2
REMARK    2  A    between atoms: C_2  and  C_4
REMARK    3  A    between atoms: C_2  and  N_17
REMARK    4  A    between atoms: N_14  and  C_15
REMARK    5  A    between atoms: N_17  and  C_18
REMARK    6  A    between atoms: C_18  and  C_19
REMARK    7  A    between atoms: C_19  and  C_20
REMARK    8  A    between atoms: C_20  and  C_21
REMARK    9  A    between atoms: C_21  and  C_22
REMARK   10  A    between atoms: C_22  and  C_23
REMARK   11  A    between atoms: C_23  and  N_24
REMARK   12  A    between atoms: C_25  and  C_27
REMARK   13  A    between atoms: C_30  and  N_34
REMARK                            x       y       z     vdW  Elec       q    Type
REMARK                         _______ _______ _______ _____ _____    ______ ____
ROOT
ATOM      1  N   UNL     1      -0.685  -1.231   0.352  0.00  0.00    -0.288 N 
ATOM      2  C   UNL     1      -1.538  -1.142   1.393  0.00  0.00    +0.249 C 
ATOM      3  O   UNL     1      -2.403  -1.983   1.543  0.00  0.00    -0.270 OA
ENDROOT
BRANCH   2   4
ATOM      4  C   UNL     1      -1.420  -0.023   2.350  0.00  0.00    +0.055 A 
ATOM      5  C   UNL     1      -0.453   0.966   2.158  0.00  0.00    +0.017 A 
ATOM      6  C   UNL     1      -0.349   2.008   3.055  0.00  0.00    +0.033 A 
ATOM      7  C   UNL     1      -1.200   2.076   4.145  0.00  0.00    +0.128 A 
ATOM      8  C   UNL     1      -2.160   1.101   4.342  0.00  0.00    +0.053 A 
ATOM      9  C   UNL     1      -2.280   0.054   3.448  0.00  0.00    +0.055 A 
ATOM     10 CL   UNL     1      -3.491  -1.165   3.693  0.00  0.00    -0.083 Cl
BRANCH   7  11
ATOM     11  N   UNL     1      -1.081   3.198   5.103  0.00  0.00    +0.056 N 
ATOM     12  O   UNL     1      -0.242   4.051   4.933  0.00  0.00    -0.126 OA
ATOM     13  O   UNL     1      -1.823   3.260   6.056  0.00  0.00    -0.126 OA
ENDBRANCH   7  11
ENDBRANCH   2   4
BRANCH   1  15
ATOM     14  C   UNL     1       0.357   0.914  -0.190  0.00  0.00    +0.036 C 
ATOM     15  C   UNL     1       0.578  -0.491   0.375  0.00  0.00    +0.139 C 
BRANCH  15  16
ATOM     16  C   UNL     1       1.075  -0.389   1.794  0.00  0.00    +0.133 A 
ATOM     17  N   UNL     1       0.375  -0.948   2.733  0.00  0.00    -0.232 NA
ATOM     18  C   UNL     1       0.761  -0.897   4.033  0.00  0.00    +0.080 A 
ATOM     19  C   UNL     1       0.010  -1.498   5.045  0.00  0.00    +0.048 A 
ATOM     20  C   UNL     1       0.444  -1.420   6.351  0.00  0.00    +0.043 A 
ATOM     21  C   UNL     1       1.619  -0.749   6.671  0.00  0.00    +0.021 A 
ATOM     22  C   UNL     1       2.370  -0.153   5.697  0.00  0.00    +0.017 A 
ATOM     23  C   UNL     1       1.954  -0.219   4.368  0.00  0.00    +0.065 A 
ATOM     24  C   UNL     1       2.723   0.403   3.281  0.00  0.00    +0.262 A 
ATOM     25  O   UNL     1       3.759   1.002   3.501  0.00  0.00    -0.267 OA
ATOM     26  N   UNL     1       2.236   0.279   2.024  0.00  0.00    -0.298 N 
ATOM     27  C   UNL     1       2.965   0.875   0.901  0.00  0.00    +0.154 C 
ATOM     28 CL   UNL     1      -0.488  -2.166   7.611  0.00  0.00    -0.083 Cl
ENDBRANCH  15  16
ENDBRANCH   1  15
BRANCH   1  29
ATOM     29  C   UNL     1      -1.023  -2.069  -0.802  0.00  0.00    +0.109 C 
BRANCH  29  30
ATOM     30  C   UNL     1      -0.492  -3.486  -0.576  0.00  0.00    +0.019 C 
BRANCH  30  31
ATOM     31  C   UNL     1      -0.845  -4.360  -1.781  0.00  0.00    +0.001 C 
BRANCH  31  32
ATOM     32  C   UNL     1      -0.314  -5.777  -1.555  0.00  0.00    -0.002 C 
BRANCH  32  33
ATOM     33  C   UNL     1      -0.666  -6.652  -2.760  0.00  0.00    -0.020 C 
BRANCH  33  34
ATOM     34  C   UNL     1      -0.136  -8.069  -2.534  0.00  0.00    -0.086 C 
BRANCH  34  35
ATOM     35  N   UNL     1      -0.474  -8.909  -3.691  0.00  0.00    +0.378 N 
ATOM     36  H   UNL     1      -1.476  -8.939  -3.803  0.00  0.00    -0.090 HD
ATOM     37  H   UNL     1      -0.054  -8.521  -4.523  0.00  0.00    -0.090 HD
ATOM     38  H   UNL     1      -0.124  -9.843  -3.542  0.00  0.00    -0.090 HD
ENDBRANCH  34  35
ENDBRANCH  33  34
ENDBRANCH  32  33
ENDBRANCH  31  32
ENDBRANCH  30  31
ENDBRANCH  29  30
ENDBRANCH   1  29
TORSDOF 11
