REMARK  Name = ZINC04545765
REMARK  5 active torsions:
REMARK  status: ('A' for Active; 'I' for Inactive)
REMARK    1  A    between atoms: C_3  and  N_22
REMARK    2  A    between atoms: C_6  and  C_7
REMARK    3  A    between atoms: N_8  and  N_9
REMARK    4  A    between atoms: C_10  and  C_12
REMARK    5  A    between atoms: C_12  and  C_13
REMARK                            x       y       z     vdW  Elec       q    Type
REMARK                         _______ _______ _______ _____ _____    ______ ____
ROOT
ATOM      1  N   UNL     1       7.382  -1.247   1.497  0.00  0.00    -0.207 N 
ATOM      2  C   UNL     1       6.078  -1.085   1.196  0.00  0.00    +0.237 C 
ATOM      3  O   UNL     1       5.687  -1.283   0.065  0.00  0.00    -0.274 OA
ATOM      4  H   UNL     1       7.695  -1.089   2.401  0.00  0.00    +0.177 HD
ENDROOT
BRANCH   1   6
ATOM      5  C   UNL     1       9.540  -1.803   0.792  0.00  0.00    +0.138 C 
ATOM      6  N   UNL     1       8.285  -1.646   0.503  0.00  0.00    -0.188 NA
BRANCH   5  12
ATOM      7  C   UNL     1      10.043  -2.458  -1.556  0.00  0.00    +0.012 A 
ATOM      8  C   UNL     1      10.939  -2.847  -2.531  0.00  0.00    +0.033 A 
ATOM      9  C   UNL     1      12.277  -3.013  -2.219  0.00  0.00    +0.126 A 
ATOM     10  C   UNL     1      12.727  -2.786  -0.930  0.00  0.00    +0.033 A 
ATOM     11  C   UNL     1      11.843  -2.393   0.053  0.00  0.00    +0.012 A 
ATOM     12  C   UNL     1      10.491  -2.223  -0.255  0.00  0.00    -0.005 A 
BRANCH   9  13
ATOM     13  N   UNL     1      13.231  -3.436  -3.269  0.00  0.00    +0.056 N 
ATOM     14  O   UNL     1      14.409  -3.583  -2.997  0.00  0.00    -0.126 OA
ATOM     15  O   UNL     1      12.838  -3.636  -4.404  0.00  0.00    -0.126 OA
ENDBRANCH   9  13
ENDBRANCH   5  12
ENDBRANCH   1   6
BRANCH   2  16
ATOM     16  C   UNL     1       5.107  -0.655   2.265  0.00  0.00    +0.132 C 
BRANCH  16  17
ATOM     17  C   UNL     1       3.725  -0.548   1.674  0.00  0.00    -0.035 A 
ATOM     18  C   UNL     1       2.885  -1.646   1.677  0.00  0.00    +0.008 A 
ATOM     19  C   UNL     1       1.617  -1.553   1.135  0.00  0.00    +0.050 A 
ATOM     20  C   UNL     1       1.183  -0.356   0.589  0.00  0.00    +0.166 A 
ATOM     21  C   UNL     1       2.028   0.751   0.586  0.00  0.00    +0.166 A 
ATOM     22  C   UNL     1       3.298   0.650   1.131  0.00  0.00    +0.053 A 
ATOM     23  O   UNL     1       1.376   1.797  -0.001  0.00  0.00    -0.453 OA
ATOM     24  C   UNL     1      -0.018   1.436   0.010  0.00  0.00    +0.466 C 
ATOM     25  O   UNL     1       0.002  -0.004   0.002  0.00  0.00    -0.453 OA
ENDBRANCH  16  17
ENDBRANCH   2  16
TORSDOF 5
