REMARK  Name = ZINC04535275
REMARK  8 active torsions:
REMARK  status: ('A' for Active; 'I' for Inactive)
REMARK    1  A    between atoms: C_1  and  C_2
REMARK    2  A    between atoms: C_2  and  C_32
REMARK    3  A    between atoms: C_6  and  C_17
REMARK    4  A    between atoms: C_20  and  O_25
REMARK    5  A    between atoms: C_21  and  O_23
REMARK    6  A    between atoms: O_23  and  C_24
REMARK    7  A    between atoms: O_25  and  C_26
REMARK    8  A    between atoms: C_26  and  C_27
REMARK                            x       y       z     vdW  Elec       q    Type
REMARK                         _______ _______ _______ _____ _____    ______ ____
ROOT
ATOM      1  C   UNL     1      -0.019   1.526   0.010  0.00  0.00    +0.011 C 
ATOM      2  C   UNL     1       0.002  -0.004   0.002  0.00  0.00    -0.023 C 
ATOM      3  C   UNL     1       0.740  -0.501  -1.243  0.00  0.00    +0.058 C 
ATOM      4  C   UNL     1       2.167  -0.013  -1.215  0.00  0.00    +0.017 C 
ATOM      5  C   UNL     1       2.814   0.180  -0.046  0.00  0.00    +0.024 C 
ATOM      6  C   UNL     1       4.244   0.656  -0.021  0.00  0.00    +0.092 C 
ATOM      7  C   UNL     1       4.636   1.268  -1.334  0.00  0.00    +0.067 A 
ATOM      8  C   UNL     1       3.909   1.032  -2.461  0.00  0.00    +0.113 A 
ATOM      9  N   UNL     1       4.296   1.600  -3.650  0.00  0.00    -0.295 N 
ATOM     10  C   UNL     1       5.386   2.388  -3.704  0.00  0.00    +0.328 A 
ATOM     11  O   UNL     1       5.717   2.883  -4.764  0.00  0.00    -0.247 OA
ATOM     12  N   UNL     1       6.115   2.636  -2.600  0.00  0.00    -0.275 N 
ATOM     13  C   UNL     1       5.770   2.098  -1.415  0.00  0.00    +0.260 A 
ATOM     14  O   UNL     1       6.434   2.327  -0.419  0.00  0.00    -0.267 OA
ATOM     15  N   UNL     1       2.794   0.233  -2.407  0.00  0.00    -0.303 N 
ATOM     16  C   UNL     1       2.173  -0.055   1.183  0.00  0.00    +0.162 C 
ATOM     17  O   UNL     1       2.786   0.119   2.218  0.00  0.00    -0.292 OA
ATOM     18  C   UNL     1       0.743  -0.516   1.242  0.00  0.00    +0.086 C 
ATOM     19  C   UNL     1      -1.432  -0.538   0.003  0.00  0.00    +0.011 C 
ATOM     20  H   UNL     1       2.446  -0.161  -3.223  0.00  0.00    +0.153 HD
ATOM     21  H   UNL     1       6.897   3.208  -2.659  0.00  0.00    +0.173 HD
ATOM     22  H   UNL     1       3.782   1.433  -4.456  0.00  0.00    +0.172 HD
ENDROOT
BRANCH   6  23
ATOM     23  C   UNL     1       5.149  -0.514   0.267  0.00  0.00    -0.032 A 
ATOM     24  C   UNL     1       5.171  -1.597  -0.592  0.00  0.00    +0.008 A 
ATOM     25  C   UNL     1       6.000  -2.672  -0.332  0.00  0.00    +0.050 A 
ATOM     26  C   UNL     1       6.811  -2.667   0.792  0.00  0.00    +0.162 A 
ATOM     27  C   UNL     1       6.788  -1.576   1.657  0.00  0.00    +0.162 A 
ATOM     28  C   UNL     1       5.959  -0.499   1.387  0.00  0.00    +0.054 A 
BRANCH  27  29
ATOM     29  O   UNL     1       7.582  -1.566   2.761  0.00  0.00    -0.491 OA
ATOM     30  C   UNL     1       7.507  -0.414   3.603  0.00  0.00    +0.277 C 
ENDBRANCH  27  29
BRANCH  26  31
ATOM     31  O   UNL     1       7.626  -3.724   1.050  0.00  0.00    -0.484 OA
BRANCH  31  32
ATOM     32  C   UNL     1       7.596  -4.808   0.119  0.00  0.00    +0.256 C 
BRANCH  32  33
ATOM     33  C   UNL     1       8.556  -5.880   0.566  0.00  0.00    +0.006 C 
ATOM     34  C   UNL     1       8.190  -7.138   0.546  0.00  0.00    +0.007 C 
ENDBRANCH  32  33
ENDBRANCH  31  32
ENDBRANCH  26  31
ENDBRANCH   6  23
TORSDOF 5
