REMARK  Name = ZINC36589214
REMARK  12 active torsions:
REMARK  status: ('A' for Active; 'I' for Inactive)
REMARK    1  A    between atoms: C_1  and  C_2
REMARK    2  A    between atoms: C_2  and  C_32
REMARK    3  A    between atoms: C_3  and  C_4
REMARK    4  A    between atoms: N_6  and  C_7
REMARK    5  A    between atoms: N_6  and  C_28
REMARK    6  A    between atoms: C_7  and  C_9
REMARK    7  A    between atoms: C_7  and  C_19
REMARK    8  A    between atoms: C_11  and  N_16
REMARK    9  A    between atoms: N_21  and  C_22
REMARK   10  A    between atoms: C_28  and  C_29
REMARK   11  A    between atoms: C_28  and  C_30
REMARK   12  A    between atoms: C_28  and  C_31
REMARK                            x       y       z     vdW  Elec       q    Type
REMARK                         _______ _______ _______ _____ _____    ______ ____
ROOT
ATOM      1  C   UNL     1      -0.207   0.173   4.707  0.00  0.00    +0.194 C 
ENDROOT
BRANCH   1   2
ATOM      2  C   UNL     1      -1.343  -0.376   5.531  0.00  0.00    +0.002 A 
ATOM      3  C   UNL     1      -1.675  -1.715   5.446  0.00  0.00    +0.040 A 
ATOM      4  C   UNL     1      -2.717  -2.219   6.202  0.00  0.00    +0.127 A 
ATOM      5  C   UNL     1      -3.429  -1.383   7.042  0.00  0.00    +0.034 A 
ATOM      6  C   UNL     1      -3.098  -0.044   7.128  0.00  0.00    +0.022 A 
ATOM      7  C   UNL     1      -2.051   0.460   6.376  0.00  0.00    +0.047 A 
ATOM      8 CL   UNL     1      -1.631   2.140   6.489  0.00  0.00    -0.083 Cl
BRANCH   4   9
ATOM      9  N   UNL     1      -3.071  -3.653   6.110  0.00  0.00    +0.056 N 
ATOM     10  O   UNL     1      -2.449  -4.383   5.375  0.00  0.00    -0.126 OA
ATOM     11  O   UNL     1      -3.983  -4.093   6.771  0.00  0.00    -0.126 OA
ENDBRANCH   4   9
ENDBRANCH   1   2
BRANCH   1  12
ATOM     12  C   UNL     1       1.068   0.116   5.508  0.00  0.00    +0.238 C 
ATOM     13  O   UNL     1       2.039  -0.456   5.061  0.00  0.00    -0.273 OA
ATOM     14  N   UNL     1       1.129   0.701   6.721  0.00  0.00    -0.311 N 
ATOM     15  H   UNL     1       0.352   1.159   7.078  0.00  0.00    +0.149 HD
BRANCH  14  16
ATOM     16  C   UNL     1       2.368   0.645   7.499  0.00  0.00    +0.073 C 
ATOM     17  C   UNL     1       2.415  -0.663   8.291  0.00  0.00    +0.022 C 
ATOM     18  C   UNL     1       3.710  -0.721   9.104  0.00  0.00    +0.002 C 
ATOM     19  C   UNL     1       3.757   0.462  10.072  0.00  0.00    +0.000 C 
ATOM     20  C   UNL     1       3.711   1.771   9.281  0.00  0.00    +0.002 C 
ATOM     21  C   UNL     1       2.416   1.829   8.468  0.00  0.00    +0.022 C 
ENDBRANCH  14  16
ENDBRANCH   1  12
BRANCH   1  24
ATOM     22  C   UNL     1       0.377  -1.901   3.570  0.00  0.00    +0.241 C 
ATOM     23  O   UNL     1       0.720  -2.360   4.643  0.00  0.00    -0.271 OA
ATOM     24  N   UNL     1      -0.056  -0.627   3.490  0.00  0.00    -0.277 N 
BRANCH  22  27
ATOM     25  C   UNL     1       1.452  -4.508   3.728  0.00  0.00    +0.039 C 
ATOM     26  C   UNL     1       0.863  -3.993   2.440  0.00  0.00    -0.071 C 
ATOM     27  C   UNL     1       0.433  -2.737   2.361  0.00  0.00    +0.066 C 
ATOM     28  C   UNL     1       0.761  -4.901   1.242  0.00  0.00    +0.039 C 
ENDBRANCH  22  27
BRANCH  24  29
ATOM     29  C   UNL     1      -0.374  -0.043   2.184  0.00  0.00    +0.030 C 
ATOM     30  C   UNL     1      -1.533  -0.814   1.550  0.00  0.00    +0.031 C 
ATOM     31  C   UNL     1      -0.774   1.423   2.365  0.00  0.00    +0.031 C 
ATOM     32  C   UNL     1       0.854  -0.128   1.274  0.00  0.00    +0.031 C 
ENDBRANCH  24  29
ENDBRANCH   1  24
TORSDOF 7
