REMARK  Name = ZINC34981046
REMARK  3 active torsions:
REMARK  status: ('A' for Active; 'I' for Inactive)
REMARK    1  A    between atoms: C_9  and  N_12
REMARK    2  A    between atoms: N_12  and  C_13
REMARK    3  A    between atoms: C_18  and  N_19
REMARK                            x       y       z     vdW  Elec       q    Type
REMARK                         _______ _______ _______ _____ _____    ______ ____
ROOT
ATOM      1  N   UNL     1       5.144  -2.450  -0.088  0.00  0.00    -0.339 N 
ATOM      2  H   UNL     1       5.304  -2.926  -0.917  0.00  0.00    +0.146 HD
ENDROOT
BRANCH   1  11
ATOM      3  C   UNL     1       1.040   2.504  -0.590  0.00  0.00    +0.000 A 
ATOM      4  C   UNL     1       2.319   3.003  -0.423  0.00  0.00    +0.000 A 
ATOM      5  C   UNL     1       3.387   2.134  -0.332  0.00  0.00    +0.004 A 
ATOM      6  C   UNL     1       3.188   0.761  -0.405  0.00  0.00    -0.042 A 
ATOM      7  C   UNL     1       1.914   0.265  -0.567  0.00  0.00    -0.044 A 
ATOM      8  C   UNL     1       0.841   1.141  -0.662  0.00  0.00    +0.004 A 
ATOM      9  C   UNL     1       1.622  -1.211  -0.638  0.00  0.00    +0.037 C 
ATOM     10  C   UNL     1       2.894  -1.996  -0.951  0.00  0.00    +0.027 C 
ATOM     11  C   UNL     1       3.986  -1.560   0.033  0.00  0.00    +0.075 C 
ATOM     12  C   UNL     1       4.398  -0.129  -0.307  0.00  0.00    +0.057 C 
ENDBRANCH   1  11
BRANCH   1  13
ATOM     13  C   UNL     1       6.016  -2.612   0.992  0.00  0.00    +0.058 A 
ATOM     14  C   UNL     1       5.859  -1.840   2.136  0.00  0.00    +0.026 A 
ATOM     15  C   UNL     1       6.723  -2.003   3.201  0.00  0.00    +0.017 A 
ATOM     16  C   UNL     1       7.744  -2.934   3.129  0.00  0.00    +0.020 A 
ATOM     17  C   UNL     1       7.903  -3.704   1.991  0.00  0.00    +0.050 A 
ATOM     18  C   UNL     1       7.038  -3.550   0.925  0.00  0.00    +0.148 A 
ATOM     19 BR   UNL     1       8.925  -3.153   4.589  0.00  0.00    -0.050 Br
BRANCH  18  20
ATOM     20  N   UNL     1       7.205  -4.379  -0.290  0.00  0.00    +0.058 N 
ATOM     21  O   UNL     1       6.233  -4.783  -0.884  0.00  0.00    -0.126 OA
ATOM     22  O   UNL     1       8.313  -4.652  -0.688  0.00  0.00    -0.126 OA
ENDBRANCH  18  20
ENDBRANCH   1  13
TORSDOF 3
