REMARK  Name = ZINC39856804
REMARK  10 active torsions:
REMARK  status: ('A' for Active; 'I' for Inactive)
REMARK    1  A    between atoms: C_1  and  C_2
REMARK    2  A    between atoms: C_5  and  N_8
REMARK    3  A    between atoms: C_9  and  C_11
REMARK    4  A    between atoms: C_11  and  C_12
REMARK    5  A    between atoms: N_16  and  C_36
REMARK    6  A    between atoms: N_18  and  N_19
REMARK    7  A    between atoms: C_20  and  C_21
REMARK    8  A    between atoms: C_24  and  C_26
REMARK    9  A    between atoms: C_31  and  N_32
REMARK   10  A    between atoms: C_36  and  C_37
REMARK                            x       y       z     vdW  Elec       q    Type
REMARK                         _______ _______ _______ _____ _____    ______ ____
ROOT
ATOM      1  C   UNL     1       0.424  -6.867   2.557  0.00  0.00    +0.149 C 
ATOM      2  C   UNL     1       0.587  -8.380   2.588  0.00  0.00    +0.235 C 
ATOM      3  O   UNL     1       1.529  -8.962   2.094  0.00  0.00    -0.274 OA
ATOM      4  N   UNL     1      -0.409  -8.996   3.210  0.00  0.00    -0.245 N 
ATOM      5  C   UNL     1      -1.456  -8.329   3.756  0.00  0.00    +0.186 C 
ATOM      6  N   UNL     1      -2.512  -8.864   4.406  0.00  0.00    -0.126 NA
ATOM      7  S   UNL     1      -1.169  -6.698   3.458  0.00  0.00    -0.075 S 
ENDROOT
BRANCH   6   8
ATOM      8  N   UNL     1      -3.437  -8.096   4.875  0.00  0.00    -0.152 NA
ATOM      9  C   UNL     1      -4.486  -8.628   5.520  0.00  0.00    +0.181 C 
BRANCH   9  10
ATOM     10  C   UNL     1      -5.476  -7.806   6.022  0.00  0.00    +0.148 A 
ATOM     11  C   UNL     1      -6.633  -8.228   6.727  0.00  0.00    +0.051 A 
ATOM     12  C   UNL     1      -7.340  -7.105   7.039  0.00  0.00    +0.050 A 
ATOM     13  C   UNL     1      -6.627  -6.006   6.532  0.00  0.00    +0.138 A 
ATOM     14  O   UNL     1      -5.512  -6.457   5.932  0.00  0.00    -0.454 OA
BRANCH  13  15
ATOM     15  C   UNL     1      -7.029  -4.601   6.643  0.00  0.00    +0.047 A 
ATOM     16  C   UNL     1      -8.330  -4.208   6.289  0.00  0.00    +0.014 A 
ATOM     17  C   UNL     1      -8.698  -2.886   6.397  0.00  0.00    +0.001 A 
ATOM     18  C   UNL     1      -7.790  -1.944   6.854  0.00  0.00    +0.002 A 
ATOM     19  C   UNL     1      -6.504  -2.322   7.206  0.00  0.00    +0.033 A 
ATOM     20  C   UNL     1      -6.119  -3.640   7.109  0.00  0.00    +0.137 A 
BRANCH  20  21
ATOM     21  N   UNL     1      -4.746  -4.043   7.491  0.00  0.00    +0.057 N 
ATOM     22  O   UNL     1      -3.893  -3.139   7.929  0.00  0.00    -0.126 OA
ATOM     23  O   UNL     1      -4.378  -5.303   7.394  0.00  0.00    -0.126 OA
ENDBRANCH  20  21
ENDBRANCH  13  15
ENDBRANCH   9  10
ENDBRANCH   6   8
BRANCH   1  24
ATOM     24  C   UNL     1       0.309  -6.349   1.121  0.00  0.00    +0.120 C 
BRANCH  24  26
ATOM     25  N   UNL     1       0.059  -4.170  -0.021  0.00  0.00    -0.285 N 
ATOM     26  C   UNL     1       0.175  -4.848   1.138  0.00  0.00    +0.219 C 
ATOM     27  O   UNL     1       0.173  -4.251   2.193  0.00  0.00    -0.275 OA
ATOM     28  H   UNL     1      -0.017  -4.651  -0.860  0.00  0.00    +0.155 HD
BRANCH  25  33
ATOM     29  C   UNL     1       0.008   1.503   0.007  0.00  0.00    +0.044 C 
ATOM     30  C   UNL     1       0.022  -0.004  -0.001  0.00  0.00    -0.050 A 
ATOM     31  C   UNL     1       0.777  -0.692   0.931  0.00  0.00    +0.005 A 
ATOM     32  C   UNL     1       0.791  -2.073   0.927  0.00  0.00    +0.023 A 
ATOM     33  C   UNL     1       0.046  -2.771  -0.014  0.00  0.00    +0.033 A 
ATOM     34  C   UNL     1      -0.712  -2.077  -0.948  0.00  0.00    +0.023 A 
ATOM     35  C   UNL     1      -0.726  -0.696  -0.936  0.00  0.00    +0.005 A 
ENDBRANCH  25  33
ENDBRANCH  24  26
ENDBRANCH   1  24
BRANCH   4  36
ATOM     36  C   UNL     1      -0.377 -10.458   3.311  0.00  0.00    +0.142 C 
BRANCH  36  37
ATOM     37  C   UNL     1       0.340 -10.858   4.574  0.00  0.00    -0.015 C 
ATOM     38  C   UNL     1      -0.249 -11.645   5.440  0.00  0.00    +0.005 C 
ENDBRANCH  36  37
ENDBRANCH   4  36
TORSDOF 9
