REMARK  Name = ZINC01151732
REMARK  5 active torsions:
REMARK  status: ('A' for Active; 'I' for Inactive)
REMARK    1  A    between atoms: C_3  and  C_10
REMARK    2  A    between atoms: C_5  and  N_7
REMARK    3  A    between atoms: C_13  and  C_24
REMARK    4  A    between atoms: C_13  and  O_28
REMARK    5  A    between atoms: C_15  and  C_17
REMARK                            x       y       z     vdW  Elec       q    Type
REMARK                         _______ _______ _______ _____ _____    ______ ____
ROOT
ATOM      1  C   UNL     1       1.172   3.564   0.009  0.00  0.00    +0.269 C 
ATOM      2  O   UNL     1       2.218   4.181   0.078  0.00  0.00    -0.268 OA
ATOM      3  N   UNL     1       0.003   4.229  -0.078  0.00  0.00    -0.148 N 
ATOM      4  C   UNL     1      -0.146   5.689  -0.180  0.00  0.00    +0.257 C 
ATOM      5  C   UNL     1      -1.672   5.893  -0.254  0.00  0.00    +0.124 C 
ATOM      6  C   UNL     1      -2.231   4.490  -0.174  0.00  0.00    +0.071 C 
ATOM      7  N   UNL     1      -1.263   3.646  -0.081  0.00  0.00    -0.178 NA
ENDROOT
BRANCH   6   8
ATOM      8  C   UNL     1      -3.664   4.143  -0.199  0.00  0.00    -0.002 A 
ATOM      9  C   UNL     1      -4.628   5.148  -0.298  0.00  0.00    +0.011 A 
ATOM     10  C   UNL     1      -5.966   4.816  -0.326  0.00  0.00    +0.020 A 
ATOM     11  C   UNL     1      -6.355   3.489  -0.245  0.00  0.00    +0.041 A 
ATOM     12  C   UNL     1      -5.404   2.487  -0.141  0.00  0.00    +0.020 A 
ATOM     13  C   UNL     1      -4.063   2.806  -0.118  0.00  0.00    +0.011 A 
ATOM     14 CL   UNL     1      -8.042   3.080  -0.273  0.00  0.00    -0.084 Cl
ENDBRANCH   6   8
BRANCH   1  17
ATOM     15  C   UNL     1      -0.001  -0.002   0.079  0.00  0.00    +0.003 A 
ATOM     16  C   UNL     1      -0.018   1.377   0.068  0.00  0.00    +0.013 A 
ATOM     17  C   UNL     1       1.183   2.087   0.023  0.00  0.00    +0.041 A 
ATOM     18  C   UNL     1       2.395   1.394  -0.010  0.00  0.00    +0.045 A 
ATOM     19  C   UNL     1       2.398   0.015   0.003  0.00  0.00    +0.127 A 
ATOM     20  C   UNL     1       1.203  -0.682   0.047  0.00  0.00    +0.033 A 
BRANCH  19  21
ATOM     21  N   UNL     1       3.682  -0.721  -0.030  0.00  0.00    +0.056 N 
ATOM     22  O   UNL     1       3.686  -1.939  -0.019  0.00  0.00    -0.126 OA
ATOM     23  O   UNL     1       4.734  -0.109  -0.069  0.00  0.00    -0.126 OA
ENDBRANCH  19  21
ENDBRANCH   1  17
BRANCH   4  24
ATOM     24  C   UNL     1       0.432   6.377   1.058  0.00  0.00    +0.438 C 
ATOM     25  F   UNL     1       1.799   6.094   1.153  0.00  0.00    -0.166 F 
ATOM     26  F   UNL     1       0.249   7.760   0.952  0.00  0.00    -0.166 F 
ATOM     27  F   UNL     1      -0.222   5.907   2.202  0.00  0.00    -0.166 F 
ENDBRANCH   4  24
BRANCH   4  28
ATOM     28  O   UNL     1       0.482   6.177  -1.367  0.00  0.00    -0.363 OA
ATOM     29  H   UNL     1       1.434   6.013  -1.405  0.00  0.00    +0.212 HD
ENDBRANCH   4  28
TORSDOF 5
