REMARK  Name = ZINC50309977
REMARK  7 active torsions:
REMARK  status: ('A' for Active; 'I' for Inactive)
REMARK    1  A    between atoms: C_1  and  C_2
REMARK    2  A    between atoms: C_2  and  C_3
REMARK    3  A    between atoms: C_10  and  C_12
REMARK    4  A    between atoms: C_13  and  N_21
REMARK    5  A    between atoms: C_14  and  C_18
REMARK    6  A    between atoms: C_18  and  C_19
REMARK    7  A    between atoms: C_18  and  C_20
REMARK                            x       y       z     vdW  Elec       q    Type
REMARK                         _______ _______ _______ _____ _____    ______ ____
ROOT
ATOM      1  C   UNL     1       1.610  -0.507  -5.874  0.00  0.00    +0.168 A 
ATOM      2  C   UNL     1       2.124   0.191  -6.997  0.00  0.00    +0.078 A 
ATOM      3  C   UNL     1       2.712  -0.757  -7.774  0.00  0.00    +0.060 A 
ATOM      4  N   UNL     1       2.551  -1.948  -7.140  0.00  0.00    -0.279 N 
ATOM      5  H   UNL     1       2.875  -2.800  -7.471  0.00  0.00    +0.189 HD
ATOM      6  N   UNL     1       1.914  -1.781  -6.037  0.00  0.00    -0.167 NA
ENDROOT
BRANCH   1  13
ATOM      7  C   UNL     1       0.357  -0.802  -1.357  0.00  0.00    +0.006 C 
ATOM      8  C   UNL     1       0.233  -2.323  -1.467  0.00  0.00    +0.006 C 
ATOM      9  C   UNL     1       0.982  -2.809  -2.710  0.00  0.00    +0.019 C 
ATOM     10  C   UNL     1       0.354  -2.182  -3.958  0.00  0.00    +0.108 C 
ATOM     11  N   UNL     1       0.338  -0.721  -3.796  0.00  0.00    -0.296 N 
ATOM     12  C   UNL     1      -0.277  -0.150  -2.590  0.00  0.00    +0.111 C 
ATOM     13  C   UNL     1       0.879   0.080  -4.736  0.00  0.00    +0.269 C 
ATOM     14  O   UNL     1       0.763   1.287  -4.645  0.00  0.00    -0.268 OA
BRANCH   7  16
ATOM     15  C   UNL     1      -0.136   1.183   0.078  0.00  0.00    +0.004 C 
ATOM     16  C   UNL     1      -0.364  -0.320  -0.097  0.00  0.00    +0.002 C 
ENDBRANCH   7  16
ENDBRANCH   1  13
BRANCH   3  17
ATOM     17  C   UNL     1       3.410  -0.529  -9.090  0.00  0.00    +0.033 C 
ATOM     18  C   UNL     1       4.867  -0.982  -8.979  0.00  0.00    +0.014 C 
ATOM     19  C   UNL     1       2.707  -1.334 -10.185  0.00  0.00    +0.014 C 
ENDBRANCH   3  17
BRANCH   2  20
ATOM     20  N   UNL     1       2.042   1.568  -7.251  0.00  0.00    -0.355 N 
ATOM     21  H   UNL     1       1.595   2.152  -6.619  0.00  0.00    +0.142 HD
ATOM     22  H   UNL     1       2.433   1.936  -8.059  0.00  0.00    +0.142 HD
ENDBRANCH   2  20
TORSDOF 4
