REMARK  Name = ZINC39709059
REMARK  15 active torsions:
REMARK  status: ('A' for Active; 'I' for Inactive)
REMARK    1  A    between atoms: C_1  and  C_2
REMARK    2  A    between atoms: C_2  and  C_3
REMARK    3  A    between atoms: C_2  and  C_4
REMARK    4  A    between atoms: C_4  and  N_5
REMARK    5  A    between atoms: N_5  and  C_6
REMARK    6  A    between atoms: N_5  and  C_28
REMARK    7  A    between atoms: C_6  and  C_7
REMARK    8  A    between atoms: C_8  and  O_27
REMARK    9  A    between atoms: C_15  and  C_16
REMARK   10  A    between atoms: C_19  and  C_22
REMARK   11  A    between atoms: C_22  and  C_23
REMARK   12  A    between atoms: C_22  and  C_24
REMARK   13  A    between atoms: C_28  and  C_29
REMARK   14  A    between atoms: C_29  and  C_30
REMARK   15  A    between atoms: C_29  and  C_31
REMARK                            x       y       z     vdW  Elec       q    Type
REMARK                         _______ _______ _______ _____ _____    ______ ____
ROOT
ATOM      1  C   UNL     1      -4.847  -2.833  -0.756  0.00  0.00    +0.020 A 
ATOM      2  C   UNL     1      -5.395  -2.853  -2.028  0.00  0.00    +0.122 A 
ATOM      3  C   UNL     1      -6.178  -3.926  -2.445  0.00  0.00    +0.046 A 
ATOM      4  C   UNL     1      -6.414  -4.973  -1.599  0.00  0.00    +0.019 A 
ATOM      5  C   UNL     1      -5.869  -4.966  -0.315  0.00  0.00    +0.068 A 
ATOM      6  C   UNL     1      -5.073  -3.892   0.115  0.00  0.00    +0.144 A 
ATOM      7  O   UNL     1      -4.655  -4.111   1.381  0.00  0.00    -0.451 OA
ATOM      8  C   UNL     1      -5.113  -5.290   1.865  0.00  0.00    +0.176 C 
ATOM      9  C   UNL     1      -4.872  -5.797   3.099  0.00  0.00    +0.058 C 
ATOM     10  C   UNL     1      -5.931  -5.914   0.812  0.00  0.00    +0.231 C 
ATOM     11  O   UNL     1      -6.517  -6.982   0.857  0.00  0.00    -0.283 OA
ENDROOT
BRANCH   9  12
ATOM     12  C   UNL     1      -4.195  -4.975   4.112  0.00  0.00    -0.021 A 
ATOM     13  C   UNL     1      -3.796  -5.543   5.327  0.00  0.00    +0.008 A 
ATOM     14  C   UNL     1      -3.161  -4.765   6.272  0.00  0.00    +0.004 A 
ATOM     15  C   UNL     1      -2.920  -3.426   6.022  0.00  0.00    -0.045 A 
ATOM     16  C   UNL     1      -3.312  -2.856   4.823  0.00  0.00    +0.004 A 
ATOM     17  C   UNL     1      -3.941  -3.621   3.865  0.00  0.00    +0.008 A 
BRANCH  15  18
ATOM     18  C   UNL     1      -2.226  -2.583   7.061  0.00  0.00    +0.013 C 
ATOM     19  C   UNL     1      -0.930  -2.017   6.476  0.00  0.00    +0.012 C 
ATOM     20  C   UNL     1      -3.142  -1.431   7.478  0.00  0.00    +0.012 C 
ENDBRANCH  15  18
ENDBRANCH   9  12
BRANCH   2  21
ATOM     21  O   UNL     1      -5.166  -1.818  -2.876  0.00  0.00    -0.506 OA
ATOM     22  H   UNL     1      -4.378  -1.927  -3.426  0.00  0.00    +0.292 HD
ENDBRANCH   2  21
BRANCH   1  23
ATOM     23  C   UNL     1      -4.001  -1.665  -0.318  0.00  0.00    -0.036 C 
BRANCH  23  24
ATOM     24  N   UNL     1      -2.596  -1.923  -0.658  0.00  0.00    +0.383 N 
ATOM     25  H   UNL     1      -2.294  -2.777  -0.214  0.00  0.00    -0.081 HD
BRANCH  24  26
ATOM     26  C   UNL     1      -1.765  -0.806  -0.189  0.00  0.00    -0.075 C 
BRANCH  26  28
ATOM     27  C   UNL     1      -0.398   0.042   1.723  0.00  0.00    +0.005 C 
ATOM     28  C   UNL     1      -1.406  -1.022   1.283  0.00  0.00    -0.034 C 
ATOM     29  C   UNL     1      -2.670  -0.910   2.138  0.00  0.00    +0.005 C 
ENDBRANCH  26  28
ENDBRANCH  24  26
BRANCH  24  30
ATOM     30  C   UNL     1      -2.461  -2.054  -2.115  0.00  0.00    -0.075 C 
BRANCH  30  31
ATOM     31  C   UNL     1      -1.031  -2.477  -2.459  0.00  0.00    -0.034 C 
ATOM     32  C   UNL     1      -0.748  -3.854  -1.857  0.00  0.00    +0.005 C 
ATOM     33  C   UNL     1      -0.871  -2.542  -3.979  0.00  0.00    +0.005 C 
ENDBRANCH  30  31
ENDBRANCH  24  30
ENDBRANCH  23  24
ENDBRANCH   1  23
TORSDOF 9
