REMARK  Name = ZINC41023386
REMARK  4 active torsions:
REMARK  status: ('A' for Active; 'I' for Inactive)
REMARK    1  A    between atoms: C_4  and  N_16
REMARK    2  A    between atoms: C_5  and  S_7
REMARK    3  A    between atoms: S_7  and  C_8
REMARK    4  A    between atoms: C_12  and  N_14
REMARK                            x       y       z     vdW  Elec       q    Type
REMARK                         _______ _______ _______ _____ _____    ______ ____
ROOT
ATOM      1  C   UNL     1      -0.457  -2.896   0.139  0.00  0.00    +0.196 A 
ATOM      2  N   UNL     1      -1.382  -1.947   0.127  0.00  0.00    -0.207 NA
ATOM      3  C   UNL     1      -2.672  -2.251   0.247  0.00  0.00    +0.122 A 
ATOM      4  C   UNL     1      -3.043  -3.585   0.388  0.00  0.00    +0.086 A 
ATOM      5  C   UNL     1      -2.044  -4.554   0.397  0.00  0.00    +0.122 A 
ATOM      6  N   UNL     1      -0.774  -4.176   0.266  0.00  0.00    -0.207 NA
ATOM      7  N   UNL     1      -3.633  -1.252   0.234  0.00  0.00    -0.343 N 
ATOM      8  H   UNL     1      -3.367  -0.325   0.136  0.00  0.00    +0.144 HD
ATOM      9  H   UNL     1      -4.571  -1.481   0.322  0.00  0.00    +0.144 HD
ENDROOT
BRANCH   5  10
ATOM     10  N   UNL     1      -2.367  -5.895   0.535  0.00  0.00    -0.343 N 
ATOM     11  H   UNL     1      -3.294  -6.163   0.626  0.00  0.00    +0.144 HD
ATOM     12  H   UNL     1      -1.665  -6.565   0.540  0.00  0.00    +0.144 HD
ENDBRANCH   5  10
BRANCH   1  13
ATOM     13  S   UNL     1       1.238  -2.444  -0.024  0.00  0.00    -0.048 S 
BRANCH  13  18
ATOM     14  C   UNL     1       1.362   1.407  -1.179  0.00  0.00    +0.004 A 
ATOM     15  C   UNL     1       1.175   2.090   0.009  0.00  0.00    +0.040 A 
ATOM     16  C   UNL     1       1.007   1.393   1.193  0.00  0.00    +0.145 A 
ATOM     17  C   UNL     1       1.025   0.004   1.189  0.00  0.00    +0.074 A 
ATOM     18  C   UNL     1       1.213  -0.682  -0.009  0.00  0.00    +0.039 A 
ATOM     19  C   UNL     1       1.381   0.025  -1.191  0.00  0.00    +0.017 A 
ATOM     20  F   UNL     1       0.825   2.063   2.352  0.00  0.00    -0.204 F 
BRANCH  17  21
ATOM     21  N   UNL     1       0.856  -0.705   2.386  0.00  0.00    -0.355 N 
ATOM     22  H   UNL     1       0.725  -0.225   3.219  0.00  0.00    +0.142 HD
ATOM     23  H   UNL     1       0.869  -1.674   2.381  0.00  0.00    +0.142 HD
ENDBRANCH  17  21
ENDBRANCH  13  18
ENDBRANCH   1  13
TORSDOF 4
