REMARK  Name = ZINC00671183
REMARK  11 active torsions:
REMARK  status: ('A' for Active; 'I' for Inactive)
REMARK    1  A    between atoms: C_1  and  C_2
REMARK    2  A    between atoms: C_2  and  C_3
REMARK    3  A    between atoms: C_3  and  C_4
REMARK    4  A    between atoms: C_3  and  C_5
REMARK    5  A    between atoms: C_3  and  C_6
REMARK    6  A    between atoms: C_13  and  N_18
REMARK    7  A    between atoms: C_14  and  C_15
REMARK    8  A    between atoms: C_19  and  C_21
REMARK    9  A    between atoms: C_21  and  C_22
REMARK   10  A    between atoms: C_22  and  C_23
REMARK   11  A    between atoms: C_22  and  C_24
REMARK                            x       y       z     vdW  Elec       q    Type
REMARK                         _______ _______ _______ _____ _____    ______ ____
ROOT
ATOM      1  C   UNL     1       0.739  -2.027  -1.265  0.00  0.00    -0.000 C 
ATOM      2  C   UNL     1       1.455  -2.524  -2.524  0.00  0.00    +0.009 C 
ATOM      3  C   UNL     1       1.699  -4.031  -2.424  0.00  0.00    +0.037 C 
ATOM      4  C   UNL     1       0.381  -4.720  -2.095  0.00  0.00    -0.023 A 
ATOM      5  C   UNL     1      -0.659  -4.026  -1.585  0.00  0.00    -0.004 A 
ATOM      6  S   UNL     1      -1.944  -5.225  -1.372  0.00  0.00    -0.077 S 
ATOM      7  C   UNL     1      -1.113  -6.631  -1.952  0.00  0.00    +0.084 A 
ATOM      8  C   UNL     1       0.139  -6.139  -2.296  0.00  0.00    +0.068 A 
ATOM      9  C   UNL     1      -0.701  -2.562  -1.272  0.00  0.00    +0.046 C 
ENDROOT
BRANCH   8  10
ATOM     10  C   UNL     1       1.177  -7.018  -2.842  0.00  0.00    +0.244 C 
ATOM     11  O   UNL     1       1.954  -7.580  -2.092  0.00  0.00    -0.270 OA
ATOM     12  N   UNL     1       1.272  -7.203  -4.173  0.00  0.00    -0.325 N 
ATOM     13  H   UNL     1       0.653  -6.755  -4.771  0.00  0.00    +0.145 HD
ATOM     14  H   UNL     1       1.959  -7.785  -4.534  0.00  0.00    +0.145 HD
ENDBRANCH   8  10
BRANCH   7  15
ATOM     15  N   UNL     1      -1.583  -7.931  -2.049  0.00  0.00    -0.279 N 
ATOM     16  C   UNL     1      -2.841  -8.223  -1.661  0.00  0.00    +0.218 C 
ATOM     17  O   UNL     1      -3.561  -7.348  -1.228  0.00  0.00    -0.275 OA
ATOM     18  H   UNL     1      -1.008  -8.631  -2.395  0.00  0.00    +0.155 HD
BRANCH  16  19
ATOM     19  C   UNL     1      -3.353  -9.637  -1.766  0.00  0.00    +0.099 C 
BRANCH  19  20
ATOM     20  C   UNL     1      -4.797  -9.695  -1.265  0.00  0.00    -0.008 C 
ATOM     21  C   UNL     1      -5.692  -8.870  -2.193  0.00  0.00    +0.008 C 
ATOM     22  C   UNL     1      -5.275 -11.148  -1.255  0.00  0.00    +0.008 C 
ENDBRANCH  19  20
ENDBRANCH  16  19
ENDBRANCH   7  15
BRANCH   1  23
ATOM     23  C   UNL     1       0.718  -0.497  -1.257  0.00  0.00    -0.032 C 
ATOM     24  C   UNL     1      -0.022   0.009  -2.496  0.00  0.00    +0.011 C 
ATOM     25  C   UNL     1       2.154   0.032  -1.268  0.00  0.00    +0.011 C 
BRANCH  23  27
ATOM     26  C   UNL     1      -0.019   1.526   0.010  0.00  0.00    +0.004 C 
ATOM     27  C   UNL     1       0.002  -0.004   0.002  0.00  0.00    +0.003 C 
ENDBRANCH  23  27
ENDBRANCH   1  23
TORSDOF 6
