REMARK  Name = ZINC36032540
REMARK  8 active torsions:
REMARK  status: ('A' for Active; 'I' for Inactive)
REMARK    1  A    between atoms: C_1  and  C_2
REMARK    2  A    between atoms: C_2  and  C_3
REMARK    3  A    between atoms: C_2  and  C_4
REMARK    4  A    between atoms: C_4  and  C_5
REMARK    5  A    between atoms: N_9  and  C_26
REMARK    6  A    between atoms: C_17  and  C_19
REMARK    7  A    between atoms: C_26  and  C_27
REMARK    8  A    between atoms: C_31  and  C_33
REMARK                            x       y       z     vdW  Elec       q    Type
REMARK                         _______ _______ _______ _____ _____    ______ ____
ROOT
ATOM      1  C   UNL     1       0.372  -1.733   2.242  0.00  0.00    +0.019 C 
ATOM      2  C   UNL     1      -0.768  -1.960   1.273  0.00  0.00    +0.201 C 
ATOM      3  O   UNL     1      -0.959  -1.343   0.246  0.00  0.00    -0.277 OA
ATOM      4  N   UNL     1      -1.537  -2.964   1.744  0.00  0.00    -0.309 N 
ATOM      5  C   UNL     1      -0.978  -3.458   3.005  0.00  0.00    +0.006 C 
ATOM      6  N   UNL     1      -0.049  -2.413   3.490  0.00  0.00    +0.401 N 
ATOM      7  C   UNL     1      -0.211  -4.758   2.769  0.00  0.00    +0.025 C 
ATOM      8  C   UNL     1      -1.171  -5.823   2.228  0.00  0.00    +0.108 C 
ATOM      9  N   UNL     1      -2.311  -5.942   3.147  0.00  0.00    -0.298 N 
ATOM     10  C   UNL     1      -3.067  -4.732   3.497  0.00  0.00    +0.108 C 
ATOM     11  C   UNL     1      -2.091  -3.676   4.027  0.00  0.00    +0.025 C 
ATOM     12  C   UNL     1      -2.656  -7.139   3.661  0.00  0.00    +0.247 C 
ATOM     13  O   UNL     1      -3.636  -7.236   4.373  0.00  0.00    -0.270 OA
ATOM     14  H   UNL     1       0.745  -2.828   3.955  0.00  0.00    -0.082 HD
ATOM     15  H   UNL     1      -0.526  -1.770   4.103  0.00  0.00    -0.082 HD
ENDROOT
BRANCH  12  16
ATOM     16  C   UNL     1      -1.843  -8.335   3.357  0.00  0.00    +0.037 A 
ATOM     17  C   UNL     1      -1.389  -9.155   4.393  0.00  0.00    +0.014 A 
ATOM     18  C   UNL     1      -0.631 -10.270   4.104  0.00  0.00    +0.021 A 
ATOM     19  C   UNL     1      -0.319 -10.577   2.789  0.00  0.00    +0.041 A 
ATOM     20  C   UNL     1      -0.766  -9.768   1.758  0.00  0.00    +0.021 A 
ATOM     21  C   UNL     1      -1.530  -8.653   2.034  0.00  0.00    +0.014 A 
ATOM     22 CL   UNL     1       0.637 -11.982   2.433  0.00  0.00    -0.084 Cl
ENDBRANCH  12  16
BRANCH   1  23
ATOM     23  C   UNL     1       0.570  -0.237   2.491  0.00  0.00    -0.004 C 
BRANCH  23  25
ATOM     24  C   UNL     1       3.032  -0.492   2.831  0.00  0.00    +0.007 C 
ATOM     25  C   UNL     1       1.723  -0.032   3.476  0.00  0.00    -0.018 C 
ATOM     26  C   UNL     1       1.826   1.450   3.839  0.00  0.00    +0.007 C 
ENDBRANCH  23  25
ENDBRANCH   1  23
BRANCH   4  27
ATOM     27  C   UNL     1      -2.744  -3.480   1.094  0.00  0.00    +0.141 C 
BRANCH  27  28
ATOM     28  C   UNL     1      -3.893  -2.537   1.346  0.00  0.00    -0.030 A 
ATOM     29  C   UNL     1      -4.564  -2.573   2.554  0.00  0.00    +0.005 A 
ATOM     30  C   UNL     1      -5.617  -1.708   2.785  0.00  0.00    +0.001 A 
ATOM     31  C   UNL     1      -5.999  -0.807   1.808  0.00  0.00    +0.012 A 
ATOM     32  C   UNL     1      -5.328  -0.771   0.601  0.00  0.00    +0.055 A 
ATOM     33  C   UNL     1      -4.272  -1.633   0.371  0.00  0.00    +0.017 A 
BRANCH  32  34
ATOM     34  C   UNL     1      -5.745   0.210  -0.464  0.00  0.00    +0.417 C 
ATOM     35  F   UNL     1      -6.824   0.970  -0.001  0.00  0.00    -0.166 F 
ATOM     36  F   UNL     1      -4.672   1.057  -0.763  0.00  0.00    -0.166 F 
ATOM     37  F   UNL     1      -6.125  -0.486  -1.617  0.00  0.00    -0.166 F 
ENDBRANCH  32  34
ENDBRANCH  27  28
ENDBRANCH   4  27
TORSDOF 6
