REMARK  Name = ZINC04821978
REMARK  3 active torsions:
REMARK  status: ('A' for Active; 'I' for Inactive)
REMARK    1  A    between atoms: C_9  and  C_10
REMARK    2  A    between atoms: C_10  and  C_12
REMARK    3  A    between atoms: C_15  and  C_18
REMARK                            x       y       z     vdW  Elec       q    Type
REMARK                         _______ _______ _______ _____ _____    ______ ____
ROOT
ATOM      1  C   UNL     1      -0.017   1.377   0.010  0.00  0.00    +0.002 A 
ATOM      2  C   UNL     1       1.171   2.090   0.002  0.00  0.00    +0.002 A 
ATOM      3  C   UNL     1       2.382   1.428  -0.013  0.00  0.00    +0.025 A 
ATOM      4  C   UNL     1       2.414   0.039  -0.020  0.00  0.00    +0.055 A 
ATOM      5  C   UNL     1       1.214  -0.677  -0.013  0.00  0.00    +0.053 A 
ATOM      6  C   UNL     1       0.002  -0.004   0.002  0.00  0.00    +0.025 A 
ATOM      7  N   UNL     1       1.250  -2.075  -0.024  0.00  0.00    -0.309 N 
ATOM      8  C   UNL     1       2.389  -2.660  -0.554  0.00  0.00    +0.098 C 
ATOM      9  C   UNL     1       2.334  -3.816  -1.273  0.00  0.00    +0.080 C 
ATOM     10  C   UNL     1       3.677  -1.958  -0.296  0.00  0.00    +0.263 C 
ATOM     11  O   UNL     1       4.734  -2.558  -0.321  0.00  0.00    -0.268 OA
ATOM     12  N   UNL     1       3.637  -0.631  -0.034  0.00  0.00    -0.279 N 
ATOM     13  H   UNL     1       0.516  -2.607   0.321  0.00  0.00    +0.152 HD
ATOM     14  H   UNL     1       4.458  -0.147   0.144  0.00  0.00    +0.155 HD
ENDROOT
BRANCH   9  15
ATOM     15  C   UNL     1       1.089  -4.452  -1.496  0.00  0.00    +0.188 C 
ATOM     16  O   UNL     1       0.068  -3.966  -1.045  0.00  0.00    -0.287 OA
BRANCH  15  17
ATOM     17  C   UNL     1       1.029  -5.707  -2.277  0.00  0.00    +0.022 A 
ATOM     18  C   UNL     1       2.199  -6.270  -2.790  0.00  0.00    +0.012 A 
ATOM     19  C   UNL     1       2.136  -7.441  -3.517  0.00  0.00    +0.004 A 
ATOM     20  C   UNL     1       0.917  -8.057  -3.738  0.00  0.00    -0.044 A 
ATOM     21  C   UNL     1      -0.246  -7.504  -3.232  0.00  0.00    +0.004 A 
ATOM     22  C   UNL     1      -0.197  -6.337  -2.498  0.00  0.00    +0.012 A 
BRANCH  20  23
ATOM     23  C   UNL     1       0.856  -9.335  -4.533  0.00  0.00    +0.019 C 
ATOM     24  C   UNL     1      -0.024  -9.127  -5.768  0.00  0.00    +0.008 C 
ATOM     25  C   UNL     1      -0.086 -10.425  -6.575  0.00  0.00    +0.001 C 
ATOM     26  C   UNL     1      -0.679 -11.537  -5.708  0.00  0.00    +0.000 C 
ATOM     27  C   UNL     1       0.200 -11.745  -4.473  0.00  0.00    +0.001 C 
ATOM     28  C   UNL     1       0.262 -10.447  -3.666  0.00  0.00    +0.008 C 
ENDBRANCH  20  23
ENDBRANCH  15  17
ENDBRANCH   9  15
TORSDOF 3
