REMARK  Name = ZINC31920617
REMARK  3 active torsions:
REMARK  status: ('A' for Active; 'I' for Inactive)
REMARK    1  A    between atoms: C_6  and  C_7
REMARK    2  A    between atoms: C_8  and  C_17
REMARK    3  A    between atoms: C_17  and  O_18
REMARK                            x       y       z     vdW  Elec       q    Type
REMARK                         _______ _______ _______ _____ _____    ______ ____
ROOT
ATOM      1  C   UNL     1       2.902  -0.140  -1.268  0.00  0.00    +0.095 A 
ATOM      2  C   UNL     1       2.077  -0.231  -2.349  0.00  0.00    +0.076 A 
ATOM      3  N   UNL     1       2.085   0.989  -2.964  0.00  0.00    -0.299 N 
ATOM      4  C   UNL     1       1.446   1.464  -4.074  0.00  0.00    +0.113 A 
ATOM      5  C   UNL     1       1.628   2.739  -4.480  0.00  0.00    +0.058 A 
ATOM      6  C   UNL     1       2.481   3.596  -3.763  0.00  0.00    +0.025 A 
ATOM      7  C   UNL     1       3.124   3.135  -2.656  0.00  0.00    +0.048 A 
ATOM      8  C   UNL     1       2.923   1.802  -2.244  0.00  0.00    +0.139 A 
ATOM      9  N   UNL     1       3.408   1.103  -1.228  0.00  0.00    -0.227 NA
ATOM     10 CL   UNL     1       0.806   3.322  -5.893  0.00  0.00    -0.082 Cl
ENDROOT
BRANCH   1  16
ATOM     11  C   UNL     1       3.238  -0.960   1.065  0.00  0.00    +0.010 A 
ATOM     12  C   UNL     1       3.512  -1.979   1.950  0.00  0.00    +0.004 A 
ATOM     13  C   UNL     1       3.743  -3.272   1.495  0.00  0.00    -0.044 A 
ATOM     14  C   UNL     1       3.695  -3.543   0.145  0.00  0.00    -0.044 A 
ATOM     15  C   UNL     1       3.417  -2.524  -0.754  0.00  0.00    +0.014 A 
ATOM     16  C   UNL     1       3.193  -1.228  -0.302  0.00  0.00    +0.002 A 
ATOM     17  C   UNL     1       3.925  -4.923  -0.413  0.00  0.00    +0.035 C 
ATOM     18  C   UNL     1       4.628  -5.808   0.615  0.00  0.00    +0.005 C 
ATOM     19  C   UNL     1       3.852  -5.725   1.934  0.00  0.00    +0.005 C 
ATOM     20  C   UNL     1       4.050  -4.330   2.523  0.00  0.00    +0.035 C 
ENDBRANCH   1  16
BRANCH   2  21
ATOM     21  C   UNL     1       1.298  -1.447  -2.780  0.00  0.00    +0.211 C 
BRANCH  21  22
ATOM     22  O   UNL     1       2.012  -2.128  -3.813  0.00  0.00    -0.389 OA
ATOM     23  H   UNL     1       1.596  -3.045  -4.257  0.00  0.00    +0.210 HD
ENDBRANCH  21  22
ENDBRANCH   2  21
TORSDOF 3
