REMARK  Name = ZINC35343321
REMARK  5 active torsions:
REMARK  status: ('A' for Active; 'I' for Inactive)
REMARK    1  A    between atoms: C_4  and  N_7
REMARK    2  A    between atoms: N_9  and  C_18
REMARK    3  A    between atoms: C_18  and  C_19
REMARK    4  A    between atoms: N_21  and  C_22
REMARK    5  A    between atoms: C_22  and  C_23
REMARK                            x       y       z     vdW  Elec       q    Type
REMARK                         _______ _______ _______ _____ _____    ______ ____
ROOT
ATOM      1  N   UNL     1       3.620  -0.649  -0.036  0.00  0.00    -0.300 N 
ATOM      2  C   UNL     1       4.961  -0.060  -0.142  0.00  0.00    +0.217 C 
ATOM      3  N   UNL     1       5.937  -1.149  -0.119  0.00  0.00    -0.275 N 
ATOM      4  C   UNL     1       5.311  -2.333  -0.009  0.00  0.00    +0.241 C 
ATOM      5  O   UNL     1       5.856  -3.416   0.036  0.00  0.00    -0.273 OA
ATOM      6  C   UNL     1       3.825  -2.099   0.056  0.00  0.00    +0.109 C 
ATOM      7  C   UNL     1       3.133  -2.800  -1.113  0.00  0.00    +0.016 C 
ATOM      8  C   UNL     1       1.620  -2.596  -0.999  0.00  0.00    -0.080 C 
ATOM      9  N   UNL     1       1.142  -3.154   0.272  0.00  0.00    +0.379 N 
ATOM     10  C   UNL     1       1.746  -2.426   1.395  0.00  0.00    -0.080 C 
ATOM     11  C   UNL     1       3.264  -2.623   1.378  0.00  0.00    +0.016 C 
ATOM     12  H   UNL     1       0.138  -3.070   0.319  0.00  0.00    -0.086 HD
ATOM     13  H   UNL     1       1.399  -4.128   0.328  0.00  0.00    -0.086 HD
ENDROOT
BRANCH   1  17
ATOM     14  C   UNL     1      -0.017   1.379   0.010  0.00  0.00    +0.000 A 
ATOM     15  C   UNL     1       1.166   2.086  -0.103  0.00  0.00    +0.002 A 
ATOM     16  C   UNL     1       2.374   1.417  -0.118  0.00  0.00    +0.023 A 
ATOM     17  C   UNL     1       2.400   0.031  -0.021  0.00  0.00    +0.032 A 
ATOM     18  C   UNL     1       1.210  -0.676   0.092  0.00  0.00    +0.023 A 
ATOM     19  C   UNL     1       0.005  -0.001   0.107  0.00  0.00    +0.002 A 
ENDBRANCH   1  17
BRANCH   3  20
ATOM     20  C   UNL     1       7.389  -0.974  -0.203  0.00  0.00    +0.205 C 
BRANCH  20  21
ATOM     21  C   UNL     1       7.957  -0.820   1.185  0.00  0.00    +0.230 C 
ATOM     22  O   UNL     1       7.222  -0.853   2.148  0.00  0.00    -0.274 OA
ATOM     23  N   UNL     1       9.283  -0.645   1.354  0.00  0.00    -0.314 N 
ATOM     24  H   UNL     1       9.871  -0.618   0.583  0.00  0.00    +0.149 HD
BRANCH  23  25
ATOM     25  C   UNL     1       9.836  -0.495   2.703  0.00  0.00    +0.107 C 
BRANCH  25  26
ATOM     26  C   UNL     1      11.352  -0.312   2.615  0.00  0.00    +0.006 C 
ATOM     27  C   UNL     1      11.988  -1.586   2.056  0.00  0.00    +0.005 C 
ATOM     28  C   UNL     1      13.505  -1.403   1.968  0.00  0.00    +0.000 C 
ATOM     29  C   UNL     1      14.066  -1.123   3.364  0.00  0.00    +0.000 C 
ATOM     30  C   UNL     1      13.430   0.152   3.923  0.00  0.00    +0.000 C 
ATOM     31  C   UNL     1      11.913  -0.032   4.010  0.00  0.00    +0.005 C 
ENDBRANCH  25  26
ENDBRANCH  23  25
ENDBRANCH  20  21
ENDBRANCH   3  20
TORSDOF 5
