REMARK  Name = ZINC12218630
REMARK  6 active torsions:
REMARK  status: ('A' for Active; 'I' for Inactive)
REMARK    1  A    between atoms: C_5  and  C_7
REMARK    2  A    between atoms: N_9  and  C_10
REMARK    3  A    between atoms: C_13  and  N_16
REMARK    4  A    between atoms: C_19  and  N_59
REMARK    5  A    between atoms: C_22  and  C_23
REMARK    6  A    between atoms: C_22  and  N_59
REMARK                            x       y       z     vdW  Elec       q    Type
REMARK                         _______ _______ _______ _____ _____    ______ ____
ROOT
ATOM      1  N   UNL     1      -6.120  -4.778  -0.326  0.00  0.00    -0.330 N 
ATOM      2  C   UNL     1      -6.290  -5.706   0.799  0.00  0.00    +0.103 C 
ATOM      3  C   UNL     1      -7.568  -6.524   0.600  0.00  0.00    +0.003 C 
ATOM      4  C   UNL     1      -8.766  -5.575   0.512  0.00  0.00    -0.068 C 
ATOM      5  C   UNL     1      -8.543  -4.588  -0.637  0.00  0.00    +0.003 C 
ATOM      6  C   UNL     1      -7.236  -3.826  -0.402  0.00  0.00    +0.103 C 
ENDROOT
BRANCH   1  10
ATOM      7  C   UNL     1      -2.469  -2.782  -0.081  0.00  0.00    +0.034 A 
ATOM      8  C   UNL     1      -3.652  -2.058  -0.156  0.00  0.00    +0.025 A 
ATOM      9  C   UNL     1      -4.861  -2.719  -0.242  0.00  0.00    +0.025 A 
ATOM     10  C   UNL     1      -4.895  -4.108  -0.243  0.00  0.00    +0.030 A 
ATOM     11  C   UNL     1      -3.712  -4.831  -0.163  0.00  0.00    +0.025 A 
ATOM     12  C   UNL     1      -2.503  -4.170  -0.082  0.00  0.00    +0.025 A 
BRANCH   7  15
ATOM     13  C   UNL     1      -0.150  -2.627  -0.596  0.00  0.00    +0.251 C 
ATOM     14  O   UNL     1      -0.210  -3.715  -1.135  0.00  0.00    -0.270 OA
ATOM     15  N   UNL     1      -1.242  -2.111   0.002  0.00  0.00    -0.281 N 
ATOM     16  H   UNL     1      -1.178  -1.275   0.490  0.00  0.00    +0.155 HD
BRANCH  13  21
ATOM     17  C   UNL     1       2.378   0.079   0.019  0.00  0.00    +0.001 A 
ATOM     18  C   UNL     1       3.499  -0.453  -0.596  0.00  0.00    +0.003 A 
ATOM     19  C   UNL     1       3.438  -1.689  -1.211  0.00  0.00    +0.039 A 
ATOM     20  C   UNL     1       2.253  -2.404  -1.216  0.00  0.00    +0.135 A 
ATOM     21  C   UNL     1       1.118  -1.871  -0.596  0.00  0.00    +0.072 A 
ATOM     22  C   UNL     1       1.191  -0.621   0.022  0.00  0.00    +0.016 A 
ATOM     23  F   UNL     1       2.195  -3.614  -1.812  0.00  0.00    -0.205 F 
ENDBRANCH  13  21
ENDBRANCH   7  15
ENDBRANCH   1  10
BRANCH   4  24
ATOM     24  N   UNL     1      -9.994  -6.351   0.253  0.00  0.00    +0.385 N 
ATOM     25  H   UNL     1      -9.768  -7.150  -0.351  0.00  0.00    -0.085 HD
ATOM     26  H   UNL     1     -10.681  -5.750  -0.216  0.00  0.00    -0.085 HD
BRANCH  24  27
ATOM     27  C   UNL     1     -10.564  -6.845   1.521  0.00  0.00    -0.024 C 
BRANCH  27  28
ATOM     28  C   UNL     1     -11.815  -7.632   1.226  0.00  0.00    +0.049 A 
ATOM     29  C   UNL     1     -11.878  -9.009   0.974  0.00  0.00    -0.006 A 
ATOM     30  C   UNL     1     -13.172  -9.332   0.757  0.00  0.00    +0.039 A 
ATOM     31  N   UNL     1     -13.903  -8.200   0.867  0.00  0.00    -0.281 N 
ATOM     32  H   UNL     1     -14.894  -8.126   0.754  0.00  0.00    +0.189 HD
ATOM     33  N   UNL     1     -13.028  -7.149   1.167  0.00  0.00    -0.180 NA
ATOM     34  C   UNL     1     -13.304 -10.814   0.478  0.00  0.00    +0.055 C 
ATOM     35  C   UNL     1     -11.875 -11.283   0.127  0.00  0.00    +0.011 C 
ATOM     36  C   UNL     1     -11.005 -10.241   0.864  0.00  0.00    +0.039 C 
ENDBRANCH  27  28
ENDBRANCH  24  27
ENDBRANCH   4  24
TORSDOF 6
