REMARK  Name = ZINC40450106
REMARK  10 active torsions:
REMARK  status: ('A' for Active; 'I' for Inactive)
REMARK    1  A    between atoms: C_1  and  C_2
REMARK    2  A    between atoms: C_2  and  O_3
REMARK    3  A    between atoms: O_3  and  C_4
REMARK    4  A    between atoms: C_4  and  C_6
REMARK    5  A    between atoms: C_7  and  C_25
REMARK    6  A    between atoms: N_8  and  C_15
REMARK    7  A    between atoms: C_10  and  C_11
REMARK    8  A    between atoms: C_18  and  S_21
REMARK    9  A    between atoms: S_21  and  N_24
REMARK   10  A    between atoms: C_28  and  C_31
REMARK                            x       y       z     vdW  Elec       q    Type
REMARK                         _______ _______ _______ _____ _____    ______ ____
ROOT
ATOM      1  C   UNL     1       1.451  -2.345  -2.521  0.00  0.00    +0.116 A 
ATOM      2  C   UNL     1       2.809  -2.649  -2.636  0.00  0.00    +0.089 A 
ATOM      3  N   UNL     1       3.002  -3.127  -3.894  0.00  0.00    -0.231 N 
ATOM      4  N   UNL     1       1.771  -3.121  -4.559  0.00  0.00    -0.161 NA
ATOM      5  C   UNL     1       0.849  -2.668  -3.756  0.00  0.00    +0.180 A 
ENDROOT
BRANCH   2   6
ATOM      6  C   UNL     1       3.839  -2.481  -1.591  0.00  0.00    +0.001 A 
ATOM      7  C   UNL     1       4.771  -3.494  -1.357  0.00  0.00    +0.010 A 
ATOM      8  C   UNL     1       5.731  -3.332  -0.380  0.00  0.00    +0.004 A 
ATOM      9  C   UNL     1       5.771  -2.168   0.368  0.00  0.00    -0.050 A 
ATOM     10  C   UNL     1       4.850  -1.160   0.141  0.00  0.00    +0.004 A 
ATOM     11  C   UNL     1       3.889  -1.307  -0.838  0.00  0.00    +0.010 A 
ATOM     12  C   UNL     1       6.822  -1.997   1.434  0.00  0.00    +0.044 C 
ENDBRANCH   2   6
BRANCH   3  13
ATOM     13  C   UNL     1       4.223  -3.551  -4.432  0.00  0.00    +0.066 A 
ATOM     14  C   UNL     1       5.402  -2.914  -4.069  0.00  0.00    +0.030 A 
ATOM     15  C   UNL     1       6.605  -3.336  -4.601  0.00  0.00    +0.030 A 
ATOM     16  C   UNL     1       6.636  -4.391  -5.494  0.00  0.00    +0.105 A 
ATOM     17  C   UNL     1       5.463  -5.027  -5.858  0.00  0.00    +0.030 A 
ATOM     18  C   UNL     1       4.258  -4.614  -5.326  0.00  0.00    +0.030 A 
BRANCH  16  19
ATOM     19  S   UNL     1       8.173  -4.925  -6.171  0.00  0.00    +0.056 S 
ATOM     20  O   UNL     1       7.872  -5.574  -7.399  0.00  0.00    -0.153 OA
ATOM     21  O   UNL     1       9.058  -3.816  -6.092  0.00  0.00    -0.153 OA
BRANCH  19  22
ATOM     22  N   UNL     1       8.777  -6.086  -5.157  0.00  0.00    -0.204 NA
ATOM     23  H   UNL     1       8.282  -6.342  -4.363  0.00  0.00    +0.144 HD
ATOM     24  H   UNL     1       9.626  -6.511  -5.357  0.00  0.00    +0.144 HD
ENDBRANCH  19  22
ENDBRANCH  16  19
ENDBRANCH   3  13
BRANCH   5  25
ATOM     25  C   UNL     1      -0.612  -2.511  -4.090  0.00  0.00    +0.437 C 
ATOM     26  F   UNL     1      -0.834  -1.238  -4.627  0.00  0.00    -0.164 F 
ATOM     27  F   UNL     1      -0.983  -3.482  -5.027  0.00  0.00    -0.164 F 
ATOM     28  F   UNL     1      -1.376  -2.667  -2.929  0.00  0.00    -0.164 F 
ENDBRANCH   5  25
BRANCH   1  29
ATOM     29  C   UNL     1       0.776  -1.799  -1.335  0.00  0.00    +0.343 C 
ATOM     30  O   UNL     1       0.312  -2.551  -0.499  0.00  0.00    -0.245 OA
BRANCH  29  31
ATOM     31  O   UNL     1       0.671  -0.465  -1.174  0.00  0.00    -0.461 OA
BRANCH  31  33
ATOM     32  C   UNL     1      -0.019   1.526   0.010  0.00  0.00    +0.048 C 
ATOM     33  C   UNL     1       0.002  -0.004   0.002  0.00  0.00    +0.229 C 
ENDBRANCH  31  33
ENDBRANCH  29  31
ENDBRANCH   1  29
TORSDOF 8
