REMARK  Name = ZINC19287757
REMARK  7 active torsions:
REMARK  status: ('A' for Active; 'I' for Inactive)
REMARK    1  A    between atoms: C_1  and  C_2
REMARK    2  A    between atoms: C_2  and  N_3
REMARK    3  A    between atoms: N_3  and  N_4
REMARK    4  A    between atoms: C_5  and  C_7
REMARK    5  A    between atoms: C_14  and  C_15
REMARK    6  A    between atoms: N_17  and  C_18
REMARK    7  A    between atoms: C_21  and  N_24
REMARK                            x       y       z     vdW  Elec       q    Type
REMARK                         _______ _______ _______ _____ _____    ______ ____
ROOT
ATOM      1  C   UNL     1       0.101   2.057   0.347  0.00  0.00    +0.062 C 
ATOM      2  C   UNL     1      -0.705   2.559  -0.824  0.00  0.00    +0.024 C 
ATOM      3  C   UNL     1      -2.009   2.232  -0.935  0.00  0.00    +0.087 C 
ENDROOT
BRANCH   3   4
ATOM      4  C   UNL     1      -2.798   2.809  -1.957  0.00  0.00    +0.243 C 
ATOM      5  O   UNL     1      -2.279   3.522  -2.797  0.00  0.00    -0.270 OA
ATOM      6  N   UNL     1      -4.123   2.571  -2.000  0.00  0.00    -0.282 N 
ATOM      7  H   UNL     1      -4.554   2.091  -1.276  0.00  0.00    +0.155 HD
BRANCH   6   8
ATOM      8  C   UNL     1      -4.879   3.018  -3.090  0.00  0.00    +0.034 A 
ATOM      9  C   UNL     1      -4.306   3.084  -4.353  0.00  0.00    +0.025 A 
ATOM     10  C   UNL     1      -5.054   3.526  -5.426  0.00  0.00    +0.034 A 
ATOM     11  C   UNL     1      -6.373   3.900  -5.245  0.00  0.00    +0.126 A 
ATOM     12  C   UNL     1      -6.946   3.836  -3.988  0.00  0.00    +0.034 A 
ATOM     13  C   UNL     1      -6.205   3.389  -2.911  0.00  0.00    +0.025 A 
BRANCH  11  14
ATOM     14  N   UNL     1      -7.172   4.373  -6.397  0.00  0.00    +0.056 N 
ATOM     15  O   UNL     1      -6.672   4.430  -7.497  0.00  0.00    -0.126 OA
ATOM     16  O   UNL     1      -8.325   4.701  -6.240  0.00  0.00    -0.126 OA
ENDBRANCH  11  14
ENDBRANCH   6   8
ENDBRANCH   3   4
BRANCH   2  17
ATOM     17  N   UNL     1      -0.114   3.345  -1.773  0.00  0.00    -0.268 N 
ATOM     18  H   UNL     1      -0.649   3.735  -2.482  0.00  0.00    +0.170 HD
BRANCH  17  19
ATOM     19  N   UNL     1       1.265   3.588  -1.722  0.00  0.00    -0.233 N 
ATOM     20  C   UNL     1       1.831   4.447  -2.593  0.00  0.00    +0.261 C 
ATOM     21  O   UNL     1       1.163   4.940  -3.481  0.00  0.00    -0.269 OA
ATOM     22  H   UNL     1       1.813   3.139  -1.059  0.00  0.00    +0.173 HD
BRANCH  20  23
ATOM     23  C   UNL     1       3.264   4.789  -2.470  0.00  0.00    +0.051 A 
ATOM     24  C   UNL     1       4.061   4.137  -1.527  0.00  0.00    +0.014 A 
ATOM     25  C   UNL     1       5.397   4.461  -1.417  0.00  0.00    +0.001 A 
ATOM     26  C   UNL     1       5.948   5.429  -2.237  0.00  0.00    +0.001 A 
ATOM     27  C   UNL     1       5.164   6.079  -3.173  0.00  0.00    +0.015 A 
ATOM     28  C   UNL     1       3.827   5.761  -3.299  0.00  0.00    +0.026 A 
ATOM     29  I   UNL     1       2.643   6.739  -4.724  0.00  0.00    -0.043 I 
ENDBRANCH  20  23
ENDBRANCH  17  19
ENDBRANCH   2  17
TORSDOF 6
