REMARK  Name = ZINC03542587
REMARK  12 active torsions:
REMARK  status: ('A' for Active; 'I' for Inactive)
REMARK    1  A    between atoms: C_1  and  C_2
REMARK    2  A    between atoms: C_4  and  C_15
REMARK    3  A    between atoms: C_5  and  C_14
REMARK    4  A    between atoms: N_6  and  C_7
REMARK    5  A    between atoms: C_7  and  C_8
REMARK    6  A    between atoms: C_15  and  C_17
REMARK    7  A    between atoms: C_17  and  O_18
REMARK    8  A    between atoms: O_18  and  C_19
REMARK    9  A    between atoms: C_19  and  C_21
REMARK   10  A    between atoms: C_25  and  N_27
REMARK   11  A    between atoms: N_27  and  C_28
REMARK   12  A    between atoms: N_27  and  C_29
REMARK                            x       y       z     vdW  Elec       q    Type
REMARK                         _______ _______ _______ _____ _____    ______ ____
ROOT
ATOM      1  C   UNL     1      -8.502   2.145   0.055  0.00  0.00    +0.202 C 
ATOM      2  O   UNL     1      -8.352   3.349   0.061  0.00  0.00    -0.288 OA
ENDROOT
BRANCH   1   6
ATOM      3  C   UNL     1     -12.379  -1.162   0.052  0.00  0.00    +0.063 C 
ATOM      4  C   UNL     1     -11.553   0.099   0.057  0.00  0.00    +0.017 A 
ATOM      5  C   UNL     1     -10.211   0.150   0.044  0.00  0.00    +0.034 A 
ATOM      6  C   UNL     1      -9.851   1.575   0.058  0.00  0.00    +0.042 A 
ATOM      7  C   UNL     1     -11.048   2.267   0.068  0.00  0.00    +0.027 A 
ATOM      8  N   UNL     1     -12.050   1.370   0.067  0.00  0.00    -0.345 N 
ATOM      9  C   UNL     1     -11.203   3.766   0.078  0.00  0.00    +0.064 C 
BRANCH   8  10
ATOM     10  C   UNL     1     -13.476   1.710   0.075  0.00  0.00    +0.153 C 
BRANCH  10  11
ATOM     11  C   UNL     1     -13.978   1.837  -1.364  0.00  0.00    +0.138 C 
ATOM     12  C   UNL     1     -15.497   2.143  -1.379  0.00  0.00    +0.035 C 
ATOM     13  C   UNL     1     -15.643   2.845  -2.756  0.00  0.00    +0.031 C 
ATOM     14  C   UNL     1     -14.303   3.600  -2.883  0.00  0.00    +0.160 C 
ATOM     15  O   UNL     1     -13.363   2.963  -2.010  0.00  0.00    -0.375 OA
ENDBRANCH  10  11
ENDBRANCH   8  10
ENDBRANCH   1   6
BRANCH   1  16
ATOM     16  C   UNL     1      -7.301   1.236   0.043  0.00  0.00    +0.311 C 
BRANCH  16  17
ATOM     17  O   UNL     1      -6.089   2.036   0.043  0.00  0.00    -0.453 OA
BRANCH  17  18
ATOM     18  C   UNL     1      -4.917   1.371   0.033  0.00  0.00    +0.340 C 
ATOM     19  O   UNL     1      -4.908   0.156   0.025  0.00  0.00    -0.245 OA
BRANCH  18  20
ATOM     20  C   UNL     1      -3.643   2.119   0.031  0.00  0.00    +0.061 A 
ATOM     21  C   UNL     1      -3.651   3.516   0.039  0.00  0.00    +0.015 A 
ATOM     22  C   UNL     1      -2.460   4.212   0.038  0.00  0.00    +0.003 A 
ATOM     23  C   UNL     1      -1.256   3.533   0.033  0.00  0.00    +0.023 A 
ATOM     24  C   UNL     1      -1.237   2.143   0.020  0.00  0.00    +0.030 A 
ATOM     25  C   UNL     1      -2.429   1.433   0.021  0.00  0.00    +0.038 A 
BRANCH  24  26
ATOM     26  N   UNL     1      -0.018   1.461   0.010  0.00  0.00    -0.336 N 
ATOM     27  C   UNL     1       0.002  -0.004   0.002  0.00  0.00    +0.129 C 
ATOM     28  C   UNL     1       1.241   2.211   0.002  0.00  0.00    +0.129 C 
ENDBRANCH  24  26
ENDBRANCH  18  20
ENDBRANCH  17  18
ENDBRANCH  16  17
ENDBRANCH   1  16
TORSDOF 8
