REMARK  Name = ZINC46817376
REMARK  7 active torsions:
REMARK  status: ('A' for Active; 'I' for Inactive)
REMARK    1  A    between atoms: C_1  and  C_2
REMARK    2  A    between atoms: C_5  and  N_9
REMARK    3  A    between atoms: C_10  and  C_12
REMARK    4  A    between atoms: C_12  and  C_14
REMARK    5  A    between atoms: C_12  and  N_15
REMARK    6  A    between atoms: N_15  and  C_16
REMARK    7  A    between atoms: C_20  and  N_22
REMARK                            x       y       z     vdW  Elec       q    Type
REMARK                         _______ _______ _______ _____ _____    ______ ____
ROOT
ATOM      1  C   UNL     1      -0.136  -6.343  -1.191  0.00  0.00    +0.154 C 
ATOM      2  C   UNL     1      -1.378  -6.777  -0.409  0.00  0.00    +0.038 C 
ENDROOT
BRANCH   1   4
ATOM      3  N   UNL     1       0.057  -4.171  -0.023  0.00  0.00    -0.283 N 
ATOM      4  C   UNL     1      -0.042  -4.839  -1.190  0.00  0.00    +0.237 C 
ATOM      5  O   UNL     1      -0.055  -4.230  -2.238  0.00  0.00    -0.273 OA
ATOM      6  H   UNL     1       0.149  -4.660   0.809  0.00  0.00    +0.155 HD
BRANCH   3  11
ATOM      7  C   UNL     1      -0.064   1.502   0.016  0.00  0.00    +0.044 C 
ATOM      8  C   UNL     1      -0.031  -0.005   0.006  0.00  0.00    -0.049 A 
ATOM      9  C   UNL     1      -0.622  -0.701  -1.033  0.00  0.00    +0.005 A 
ATOM     10  C   UNL     1      -0.594  -2.082  -1.045  0.00  0.00    +0.025 A 
ATOM     11  C   UNL     1       0.028  -2.772  -0.014  0.00  0.00    +0.052 A 
ATOM     12  C   UNL     1       0.621  -2.070   1.029  0.00  0.00    +0.062 A 
ATOM     13  C   UNL     1       0.594  -0.688   1.032  0.00  0.00    +0.025 A 
ATOM     14 CL   UNL     1       1.401  -2.928   2.321  0.00  0.00    -0.082 Cl
ENDBRANCH   3  11
ENDBRANCH   1   4
BRANCH   1  15
ATOM     15  N   UNL     1      -0.234  -6.825  -2.571  0.00  0.00    -0.333 N 
ATOM     16  H   UNL     1      -0.588  -6.245  -3.263  0.00  0.00    +0.147 HD
BRANCH  15  17
ATOM     17  C   UNL     1       0.182  -8.120  -2.889  0.00  0.00    +0.029 A 
ATOM     18  C   UNL     1       0.684  -8.954  -1.897  0.00  0.00    +0.023 A 
ATOM     19  C   UNL     1       1.095 -10.234  -2.211  0.00  0.00    +0.004 A 
ATOM     20  C   UNL     1       1.010 -10.691  -3.513  0.00  0.00    +0.024 A 
ATOM     21  C   UNL     1       0.509  -9.862  -4.509  0.00  0.00    +0.041 A 
ATOM     22  C   UNL     1       0.090  -8.577  -4.196  0.00  0.00    +0.046 A 
BRANCH  21  23
ATOM     23  N   UNL     1       0.423 -10.325  -5.827  0.00  0.00    -0.234 N 
ATOM     24  C   UNL     1       0.818 -11.665  -6.307  0.00  0.00    +0.158 C 
ATOM     25  C   UNL     1       0.154 -11.721  -7.703  0.00  0.00    +0.253 C 
ATOM     26  O   UNL     1       0.031 -10.324  -8.033  0.00  0.00    -0.448 OA
ATOM     27  C   UNL     1      -0.040  -9.632  -6.884  0.00  0.00    +0.407 C 
ATOM     28  O   UNL     1      -0.472  -8.499  -6.807  0.00  0.00    -0.226 OA
ENDBRANCH  21  23
ENDBRANCH  15  17
ENDBRANCH   1  15
TORSDOF 5
