REMARK  Name = ZINC05119700
REMARK  3 active torsions:
REMARK  status: ('A' for Active; 'I' for Inactive)
REMARK    1  A    between atoms: C_1  and  C_2
REMARK    2  A    between atoms: C_2  and  C_15
REMARK    3  A    between atoms: N_3  and  N_4
REMARK                            x       y       z     vdW  Elec       q    Type
REMARK                         _______ _______ _______ _____ _____    ______ ____
ROOT
ATOM      1  C   UNL     1      -4.993  -0.012   0.047  0.00  0.00    +0.068 C 
ATOM      2  C   UNL     1      -3.684  -0.757   0.029  0.00  0.00    +0.063 C 
ATOM      3  N   UNL     1      -3.675  -2.056   0.020  0.00  0.00    -0.185 NA
ENDROOT
BRANCH   2   4
ATOM      4  C   UNL     1      -2.412  -0.013   0.023  0.00  0.00    -0.001 A 
ATOM      5  C   UNL     1      -2.419   1.385   0.033  0.00  0.00    +0.011 A 
ATOM      6  C   UNL     1      -1.226   2.075   0.031  0.00  0.00    +0.017 A 
ATOM      7  C   UNL     1      -0.017   1.390   0.010  0.00  0.00    +0.034 A 
ATOM      8  C   UNL     1       0.002  -0.004   0.002  0.00  0.00    +0.046 A 
ATOM      9  C   UNL     1      -1.198  -0.702   0.007  0.00  0.00    +0.034 A 
ATOM     10  N   UNL     1       1.194  -0.724  -0.007  0.00  0.00    -0.313 N 
ATOM     11  C   UNL     1       2.417  -0.239  -0.464  0.00  0.00    +0.045 A 
ATOM     12  C   UNL     1       3.384  -1.148  -0.883  0.00  0.00    +0.024 A 
ATOM     13  C   UNL     1       4.610  -0.702  -1.336  0.00  0.00    +0.002 A 
ATOM     14  C   UNL     1       4.887   0.651  -1.378  0.00  0.00    +0.001 A 
ATOM     15  C   UNL     1       3.933   1.563  -0.966  0.00  0.00    +0.017 A 
ATOM     16  C   UNL     1       2.697   1.123  -0.511  0.00  0.00    +0.034 A 
ATOM     17  S   UNL     1       1.492   2.300   0.000  0.00  0.00    -0.086 S 
ATOM     18  H   UNL     1       1.171  -1.633   0.331  0.00  0.00    +0.152 HD
ENDBRANCH   2   4
BRANCH   3  19
ATOM     19  N   UNL     1      -4.884  -2.764   0.026  0.00  0.00    -0.219 N 
ATOM     20  C   UNL     1      -4.876  -4.148   0.016  0.00  0.00    +0.168 A 
ATOM     21  C   UNL     1      -6.088  -4.876   0.022  0.00  0.00    +0.027 A 
ATOM     22  C   UNL     1      -7.342  -4.258   0.037  0.00  0.00    +0.012 A 
ATOM     23  C   UNL     1      -8.468  -5.027   0.042  0.00  0.00    +0.001 A 
ATOM     24  C   UNL     1      -8.389  -6.418   0.031  0.00  0.00    +0.001 A 
ATOM     25  C   UNL     1      -7.182  -7.053   0.016  0.00  0.00    +0.010 A 
ATOM     26  C   UNL     1      -6.005  -6.293   0.011  0.00  0.00    +0.005 A 
ATOM     27  C   UNL     1      -4.724  -6.874  -0.005  0.00  0.00    +0.143 A 
ATOM     28  N   UNL     1      -3.668  -6.093  -0.009  0.00  0.00    -0.155 NA
ATOM     29  N   UNL     1      -3.734  -4.814  -0.005  0.00  0.00    -0.132 NA
ATOM     30  H   UNL     1      -5.727  -2.284   0.037  0.00  0.00    +0.176 HD
ENDBRANCH   3  19
TORSDOF 2
