REMARK  Name = ZINC63376156
REMARK  6 active torsions:
REMARK  status: ('A' for Active; 'I' for Inactive)
REMARK    1  A    between atoms: C_1  and  C_2
REMARK    2  A    between atoms: C_2  and  C_3
REMARK    3  A    between atoms: C_3  and  C_4
REMARK    4  A    between atoms: C_4  and  N_5
REMARK    5  A    between atoms: C_10  and  C_28
REMARK    6  A    between atoms: C_28  and  C_29
REMARK                            x       y       z     vdW  Elec       q    Type
REMARK                         _______ _______ _______ _____ _____    ______ ____
ROOT
ATOM      1  N   UNL     1      -2.787  -2.571   0.015  0.00  0.00    -0.242 N 
ATOM      2  C   UNL     1      -3.457  -2.822   1.145  0.00  0.00    +0.227 C 
ATOM      3  O   UNL     1      -3.022  -2.667   2.266  0.00  0.00    -0.275 OA
ATOM      4  C   UNL     1      -4.841  -3.327   0.807  0.00  0.00    +0.107 C 
ATOM      5  C   UNL     1      -4.960  -4.807   1.227  0.00  0.00    +0.072 C 
ATOM      6  N   UNL     1      -4.450  -5.577   0.062  0.00  0.00    -0.295 NA
ATOM      7  C   UNL     1      -4.957  -4.837  -1.109  0.00  0.00    +0.136 C 
ATOM      8  C   UNL     1      -4.851  -3.335  -0.747  0.00  0.00    +0.122 C 
ATOM      9  C   UNL     1      -3.477  -2.815  -1.105  0.00  0.00    +0.228 C 
ATOM     10  O   UNL     1      -3.063  -2.649  -2.233  0.00  0.00    -0.275 OA
ATOM     11  C   UNL     1      -4.178  -5.165  -2.350  0.00  0.00    +0.005 A 
ATOM     12  C   UNL     1      -2.850  -5.047  -2.695  0.00  0.00    +0.027 A 
ATOM     13  C   UNL     1      -2.422  -5.446  -3.950  0.00  0.00    +0.041 A 
ATOM     14  C   UNL     1      -3.333  -5.962  -4.856  0.00  0.00    +0.022 A 
ATOM     15  C   UNL     1      -4.664  -6.080  -4.514  0.00  0.00    +0.025 A 
ATOM     16  C   UNL     1      -5.102  -5.681  -3.254  0.00  0.00    +0.039 A 
ATOM     17  N   UNL     1      -6.377  -5.700  -2.683  0.00  0.00    -0.283 N 
ATOM     18  C   UNL     1      -6.378  -5.219  -1.425  0.00  0.00    +0.243 C 
ATOM     19  O   UNL     1      -7.337  -5.114  -0.690  0.00  0.00    -0.273 OA
ATOM     20 CL   UNL     1      -0.749  -5.299  -4.386  0.00  0.00    -0.084 Cl
ATOM     21  H   UNL     1      -3.441  -5.606   0.061  0.00  0.00    +0.124 HD
ATOM     22  H   UNL     1      -7.170  -6.021  -3.140  0.00  0.00    +0.155 HD
ENDROOT
BRANCH   1  23
ATOM     23  C   UNL     1      -1.413  -2.063   0.004  0.00  0.00    +0.116 C 
BRANCH  23  24
ATOM     24  C   UNL     1      -1.433  -0.534   0.013  0.00  0.00    +0.019 C 
BRANCH  24  26
ATOM     25  C   UNL     1      -0.019   1.526   0.010  0.00  0.00    +0.004 C 
ATOM     26  C   UNL     1       0.002  -0.004   0.002  0.00  0.00    -0.002 C 
ENDBRANCH  24  26
ENDBRANCH  23  24
ENDBRANCH   1  23
BRANCH   5  27
ATOM     27  C   UNL     1      -4.104  -5.080   2.465  0.00  0.00    +0.052 C 
BRANCH  27  28
ATOM     28  C   UNL     1      -4.329  -6.496   2.930  0.00  0.00    -0.040 C 
ATOM     29  C   UNL     1      -3.582  -7.581   2.624  0.00  0.00    -0.001 A 
ATOM     30  C   UNL     1      -2.382  -7.762   1.798  0.00  0.00    +0.010 A 
ATOM     31  C   UNL     1      -1.849  -8.999   1.678  0.00  0.00    +0.001 A 
ATOM     32  C   UNL     1      -2.412 -10.110   2.321  0.00  0.00    +0.002 A 
ATOM     33  C   UNL     1      -3.514 -10.023   3.096  0.00  0.00    +0.026 A 
ATOM     34  C   UNL     1      -4.157  -8.771   3.293  0.00  0.00    +0.043 A 
ATOM     35  N   UNL     1      -5.218  -8.434   3.985  0.00  0.00    -0.380 N 
ATOM     36  C   UNL     1      -5.434  -6.990   3.838  0.00  0.00    +0.144 C 
ATOM     37  H   UNL     1      -5.768  -9.037   4.509  0.00  0.00    +0.160 HD
ENDBRANCH  27  28
ENDBRANCH   5  27
TORSDOF 5
