REMARK  Name = ZINC67416421
REMARK  7 active torsions:
REMARK  status: ('A' for Active; 'I' for Inactive)
REMARK    1  A    between atoms: C_1  and  C_2
REMARK    2  A    between atoms: C_4  and  C_29
REMARK    3  A    between atoms: C_8  and  N_13
REMARK    4  A    between atoms: C_23  and  C_25
REMARK    5  A    between atoms: C_25  and  C_26
REMARK    6  A    between atoms: C_25  and  C_27
REMARK    7  A    between atoms: C_25  and  C_28
REMARK                            x       y       z     vdW  Elec       q    Type
REMARK                         _______ _______ _______ _____ _____    ______ ____
ROOT
ATOM      1  N   UNL     1      -0.147  -0.456   4.047  0.00  0.00    -0.292 N 
ATOM      2  C   UNL     1      -0.082  -0.607   5.385  0.00  0.00    +0.303 C 
ATOM      3  O   UNL     1       0.950  -0.987   5.904  0.00  0.00    -0.253 OA
ATOM      4  N   UNL     1      -1.160  -0.338   6.146  0.00  0.00    -0.284 N 
ATOM      5  C   UNL     1      -1.124  -0.480   7.560  0.00  0.00    +0.111 C 
ATOM      6  C   UNL     1      -1.388  -1.933   8.075  0.00  0.00    +0.038 C 
ATOM      7  C   UNL     1      -2.490  -2.558   7.158  0.00  0.00    +0.109 C 
ATOM      8  N   UNL     1      -3.513  -1.655   6.762  0.00  0.00    -0.299 N 
ATOM      9  C   UNL     1      -3.361  -1.001   5.436  0.00  0.00    +0.126 C 
ATOM     10  C   UNL     1      -2.437   0.128   5.547  0.00  0.00    +0.128 C 
ATOM     11  C   UNL     1      -4.574  -1.402   7.554  0.00  0.00    +0.221 C 
ATOM     12  O   UNL     1      -4.692  -1.982   8.612  0.00  0.00    -0.275 OA
ATOM     13  H   UNL     1      -0.970  -0.153   3.633  0.00  0.00    +0.151 HD
ENDROOT
BRANCH   1  21
ATOM     14  C   UNL     1       0.000   3.546   0.896  0.00  0.00    +0.044 C 
ATOM     15  C   UNL     1       0.450   2.109   0.831  0.00  0.00    -0.050 A 
ATOM     16  C   UNL     1       0.782   1.543  -0.386  0.00  0.00    +0.010 A 
ATOM     17  C   UNL     1       1.192   0.227  -0.445  0.00  0.00    -0.008 A 
ATOM     18  C   UNL     1       1.272  -0.534   0.718  0.00  0.00    +0.128 A 
ATOM     19  C   UNL     1       0.942   0.036   1.934  0.00  0.00    +0.015 A 
ATOM     20  C   UNL     1       0.534   1.359   1.988  0.00  0.00    +0.012 A 
ATOM     21  C   UNL     1       1.026  -0.749   3.219  0.00  0.00    +0.111 C 
ATOM     22  C   UNL     1       1.065  -2.247   2.905  0.00  0.00    +0.068 C 
ATOM     23  C   UNL     1       2.112  -2.483   1.810  0.00  0.00    +0.231 C 
ATOM     24  O   UNL     1       1.674  -1.828   0.619  0.00  0.00    -0.491 OA
ATOM     25  C   UNL     1       1.552  -0.389  -1.772  0.00  0.00    +0.047 C 
ENDBRANCH   1  21
BRANCH  11  26
ATOM     26  C   UNL     1      -5.613  -0.399   7.124  0.00  0.00    +0.039 C 
ATOM     27  C   UNL     1      -6.577  -0.135   8.283  0.00  0.00    +0.020 C 
ATOM     28  C   UNL     1      -4.925   0.908   6.725  0.00  0.00    +0.020 C 
ATOM     29  C   UNL     1      -6.392  -0.951   5.928  0.00  0.00    +0.020 C 
ENDBRANCH  11  26
TORSDOF 2
