REMARK  Name = ZINC09644938
REMARK  11 active torsions:
REMARK  status: ('A' for Active; 'I' for Inactive)
REMARK    1  A    between atoms: C_1  and  C_2
REMARK    2  A    between atoms: C_2  and  N_3
REMARK    3  A    between atoms: N_3  and  C_4
REMARK    4  A    between atoms: N_3  and  S_6
REMARK    5  A    between atoms: C_4  and  C_5
REMARK    6  A    between atoms: S_6  and  C_9
REMARK    7  A    between atoms: C_15  and  C_20
REMARK    8  A    between atoms: N_22  and  C_23
REMARK    9  A    between atoms: C_23  and  C_24
REMARK   10  A    between atoms: C_24  and  C_26
REMARK   11  A    between atoms: C_24  and  N_31
REMARK                            x       y       z     vdW  Elec       q    Type
REMARK                         _______ _______ _______ _____ _____    ______ ____
ROOT
ATOM      1  C   UNL     1      -0.214  -0.376  -3.648  0.00  0.00    +0.106 A 
ATOM      2  C   UNL     1      -1.334   0.437  -3.536  0.00  0.00    +0.030 A 
ATOM      3  C   UNL     1      -1.444   1.587  -4.285  0.00  0.00    +0.028 A 
ATOM      4  C   UNL     1      -0.424   1.942  -5.164  0.00  0.00    +0.050 A 
ATOM      5  C   UNL     1       0.708   1.116  -5.274  0.00  0.00    +0.012 A 
ATOM      6  C   UNL     1       0.801  -0.045  -4.500  0.00  0.00    +0.039 A 
ATOM      7  C   UNL     1       1.787   1.488  -6.202  0.00  0.00    +0.051 A 
ATOM      8  C   UNL     1       1.653   2.633  -6.933  0.00  0.00    +0.083 A 
ATOM      9  C   UNL     1       0.453   3.451  -6.774  0.00  0.00    +0.250 A 
ATOM     10  N   UNL     1      -0.521   3.091  -5.920  0.00  0.00    -0.322 N 
ATOM     11  O   UNL     1       0.333   4.473  -7.425  0.00  0.00    -0.268 OA
ATOM     12  H   UNL     1      -1.309   3.651  -5.834  0.00  0.00    +0.169 HD
ENDROOT
BRANCH   7  13
ATOM     13  C   UNL     1       2.994   0.637  -6.341  0.00  0.00    +0.245 C 
ATOM     14  O   UNL     1       3.047  -0.439  -5.779  0.00  0.00    -0.270 OA
ATOM     15  N   UNL     1       4.033   1.058  -7.089  0.00  0.00    -0.312 N 
ATOM     16  H   UNL     1       4.022   1.946  -7.478  0.00  0.00    +0.149 HD
BRANCH  15  17
ATOM     17  C   UNL     1       5.179   0.173  -7.316  0.00  0.00    +0.097 C 
BRANCH  17  18
ATOM     18  C   UNL     1       6.123   0.244  -6.114  0.00  0.00    +0.016 C 
BRANCH  18  19
ATOM     19  N   UNL     1       6.573   1.630  -5.926  0.00  0.00    +0.387 N 
ATOM     20  C   UNL     1       5.446   2.474  -5.452  0.00  0.00    -0.078 C 
ATOM     21  C   UNL     1       6.160   3.675  -4.782  0.00  0.00    -0.020 C 
ATOM     22  C   UNL     1       7.384   3.016  -4.105  0.00  0.00    -0.020 C 
ATOM     23  C   UNL     1       7.599   1.693  -4.863  0.00  0.00    -0.078 C 
ATOM     24  H   UNL     1       6.944   1.996  -6.790  0.00  0.00    -0.081 HD
ENDBRANCH  18  19
BRANCH  18  25
ATOM     25  C   UNL     1       7.317  -0.642  -6.361  0.00  0.00    +0.093 A 
ATOM     26  C   UNL     1       7.491  -1.883  -5.870  0.00  0.00    +0.043 A 
ATOM     27  C   UNL     1       8.739  -2.342  -6.349  0.00  0.00    +0.041 A 
ATOM     28  C   UNL     1       9.253  -1.355  -7.105  0.00  0.00    +0.195 A 
ATOM     29  O   UNL     1       8.385  -0.330  -7.113  0.00  0.00    -0.469 OA
ENDBRANCH  18  25
ENDBRANCH  17  18
ENDBRANCH  15  17
ENDBRANCH   7  13
BRANCH   1  30
ATOM     30  S   UNL     1      -0.098  -1.843  -2.679  0.00  0.00    +0.061 S 
ATOM     31  O   UNL     1       0.699  -2.757  -3.420  0.00  0.00    -0.153 OA
ATOM     32  O   UNL     1      -1.418  -2.154  -2.254  0.00  0.00    -0.153 OA
BRANCH  30  33
ATOM     33  N   UNL     1       0.761  -1.462  -1.316  0.00  0.00    -0.177 NA
BRANCH  33  35
ATOM     34  C   UNL     1      -0.055   0.429   0.002  0.00  0.00    +0.022 C 
ATOM     35  C   UNL     1       0.057  -1.094  -0.085  0.00  0.00    +0.106 C 
ENDBRANCH  33  35
BRANCH  33  36
ATOM     36  C   UNL     1       2.226  -1.493  -1.341  0.00  0.00    +0.106 C 
ATOM     37  C   UNL     1       2.717  -2.825  -0.770  0.00  0.00    +0.022 C 
ENDBRANCH  33  36
ENDBRANCH  30  33
ENDBRANCH   1  30
TORSDOF 9
