REMARK  Name = ZINC40003111
REMARK  9 active torsions:
REMARK  status: ('A' for Active; 'I' for Inactive)
REMARK    1  A    between atoms: C_1  and  S_2
REMARK    2  A    between atoms: S_2  and  C_3
REMARK    3  A    between atoms: C_9  and  C_28
REMARK    4  A    between atoms: C_11  and  C_16
REMARK    5  A    between atoms: C_16  and  C_18
REMARK    6  A    between atoms: C_21  and  O_24
REMARK    7  A    between atoms: O_24  and  C_25
REMARK    8  A    between atoms: C_25  and  C_26
REMARK    9  A    between atoms: C_31  and  N_34
REMARK                            x       y       z     vdW  Elec       q    Type
REMARK                         _______ _______ _______ _____ _____    ______ ____
ROOT
ATOM      1  C   UNL     1       2.193   1.063  -1.669  0.00  0.00    +0.160 A 
ATOM      2  N   UNL     1       2.960   1.494  -2.660  0.00  0.00    -0.133 NA
ATOM      3  N   UNL     1       3.286   0.748  -3.623  0.00  0.00    -0.125 NA
ATOM      4  C   UNL     1       2.884  -0.511  -3.703  0.00  0.00    +0.192 A 
ATOM      5  S   UNL     1       1.923  -0.627  -2.197  0.00  0.00    -0.024 S 
ATOM      6  N   UNL     1       3.140  -1.470  -4.676  0.00  0.00    -0.230 N 
ATOM      7  C   UNL     1       3.957  -1.283  -5.880  0.00  0.00    +0.152 C 
ATOM      8  C   UNL     1       3.934  -2.603  -6.614  0.00  0.00    +0.077 C 
ATOM      9  C   UNL     1       3.169  -3.445  -5.878  0.00  0.00    +0.250 C 
ATOM     10  C   UNL     1       2.686  -2.737  -4.676  0.00  0.00    +0.293 C 
ATOM     11  O   UNL     1       1.980  -3.225  -3.816  0.00  0.00    -0.266 OA
ATOM     12  O   UNL     1       2.896  -4.733  -6.192  0.00  0.00    -0.282 OA
ENDROOT
BRANCH   7  13
ATOM     13  C   UNL     1       5.371  -0.927  -5.496  0.00  0.00    -0.022 A 
ATOM     14  C   UNL     1       5.997  -1.601  -4.465  0.00  0.00    +0.008 A 
ATOM     15  C   UNL     1       7.294  -1.274  -4.113  0.00  0.00    +0.033 A 
ATOM     16  C   UNL     1       7.963  -0.274  -4.793  0.00  0.00    +0.126 A 
ATOM     17  C   UNL     1       7.337   0.399  -5.825  0.00  0.00    +0.033 A 
ATOM     18  C   UNL     1       6.042   0.069  -6.180  0.00  0.00    +0.008 A 
BRANCH  16  19
ATOM     19  N   UNL     1       9.351   0.076  -4.416  0.00  0.00    +0.056 N 
ATOM     20  O   UNL     1       9.899  -0.512  -3.513  0.00  0.00    -0.126 OA
ATOM     21  O   UNL     1       9.937   0.951  -5.011  0.00  0.00    -0.126 OA
ENDBRANCH  16  19
ENDBRANCH   7  13
BRANCH   1  23
ATOM     22  C   UNL     1       2.301   3.578  -0.403  0.00  0.00    +0.092 C 
ATOM     23  S   UNL     1       1.612   1.908  -0.236  0.00  0.00    -0.100 S 
ENDBRANCH   1  23
BRANCH   8  24
ATOM     24  C   UNL     1       4.607  -2.913  -7.878  0.00  0.00    +0.195 C 
ATOM     25  O   UNL     1       5.487  -3.754  -7.909  0.00  0.00    -0.287 OA
BRANCH  24  26
ATOM     26  C   UNL     1       4.219  -2.206  -9.114  0.00  0.00    +0.022 A 
ATOM     27  C   UNL     1       3.136  -1.322  -9.105  0.00  0.00    +0.015 A 
ATOM     28  C   UNL     1       2.777  -0.664 -10.259  0.00  0.00    +0.046 A 
ATOM     29  C   UNL     1       3.491  -0.877 -11.434  0.00  0.00    +0.121 A 
ATOM     30  C   UNL     1       4.568  -1.755 -11.447  0.00  0.00    +0.046 A 
ATOM     31  C   UNL     1       4.937  -2.413 -10.296  0.00  0.00    +0.015 A 
BRANCH  29  32
ATOM     32  O   UNL     1       3.134  -0.226 -12.570  0.00  0.00    -0.488 OA
BRANCH  32  33
ATOM     33  C   UNL     1       3.910  -0.491 -13.740  0.00  0.00    +0.256 C 
BRANCH  33  34
ATOM     34  C   UNL     1       3.370   0.315 -14.894  0.00  0.00    +0.006 C 
ATOM     35  C   UNL     1       4.193   0.958 -15.684  0.00  0.00    +0.007 C 
ENDBRANCH  33  34
ENDBRANCH  32  33
ENDBRANCH  29  32
ENDBRANCH  24  26
ENDBRANCH   8  24
TORSDOF 8
