REMARK  Name = ZINC20726715
REMARK  6 active torsions:
REMARK  status: ('A' for Active; 'I' for Inactive)
REMARK    1  A    between atoms: C_1  and  C_2
REMARK    2  A    between atoms: C_2  and  C_3
REMARK    3  A    between atoms: C_2  and  C_4
REMARK    4  A    between atoms: C_4  and  O_5
REMARK    5  A    between atoms: O_5  and  C_6
REMARK    6  A    between atoms: C_10  and  C_12
REMARK                            x       y       z     vdW  Elec       q    Type
REMARK                         _______ _______ _______ _____ _____    ______ ____
ROOT
ATOM      1  C   UNL     1      -0.309  -0.259   7.284  0.00  0.00    +0.063 C 
ATOM      2  C   UNL     1       0.598   0.598   8.171  0.00  0.00    +0.109 C 
ATOM      3  C   UNL     1       1.676  -0.216   8.822  0.00  0.00    +0.219 C 
ATOM      4  O   UNL     1       2.778   0.274   8.947  0.00  0.00    -0.275 OA
ATOM      5  N   UNL     1       1.472  -1.471   9.276  0.00  0.00    -0.269 N 
ATOM      6  C   UNL     1       0.240  -2.080   8.988  0.00  0.00    +0.150 A 
ATOM      7  C   UNL     1      -0.643  -1.525   8.030  0.00  0.00    +0.020 A 
ATOM      8  C   UNL     1      -1.726  -2.311   7.959  0.00  0.00    +0.111 A 
ATOM      9  N   UNL     1      -1.553  -3.329   8.835  0.00  0.00    -0.283 N 
ATOM     10  H   UNL     1      -2.179  -4.052   8.998  0.00  0.00    +0.188 HD
ATOM     11  N   UNL     1      -0.308  -3.155   9.467  0.00  0.00    -0.158 NA
ATOM     12  H   UNL     1       2.154  -1.937   9.784  0.00  0.00    +0.156 HD
ENDROOT
BRANCH   1  17
ATOM     13  C   UNL     1       0.535  -0.527   3.610  0.00  0.00    +0.121 A 
ATOM     14  C   UNL     1       1.732  -1.226   3.654  0.00  0.00    +0.045 A 
ATOM     15  C   UNL     1       2.263  -1.609   4.870  0.00  0.00    +0.004 A 
ATOM     16  C   UNL     1       1.603  -1.295   6.043  0.00  0.00    +0.004 A 
ATOM     17  C   UNL     1       0.409  -0.599   6.003  0.00  0.00    -0.036 A 
ATOM     18  C   UNL     1      -0.124  -0.209   4.789  0.00  0.00    +0.050 A 
BRANCH  13  19
ATOM     19  O   UNL     1       0.010  -0.149   2.414  0.00  0.00    -0.492 OA
BRANCH  19  20
ATOM     20  C   UNL     1       0.742  -0.511   1.242  0.00  0.00    +0.232 C 
BRANCH  20  22
ATOM     21  C   UNL     1      -0.019   1.526   0.010  0.00  0.00    +0.010 C 
ATOM     22  C   UNL     1       0.002  -0.004   0.002  0.00  0.00    +0.020 C 
ATOM     23  C   UNL     1       0.718  -0.497  -1.257  0.00  0.00    +0.010 C 
ENDBRANCH  20  22
ENDBRANCH  19  20
ENDBRANCH  13  19
ENDBRANCH   1  17
TORSDOF 4
