REMARK  Name = ZINC19806344
REMARK  5 active torsions:
REMARK  status: ('A' for Active; 'I' for Inactive)
REMARK    1  A    between atoms: C_1  and  C_2
REMARK    2  A    between atoms: C_2  and  O_3
REMARK    3  A    between atoms: O_3  and  C_4
REMARK    4  A    between atoms: C_4  and  C_6
REMARK    5  A    between atoms: C_14  and  C_23
REMARK                            x       y       z     vdW  Elec       q    Type
REMARK                         _______ _______ _______ _____ _____    ______ ____
ROOT
ATOM      1  C   UNL     1       1.504  -2.375   2.479  0.00  0.00    +0.269 C 
ATOM      2  O   UNL     1       2.193  -1.557   3.308  0.00  0.00    -0.280 OA
ATOM      3  C   UNL     1       1.525  -3.713   2.678  0.00  0.00    +0.055 C 
ATOM      4  C   UNL     1       2.128  -4.331   3.924  0.00  0.00    +0.048 C 
ATOM      5  C   UNL     1       1.077  -5.185   4.637  0.00  0.00    +0.043 C 
ATOM      6  C   UNL     1       0.374  -6.081   3.651  0.00  0.00    -0.011 A 
ATOM      7  C   UNL     1      -0.321  -7.271   3.895  0.00  0.00    +0.004 A 
ATOM      8  C   UNL     1      -0.574  -7.985   5.077  0.00  0.00    +0.014 A 
ATOM      9  C   UNL     1      -1.304  -9.139   4.962  0.00  0.00    -0.044 A 
ATOM     10  C   UNL     1      -1.779  -9.595   3.742  0.00  0.00    +0.006 A 
ATOM     11  C   UNL     1      -1.548  -8.914   2.559  0.00  0.00    +0.026 A 
ATOM     12  C   UNL     1      -0.808  -7.736   2.643  0.00  0.00    +0.047 A 
ATOM     13  N   UNL     1      -0.411  -6.844   1.688  0.00  0.00    -0.351 N 
ATOM     14  H   UNL     1      -0.603  -6.905   0.739  0.00  0.00    +0.166 HD
ATOM     15  C   UNL     1       0.308  -5.846   2.300  0.00  0.00    +0.091 A 
ATOM     16  C   UNL     1       0.952  -4.666   1.689  0.00  0.00    +0.209 C 
ATOM     17  O   UNL     1       1.010  -4.492   0.485  0.00  0.00    -0.285 OA
ENDROOT
BRANCH   9  18
ATOM     18  C   UNL     1      -1.601  -9.940   6.204  0.00  0.00    +0.019 C 
ATOM     19  C   UNL     1      -1.009 -11.344   6.059  0.00  0.00    +0.008 C 
ATOM     20  C   UNL     1      -1.310 -12.157   7.319  0.00  0.00    +0.001 C 
ATOM     21  C   UNL     1      -2.824 -12.260   7.510  0.00  0.00    +0.000 C 
ATOM     22  C   UNL     1      -3.416 -10.856   7.655  0.00  0.00    +0.001 C 
ATOM     23  C   UNL     1      -3.115 -10.043   6.395  0.00  0.00    +0.008 C 
ENDBRANCH   9  18
BRANCH   1  24
ATOM     24  C   UNL     1       0.727  -1.806   1.355  0.00  0.00    +0.380 C 
ATOM     25  O   UNL     1       0.009  -2.524   0.688  0.00  0.00    -0.241 OA
BRANCH  24  26
ATOM     26  O   UNL     1       0.817  -0.492   1.071  0.00  0.00    -0.459 OA
BRANCH  26  28
ATOM     27  C   UNL     1       0.270   1.492  -0.196  0.00  0.00    +0.048 C 
ATOM     28  C   UNL     1       0.040  -0.011  -0.028  0.00  0.00    +0.229 C 
ENDBRANCH  26  28
ENDBRANCH  24  26
ENDBRANCH   1  24
TORSDOF 4
