REMARK  Name = ZINC38742154
REMARK  7 active torsions:
REMARK  status: ('A' for Active; 'I' for Inactive)
REMARK    1  A    between atoms: C_1  and  C_2
REMARK    2  A    between atoms: C_4  and  C_8
REMARK    3  A    between atoms: C_14  and  C_17
REMARK    4  A    between atoms: C_17  and  C_18
REMARK    5  A    between atoms: C_17  and  C_19
REMARK    6  A    between atoms: C_17  and  O_20
REMARK    7  A    between atoms: O_20  and  C_21
REMARK                            x       y       z     vdW  Elec       q    Type
REMARK                         _______ _______ _______ _____ _____    ______ ____
ROOT
ATOM      1  C   UNL     1       0.467  -4.958   0.434  0.00  0.00    +0.181 A 
ATOM      2  N   UNL     1       1.257  -5.312   1.404  0.00  0.00    -0.129 NA
ATOM      3  N   UNL     1       0.599  -5.975   2.289  0.00  0.00    -0.121 NA
ATOM      4  C   UNL     1      -0.644  -6.059   1.930  0.00  0.00    +0.211 A 
ATOM      5  N   UNL     1      -0.799  -5.439   0.716  0.00  0.00    -0.222 N 
ATOM      6  N   UNL     1      -2.022  -5.453   0.114  0.00  0.00    -0.264 N 
ATOM      7  C   UNL     1      -3.170  -5.688   1.030  0.00  0.00    +0.195 C 
ATOM      8  S   UNL     1      -2.277  -6.636   2.341  0.00  0.00    -0.057 S 
ATOM      9  H   UNL     1      -2.164  -4.619  -0.436  0.00  0.00    +0.168 HD
ENDROOT
BRANCH   1  13
ATOM     10  C   UNL     1       3.027  -1.135  -0.531  0.00  0.00    +0.067 C 
ATOM     11  C   UNL     1       2.337  -2.462  -0.714  0.00  0.00    +0.059 C 
ATOM     12  C   UNL     1       1.056  -2.696  -0.423  0.00  0.00    +0.034 C 
ATOM     13  C   UNL     1       0.861  -4.159  -0.782  0.00  0.00    +0.222 C 
ATOM     14  N   UNL     1       2.192  -4.561  -1.266  0.00  0.00    -0.172 NA
ATOM     15  N   UNL     1       2.930  -3.575  -1.199  0.00  0.00    -0.159 NA
ENDBRANCH   1  13
BRANCH   7  16
ATOM     16  C   UNL     1      -4.254  -6.540   0.366  0.00  0.00    +0.134 C 
ATOM     17  C   UNL     1      -5.408  -6.752   1.348  0.00  0.00    +0.058 C 
ATOM     18  C   UNL     1      -4.772  -5.823  -0.882  0.00  0.00    +0.058 C 
BRANCH  16  19
ATOM     19  O   UNL     1      -3.705  -7.806  -0.004  0.00  0.00    -0.483 OA
BRANCH  19  20
ATOM     20  C   UNL     1      -4.519  -8.656  -0.684  0.00  0.00    +0.122 A 
ATOM     21  C   UNL     1      -5.848  -8.322  -0.900  0.00  0.00    +0.047 A 
ATOM     22  C   UNL     1      -6.674  -9.187  -1.591  0.00  0.00    +0.023 A 
ATOM     23  C   UNL     1      -6.176 -10.386  -2.068  0.00  0.00    +0.041 A 
ATOM     24  C   UNL     1      -4.851 -10.722  -1.854  0.00  0.00    +0.023 A 
ATOM     25  C   UNL     1      -4.021  -9.856  -1.169  0.00  0.00    +0.047 A 
ATOM     26 CL   UNL     1      -7.216 -11.472  -2.937  0.00  0.00    -0.084 Cl
ENDBRANCH  19  20
ENDBRANCH  16  19
ENDBRANCH   7  16
TORSDOF 4
