REMARK  Name = ZINC14186270
REMARK  6 active torsions:
REMARK  status: ('A' for Active; 'I' for Inactive)
REMARK    1  A    between atoms: C_1  and  C_2
REMARK    2  A    between atoms: C_5  and  N_33
REMARK    3  A    between atoms: C_9  and  C_18
REMARK    4  A    between atoms: C_21  and  O_24
REMARK    5  A    between atoms: O_24  and  C_25
REMARK    6  A    between atoms: C_25  and  C_26
REMARK                            x       y       z     vdW  Elec       q    Type
REMARK                         _______ _______ _______ _____ _____    ______ ____
ROOT
ATOM      1  C   UNL     1       7.139  -4.525   1.023  0.00  0.00    +0.045 C 
ATOM      2  C   UNL     1       7.616  -3.112   1.242  0.00  0.00    -0.029 A 
ATOM      3  C   UNL     1       7.460  -2.520   2.477  0.00  0.00    +0.007 A 
ATOM      4  C   UNL     1       7.898  -1.224   2.678  0.00  0.00    +0.033 A 
ATOM      5  C   UNL     1       8.489  -0.527   1.643  0.00  0.00    +0.132 A 
ATOM      6  C   UNL     1       8.649  -1.114   0.395  0.00  0.00    +0.011 A 
ATOM      7  C   UNL     1       8.213  -2.412   0.195  0.00  0.00    +0.037 A 
ATOM      8  N   UNL     1       8.348  -3.060  -1.033  0.00  0.00    -0.336 N 
ATOM      9  C   UNL     1       8.393  -2.119  -2.152  0.00  0.00    +0.105 C 
ATOM     10  C   UNL     1       9.556  -1.145  -1.953  0.00  0.00    +0.029 C 
ATOM     11  C   UNL     1       9.289  -0.299  -0.689  0.00  0.00    +0.051 C 
ATOM     12  C   UNL     1       8.351   0.787  -1.163  0.00  0.00    -0.023 C 
ATOM     13  C   UNL     1       8.432   0.928  -2.463  0.00  0.00    -0.030 C 
ATOM     14  C   UNL     1       9.444  -0.040  -3.041  0.00  0.00    +0.033 C 
ATOM     15  H   UNL     1       7.617  -3.743  -1.163  0.00  0.00    +0.147 HD
ENDROOT
BRANCH   9  16
ATOM     16  C   UNL     1       7.098  -1.350  -2.214  0.00  0.00    -0.027 A 
ATOM     17  C   UNL     1       6.288  -1.271  -1.096  0.00  0.00    +0.009 A 
ATOM     18  C   UNL     1       5.101  -0.567  -1.150  0.00  0.00    +0.046 A 
ATOM     19  C   UNL     1       4.722   0.062  -2.327  0.00  0.00    +0.121 A 
ATOM     20  C   UNL     1       5.534  -0.023  -3.449  0.00  0.00    +0.046 A 
ATOM     21  C   UNL     1       6.722  -0.725  -3.388  0.00  0.00    +0.009 A 
BRANCH  19  22
ATOM     22  O   UNL     1       3.554   0.755  -2.383  0.00  0.00    -0.487 OA
BRANCH  22  23
ATOM     23  C   UNL     1       3.228   1.377  -3.628  0.00  0.00    +0.264 C 
BRANCH  23  24
ATOM     24  C   UNL     1       1.909   2.095  -3.500  0.00  0.00    -0.010 A 
ATOM     25  C   UNL     1       1.877   3.416  -3.096  0.00  0.00    +0.008 A 
ATOM     26  C   UNL     1       0.667   4.073  -2.973  0.00  0.00    +0.020 A 
ATOM     27  C   UNL     1      -0.512   3.411  -3.266  0.00  0.00    +0.041 A 
ATOM     28  C   UNL     1      -0.479   2.088  -3.670  0.00  0.00    +0.020 A 
ATOM     29  C   UNL     1       0.731   1.431  -3.788  0.00  0.00    +0.008 A 
ATOM     30 CL   UNL     1      -2.031   4.237  -3.118  0.00  0.00    -0.084 Cl
ENDBRANCH  23  24
ENDBRANCH  22  23
ENDBRANCH  19  22
ENDBRANCH   9  16
BRANCH   5  31
ATOM     31  N   UNL     1       8.956   0.860   1.866  0.00  0.00    +0.057 N 
ATOM     32  O   UNL     1       8.819   1.380   2.958  0.00  0.00    -0.126 OA
ATOM     33  O   UNL     1       9.478   1.480   0.957  0.00  0.00    -0.126 OA
ENDBRANCH   5  31
TORSDOF 5
