REMARK  Name = ZINC01168689
REMARK  5 active torsions:
REMARK  status: ('A' for Active; 'I' for Inactive)
REMARK    1  A    between atoms: C_1  and  C_2
REMARK    2  A    between atoms: C_2  and  S_3
REMARK    3  A    between atoms: S_3  and  C_4
REMARK    4  A    between atoms: C_17  and  C_20
REMARK    5  A    between atoms: C_25  and  C_26
REMARK                            x       y       z     vdW  Elec       q    Type
REMARK                         _______ _______ _______ _____ _____    ______ ____
ROOT
ATOM      1  C   UNL     1       4.437   1.198  -1.676  0.00  0.00    +0.212 A 
ATOM      2  N   UNL     1       3.583   1.060  -0.666  0.00  0.00    -0.184 NA
ATOM      3  C   UNL     1       2.600   1.934  -0.526  0.00  0.00    +0.248 A 
ATOM      4  C   UNL     1       2.488   2.986  -1.462  0.00  0.00    +0.156 A 
ATOM      5  N   UNL     1       3.374   3.069  -2.443  0.00  0.00    -0.141 NA
ATOM      6  N   UNL     1       4.318   2.198  -2.541  0.00  0.00    -0.122 NA
ATOM      7  C   UNL     1       1.388   3.963  -1.334  0.00  0.00    +0.028 A 
ATOM      8  C   UNL     1       1.617   5.331  -1.412  0.00  0.00    +0.012 A 
ATOM      9  C   UNL     1       0.558   6.212  -1.300  0.00  0.00    +0.001 A 
ATOM     10  C   UNL     1      -0.729   5.740  -1.112  0.00  0.00    +0.002 A 
ATOM     11  C   UNL     1      -0.971   4.381  -1.027  0.00  0.00    +0.024 A 
ATOM     12  C   UNL     1       0.079   3.487  -1.130  0.00  0.00    +0.039 A 
ATOM     13  N   UNL     1      -0.124   2.109  -1.014  0.00  0.00    -0.305 N 
ATOM     14  C   UNL     1       0.389   1.419   0.166  0.00  0.00    +0.297 C 
ATOM     15  O   UNL     1       1.710   1.838   0.490  0.00  0.00    -0.449 OA
ATOM     16  H   UNL     1      -0.597   1.619  -1.705  0.00  0.00    +0.150 HD
ENDROOT
BRANCH  14  17
ATOM     17  C   UNL     1      -0.518   1.708   1.335  0.00  0.00    +0.056 A 
ATOM     18  C   UNL     1      -1.427   2.704   1.409  0.00  0.00    +0.114 A 
ATOM     19  N   UNL     1      -2.037   2.623   2.611  0.00  0.00    -0.284 N 
ATOM     20  H   UNL     1      -2.761   3.228   2.944  0.00  0.00    +0.188 HD
ATOM     21  N   UNL     1      -1.480   1.546   3.311  0.00  0.00    -0.173 NA
ATOM     22  C   UNL     1      -0.564   0.991   2.546  0.00  0.00    +0.101 A 
BRANCH  22  23
ATOM     23  C   UNL     1       0.273  -0.184   2.898  0.00  0.00    +0.003 A 
ATOM     24  C   UNL     1       0.504  -1.184   1.956  0.00  0.00    +0.010 A 
ATOM     25  C   UNL     1       1.286  -2.272   2.287  0.00  0.00    +0.001 A 
ATOM     26  C   UNL     1       1.833  -2.375   3.554  0.00  0.00    +0.000 A 
ATOM     27  C   UNL     1       1.602  -1.387   4.494  0.00  0.00    +0.001 A 
ATOM     28  C   UNL     1       0.825  -0.292   4.172  0.00  0.00    +0.010 A 
ENDBRANCH  22  23
ENDBRANCH  14  17
BRANCH   1  29
ATOM     29  S   UNL     1       5.748   0.037  -1.867  0.00  0.00    -0.085 S 
BRANCH  29  31
ATOM     30  C   UNL     1       7.750  -0.164  -3.715  0.00  0.00    +0.016 C 
ATOM     31  C   UNL     1       6.548   0.707  -3.346  0.00  0.00    +0.074 C 
ENDBRANCH  29  31
ENDBRANCH   1  29
TORSDOF 4
