REMARK  Name = ZINC09033348
REMARK  15 active torsions:
REMARK  status: ('A' for Active; 'I' for Inactive)
REMARK    1  A    between atoms: C_1  and  C_2
REMARK    2  A    between atoms: C_2  and  C_3
REMARK    3  A    between atoms: C_2  and  C_4
REMARK    4  A    between atoms: C_4  and  C_5
REMARK    5  A    between atoms: C_5  and  C_6
REMARK    6  A    between atoms: C_6  and  C_7
REMARK    7  A    between atoms: C_7  and  C_9
REMARK    8  A    between atoms: C_7  and  C_10
REMARK    9  A    between atoms: C_16  and  C_43
REMARK   10  A    between atoms: C_26  and  C_42
REMARK   11  A    between atoms: C_29  and  O_32
REMARK   12  A    between atoms: O_32  and  C_33
REMARK   13  A    between atoms: C_33  and  C_35
REMARK   14  A    between atoms: C_35  and  C_36
REMARK   15  A    between atoms: C_36  and  N_97
REMARK                            x       y       z     vdW  Elec       q    Type
REMARK                         _______ _______ _______ _____ _____    ______ ____
ROOT
ATOM      1  C   UNL     1      -1.623   4.032  -2.484  0.00  0.00    -0.002 C 
ATOM      2  C   UNL     1      -1.911   5.510  -2.111  0.00  0.00    +0.004 C 
ATOM      3  C   UNL     1      -1.837   5.598  -0.564  0.00  0.00    +0.004 C 
ATOM      4  C   UNL     1      -1.207   4.257  -0.154  0.00  0.00    -0.001 C 
ATOM      5  C   UNL     1      -1.845   3.279  -1.158  0.00  0.00    -0.026 C 
ATOM      6  C   UNL     1      -1.253   1.899  -1.061  0.00  0.00    +0.007 C 
ATOM      7  C   UNL     1      -0.815   1.585   0.380  0.00  0.00    +0.005 C 
ATOM      8  C   UNL     1      -1.676   2.342   1.380  0.00  0.00    +0.003 C 
ATOM      9  C   UNL     1      -1.379   3.844   1.274  0.00  0.00    +0.000 C 
ATOM     10  C   UNL     1      -2.489   4.579   2.028  0.00  0.00    +0.031 C 
ATOM     11  C   UNL     1      -2.444   4.089   3.454  0.00  0.00    -0.027 C 
ATOM     12  C   UNL     1      -1.977   2.926   3.791  0.00  0.00    -0.064 C 
ATOM     13  C   UNL     1      -1.453   1.897   2.818  0.00  0.00    -0.008 C 
ATOM     14  C   UNL     1       0.014   1.632   3.129  0.00  0.00    +0.015 C 
ATOM     15  C   UNL     1       0.414   2.341   4.423  0.00  0.00    +0.046 C 
ATOM     16  C   UNL     1      -0.538   2.016   5.569  0.00  0.00    +0.180 C 
ATOM     17  C   UNL     1      -1.945   2.542   5.261  0.00  0.00    +0.075 C 
ATOM     18  C   UNL     1      -2.239   0.597   3.027  0.00  0.00    +0.016 C 
ATOM     19  C   UNL     1      -3.373   3.203  -0.978  0.00  0.00    +0.012 C 
ENDROOT
BRANCH   1  20
ATOM     20  C   UNL     1      -0.194   3.892  -2.992  0.00  0.00    -0.010 C 
ATOM     21  C   UNL     1      -0.059   4.608  -4.338  0.00  0.00    +0.008 C 
BRANCH  20  22
ATOM     22  C   UNL     1       0.769   4.519  -1.982  0.00  0.00    +0.003 C 
BRANCH  22  23
ATOM     23  C   UNL     1       2.109   4.803  -2.664  0.00  0.00    +0.001 C 
BRANCH  23  24
ATOM     24  C   UNL     1       3.073   5.430  -1.654  0.00  0.00    +0.003 C 
BRANCH  24  26
ATOM     25  C   UNL     1       5.333   6.453  -1.363  0.00  0.00    +0.007 C 
ATOM     26  C   UNL     1       4.412   5.714  -2.336  0.00  0.00    -0.017 C 
ATOM     27  C   UNL     1       5.064   4.393  -2.752  0.00  0.00    +0.007 C 
ENDBRANCH  24  26
ENDBRANCH  23  24
ENDBRANCH  22  23
ENDBRANCH  20  22
ENDBRANCH   1  20
BRANCH  16  28
ATOM     28  O   UNL     1      -0.584   0.580   5.779  0.00  0.00    -0.461 OA
BRANCH  28  29
ATOM     29  C   UNL     1      -0.793   0.154   7.035  0.00  0.00    +0.306 C 
ATOM     30  O   UNL     1      -0.933   0.955   7.929  0.00  0.00    -0.251 OA
BRANCH  29  31
ATOM     31  C   UNL     1      -0.854  -1.322   7.330  0.00  0.00    +0.102 C 
BRANCH  31  32
ATOM     32  C   UNL     1      -1.100  -1.534   8.825  0.00  0.00    -0.068 C 
BRANCH  32  38
ATOM     33  C   UNL     1      -2.326  -3.591   8.469  0.00  0.00    -0.079 C 
ATOM     34  C   UNL     1      -2.276  -5.108   8.667  0.00  0.00    -0.019 C 
ATOM     35  C   UNL     1      -2.270  -5.422  10.166  0.00  0.00    -0.004 C 
ATOM     36  C   UNL     1      -1.072  -4.728  10.820  0.00  0.00    -0.019 C 
ATOM     37  C   UNL     1      -1.157  -3.222  10.560  0.00  0.00    -0.079 C 
ATOM     38  N   UNL     1      -1.134  -2.985   9.101  0.00  0.00    +0.380 N 
ATOM     39  H   UNL     1      -0.291  -3.419   8.706  0.00  0.00    -0.082 HD
ENDBRANCH  32  38
ENDBRANCH  31  32
ENDBRANCH  29  31
ENDBRANCH  28  29
ENDBRANCH  16  28
TORSDOF 10
