REMARK  Name = ZINC66927291
REMARK  5 active torsions:
REMARK  status: ('A' for Active; 'I' for Inactive)
REMARK    1  A    between atoms: C_1  and  C_2
REMARK    2  A    between atoms: C_5  and  N_8
REMARK    3  A    between atoms: C_10  and  C_15
REMARK    4  A    between atoms: N_17  and  C_18
REMARK    5  A    between atoms: C_23  and  O_24
REMARK                            x       y       z     vdW  Elec       q    Type
REMARK                         _______ _______ _______ _____ _____    ______ ____
ROOT
ATOM      1  N   UNL     1       1.473  -3.992  -0.017  0.00  0.00    -0.298 N 
ATOM      2  C   UNL     1       2.697  -4.801  -0.039  0.00  0.00    +0.121 C 
ATOM      3  C   UNL     1       2.262  -6.220   0.389  0.00  0.00    +0.101 C 
ATOM      4  C   UNL     1       0.770  -6.228  -0.018  0.00  0.00    +0.110 C 
ATOM      5  C   UNL     1       0.375  -4.768  -0.005  0.00  0.00    +0.217 C 
ATOM      6  O   UNL     1      -0.765  -4.357   0.012  0.00  0.00    -0.276 OA
ENDROOT
BRANCH   1  11
ATOM      7  C   UNL     1      -0.055   1.530   0.057  0.00  0.00    +0.007 C 
ATOM      8  C   UNL     1      -0.032  -0.000   0.043  0.00  0.00    -0.014 C 
ATOM      9  C   UNL     1       0.676  -0.488  -1.222  0.00  0.00    +0.005 C 
ATOM     10  C   UNL     1       0.700  -2.018  -1.236  0.00  0.00    +0.023 C 
ATOM     11  C   UNL     1       1.450  -2.527  -0.004  0.00  0.00    +0.076 C 
ATOM     12  C   UNL     1       0.743  -2.039   1.262  0.00  0.00    +0.023 C 
ATOM     13  C   UNL     1       0.719  -0.510   1.276  0.00  0.00    +0.005 C 
ENDBRANCH   1  11
BRANCH   3  14
ATOM     14  C   UNL     1       2.416  -6.405   1.877  0.00  0.00    +0.222 C 
ATOM     15  O   UNL     1       2.837  -5.496   2.561  0.00  0.00    -0.275 OA
ATOM     16  N   UNL     1       2.087  -7.581   2.447  0.00  0.00    -0.282 N 
ATOM     17  H   UNL     1       1.690  -8.286   1.912  0.00  0.00    +0.155 HD
BRANCH  16  18
ATOM     18  C   UNL     1       2.318  -7.785   3.814  0.00  0.00    +0.075 A 
ATOM     19  C   UNL     1       2.183  -6.733   4.707  0.00  0.00    +0.027 A 
ATOM     20  C   UNL     1       2.410  -6.937   6.055  0.00  0.00    +0.002 A 
ATOM     21  C   UNL     1       2.773  -8.189   6.517  0.00  0.00    +0.004 A 
ATOM     22  C   UNL     1       2.909  -9.243   5.632  0.00  0.00    +0.047 A 
ATOM     23  C   UNL     1       2.677  -9.048   4.280  0.00  0.00    +0.138 A 
BRANCH  23  24
ATOM     24  O   UNL     1       2.806 -10.085   3.410  0.00  0.00    -0.505 OA
ATOM     25  H   UNL     1       3.695 -10.184   3.045  0.00  0.00    +0.292 HD
ENDBRANCH  23  24
ENDBRANCH  16  18
ENDBRANCH   3  14
TORSDOF 4
