REMARK  Name = ZINC06408764
REMARK  10 active torsions:
REMARK  status: ('A' for Active; 'I' for Inactive)
REMARK    1  A    between atoms: C_1  and  C_2
REMARK    2  A    between atoms: C_9  and  C_14
REMARK    3  A    between atoms: C_14  and  C_16
REMARK    4  A    between atoms: C_14  and  N_69
REMARK    5  A    between atoms: N_20  and  C_21
REMARK    6  A    between atoms: C_21  and  C_22
REMARK    7  A    between atoms: C_28  and  C_29
REMARK    8  A    between atoms: C_28  and  N_69
REMARK    9  A    between atoms: C_34  and  C_35
REMARK   10  A    between atoms: C_34  and  N_69
REMARK                            x       y       z     vdW  Elec       q    Type
REMARK                         _______ _______ _______ _____ _____    ______ ____
ROOT
ATOM      1  C   UNL     1      -0.885   1.395   3.995  0.00  0.00    +0.039 C 
ENDROOT
BRANCH   1  10
ATOM      2  C   UNL     1      -5.682  -0.843  -1.258  0.00  0.00    +0.044 C 
ATOM      3  C   UNL     1      -4.301  -0.408  -0.838  0.00  0.00    -0.050 A 
ATOM      4  C   UNL     1      -3.287  -0.331  -1.783  0.00  0.00    +0.005 A 
ATOM      5  C   UNL     1      -2.017   0.063  -1.421  0.00  0.00    +0.026 A 
ATOM      6  C   UNL     1      -1.747   0.387  -0.096  0.00  0.00    +0.049 A 
ATOM      7  C   UNL     1      -2.777   0.308   0.860  0.00  0.00    -0.001 A 
ATOM      8  C   UNL     1      -4.059  -0.095   0.469  0.00  0.00    +0.013 A 
ATOM      9  C   UNL     1      -2.482   0.651   2.252  0.00  0.00    +0.017 A 
ATOM     10  C   UNL     1      -1.222   1.035   2.571  0.00  0.00    +0.011 A 
ATOM     11  C   UNL     1      -0.226   1.104   1.574  0.00  0.00    +0.251 A 
ATOM     12  O   UNL     1       0.900   1.457   1.882  0.00  0.00    -0.268 OA
ATOM     13  N   UNL     1      -0.486   0.786   0.294  0.00  0.00    -0.322 N 
ATOM     14  H   UNL     1       0.224   0.840  -0.366  0.00  0.00    +0.169 HD
ENDBRANCH   1  10
BRANCH   1  15
ATOM     15  C   UNL     1       0.033   0.350   4.574  0.00  0.00    +0.143 A 
ATOM     16  N   UNL     1       1.109  -0.145   4.013  0.00  0.00    -0.115 NA
ATOM     17  N   UNL     1       1.618  -1.009   4.821  0.00  0.00    -0.023 NA
ATOM     18  N   UNL     1       0.891  -1.085   5.880  0.00  0.00    -0.044 NA
ATOM     19  N   UNL     1      -0.097  -0.262   5.766  0.00  0.00    -0.228 N 
BRANCH  19  20
ATOM     20  C   UNL     1      -1.159  -0.036   6.750  0.00  0.00    +0.178 C 
BRANCH  20  21
ATOM     21  C   UNL     1      -2.321  -0.992   6.475  0.00  0.00    +0.140 C 
ATOM     22  C   UNL     1      -3.491  -0.684   7.433  0.00  0.00    +0.035 C 
ATOM     23  C   UNL     1      -4.011  -2.104   7.786  0.00  0.00    +0.031 C 
ATOM     24  C   UNL     1      -2.688  -2.912   7.780  0.00  0.00    +0.160 C 
ATOM     25  O   UNL     1      -1.907  -2.342   6.718  0.00  0.00    -0.375 OA
ENDBRANCH  20  21
ENDBRANCH  19  20
ENDBRANCH   1  15
BRANCH   1  26
ATOM     26  N   UNL     1      -0.196   2.703   4.005  0.00  0.00    +0.394 N 
ATOM     27  H   UNL     1       0.569   2.682   3.321  0.00  0.00    -0.080 HD
BRANCH  26  28
ATOM     28  C   UNL     1      -1.142   3.776   3.635  0.00  0.00    -0.034 C 
BRANCH  28  29
ATOM     29  C   UNL     1      -1.363   3.732   2.145  0.00  0.00    -0.027 A 
ATOM     30  C   UNL     1      -2.448   3.303   1.455  0.00  0.00    +0.009 A 
ATOM     31  C   UNL     1      -2.428   3.356   0.074  0.00  0.00    +0.008 A 
ATOM     32  C   UNL     1      -1.325   3.836  -0.550  0.00  0.00    +0.045 A 
ATOM     33  S   UNL     1      -0.266   4.239   0.830  0.00  0.00    -0.103 S 
ENDBRANCH  28  29
ENDBRANCH  26  28
BRANCH  26  34
ATOM     34  C   UNL     1       0.367   2.967   5.346  0.00  0.00    -0.045 C 
BRANCH  34  35
ATOM     35  C   UNL     1       1.776   2.374   5.409  0.00  0.00    +0.102 C 
ATOM     36  C   UNL     1       2.418   2.658   6.785  0.00  0.00    +0.032 C 
ATOM     37  C   UNL     1       3.904   2.930   6.460  0.00  0.00    +0.030 C 
ATOM     38  C   UNL     1       3.987   2.778   4.925  0.00  0.00    +0.160 C 
ATOM     39  O   UNL     1       2.644   3.030   4.456  0.00  0.00    -0.378 OA
ENDBRANCH  34  35
ENDBRANCH  26  34
ENDBRANCH   1  26
TORSDOF 9
