REMARK  Name = ZINC20762021
REMARK  13 active torsions:
REMARK  status: ('A' for Active; 'I' for Inactive)
REMARK    1  A    between atoms: C_1  and  O_2
REMARK    2  A    between atoms: O_2  and  C_3
REMARK    3  A    between atoms: C_5  and  C_11
REMARK    4  A    between atoms: C_7  and  O_9
REMARK    5  A    between atoms: O_9  and  C_10
REMARK    6  A    between atoms: N_24  and  C_25
REMARK    7  A    between atoms: C_25  and  C_27
REMARK    8  A    between atoms: C_25  and  C_31
REMARK    9  A    between atoms: C_27  and  C_28
REMARK   10  A    between atoms: C_28  and  S_29
REMARK   11  A    between atoms: S_29  and  C_30
REMARK   12  A    between atoms: C_31  and  O_33
REMARK   13  A    between atoms: O_33  and  C_34
REMARK                            x       y       z     vdW  Elec       q    Type
REMARK                         _______ _______ _______ _____ _____    ______ ____
ROOT
ATOM      1  C   UNL     1      -2.533  -4.173   0.014  0.00  0.00    +0.156 C 
ATOM      2  C   UNL     1      -2.691  -4.681   1.425  0.00  0.00    +0.064 A 
ATOM      3  C   UNL     1      -3.826  -5.229   1.911  0.00  0.00    +0.066 A 
ATOM      4  N   UNL     1      -3.607  -5.559   3.188  0.00  0.00    -0.240 NA
ATOM      5  C   UNL     1      -2.380  -5.240   3.510  0.00  0.00    +0.197 A 
ATOM      6  N   UNL     1      -1.776  -4.689   2.431  0.00  0.00    -0.346 N 
ATOM      7  H   UNL     1      -0.864  -4.363   2.384  0.00  0.00    +0.167 HD
ATOM      8  C   UNL     1      -5.091  -5.418   1.111  0.00  0.00    +0.076 C 
ATOM      9  C   UNL     1      -5.034  -4.515  -0.126  0.00  0.00    +0.116 C 
ATOM     10  N   UNL     1      -3.707  -4.631  -0.752  0.00  0.00    -0.273 N 
ATOM     11  C   UNL     1      -3.567  -5.145  -1.990  0.00  0.00    +0.304 C 
ATOM     12  O   UNL     1      -4.551  -5.434  -2.643  0.00  0.00    -0.253 OA
ATOM     13  N   UNL     1      -2.336  -5.339  -2.504  0.00  0.00    -0.286 N 
ATOM     14  H   UNL     1      -1.551  -5.178  -1.957  0.00  0.00    +0.151 HD
ENDROOT
BRANCH   1  17
ATOM     15  C   UNL     1      -3.440  -0.553   0.617  0.00  0.00    +0.124 A 
ATOM     16  C   UNL     1      -3.489  -1.940   0.614  0.00  0.00    +0.051 A 
ATOM     17  C   UNL     1      -2.478  -2.667   0.015  0.00  0.00    -0.014 A 
ATOM     18  C   UNL     1      -1.417  -2.015  -0.584  0.00  0.00    +0.051 A 
ATOM     19  C   UNL     1      -1.363  -0.628  -0.584  0.00  0.00    +0.124 A 
ATOM     20  C   UNL     1      -2.379   0.103   0.012  0.00  0.00    +0.091 A 
BRANCH  15  22
ATOM     21  C   UNL     1      -4.322   1.585   1.167  0.00  0.00    +0.277 C 
ATOM     22  O   UNL     1      -4.434   0.161   1.207  0.00  0.00    -0.495 OA
ENDBRANCH  15  22
BRANCH  19  23
ATOM     23  O   UNL     1      -0.319   0.012  -1.173  0.00  0.00    -0.495 OA
ATOM     24  C   UNL     1      -0.330   1.440  -1.135  0.00  0.00    +0.277 C 
ENDBRANCH  19  23
ENDBRANCH   1  17
BRANCH  13  25
ATOM     25  C   UNL     1      -2.183  -5.793  -3.888  0.00  0.00    +0.184 C 
BRANCH  25  26
ATOM     26  C   UNL     1      -2.283  -7.296  -3.938  0.00  0.00    +0.327 C 
ATOM     27  O   UNL     1      -2.463  -7.923  -2.921  0.00  0.00    -0.249 OA
BRANCH  26  28
ATOM     28  O   UNL     1      -2.172  -7.937  -5.112  0.00  0.00    -0.467 OA
ATOM     29  C   UNL     1      -2.276  -9.362  -5.085  0.00  0.00    +0.280 C 
ENDBRANCH  26  28
ENDBRANCH  25  26
BRANCH  25  30
ATOM     30  C   UNL     1      -0.818  -5.354  -4.421  0.00  0.00    +0.044 C 
BRANCH  30  31
ATOM     31  C   UNL     1      -0.763  -3.827  -4.488  0.00  0.00    +0.071 C 
BRANCH  31  32
ATOM     32  S   UNL     1       0.857  -3.307  -5.119  0.00  0.00    -0.164 S 
ATOM     33  C   UNL     1       0.760  -1.496  -5.136  0.00  0.00    +0.084 C 
ENDBRANCH  31  32
ENDBRANCH  30  31
ENDBRANCH  25  30
ENDBRANCH  13  25
TORSDOF 9
