REMARK  Name = ZINC47389933
REMARK  7 active torsions:
REMARK  status: ('A' for Active; 'I' for Inactive)
REMARK    1  A    between atoms: C_1  and  C_2
REMARK    2  A    between atoms: C_10  and  C_11
REMARK    3  A    between atoms: C_11  and  C_13
REMARK    4  A    between atoms: C_11  and  N_14
REMARK    5  A    between atoms: N_17  and  C_18
REMARK    6  A    between atoms: C_22  and  C_24
REMARK    7  A    between atoms: N_26  and  C_27
REMARK                            x       y       z     vdW  Elec       q    Type
REMARK                         _______ _______ _______ _____ _____    ______ ____
ROOT
ATOM      1  N   UNL     1      -0.933  -1.143   3.274  0.00  0.00    -0.290 N 
ATOM      2  C   UNL     1      -1.472  -0.637   4.400  0.00  0.00    +0.304 C 
ATOM      3  O   UNL     1      -1.161   0.477   4.776  0.00  0.00    -0.252 OA
ATOM      4  N   UNL     1      -2.355  -1.366   5.111  0.00  0.00    -0.269 N 
ATOM      5  H   UNL     1      -1.181  -2.032   2.974  0.00  0.00    +0.151 HD
ATOM      6  H   UNL     1      -2.654  -2.226   4.777  0.00  0.00    +0.156 HD
ENDROOT
BRANCH   4   7
ATOM      7  C   UNL     1      -2.842  -0.881   6.331  0.00  0.00    +0.035 A 
ATOM      8  C   UNL     1      -3.103  -1.762   7.374  0.00  0.00    +0.023 A 
ATOM      9  C   UNL     1      -3.583  -1.288   8.580  0.00  0.00    +0.003 A 
ATOM     10  C   UNL     1      -3.806   0.063   8.757  0.00  0.00    +0.013 A 
ATOM     11  C   UNL     1      -3.546   0.955   7.716  0.00  0.00    +0.038 A 
ATOM     12  C   UNL     1      -3.057   0.477   6.500  0.00  0.00    +0.036 A 
BRANCH  11  13
ATOM     13  C   UNL     1      -3.784   2.402   7.903  0.00  0.00    +0.244 C 
ATOM     14  O   UNL     1      -3.557   3.178   6.995  0.00  0.00    -0.270 OA
ATOM     15  N   UNL     1      -4.253   2.862   9.080  0.00  0.00    -0.314 N 
ATOM     16  C   UNL     1      -4.489   4.296   9.265  0.00  0.00    +0.128 C 
ATOM     17  H   UNL     1      -4.434   2.243   9.805  0.00  0.00    +0.149 HD
ENDBRANCH  11  13
ENDBRANCH   4   7
BRANCH   1  18
ATOM     18  C   UNL     1       0.028  -0.351   2.501  0.00  0.00    +0.138 C 
ATOM     19  C   UNL     1       1.430  -0.541   3.083  0.00  0.00    +0.036 C 
BRANCH  18  29
ATOM     20  C   UNL     1      -0.019   1.516   0.018  0.00  0.00    +0.048 C 
ATOM     21  C   UNL     1      -0.006   0.010   0.002  0.00  0.00    +0.000 A 
ATOM     22  C   UNL     1      -0.007  -0.859  -1.181  0.00  0.00    +0.023 A 
ATOM     23  C   UNL     1      -0.019  -0.633  -2.557  0.00  0.00    +0.012 A 
ATOM     24  C   UNL     1      -0.017  -1.696  -3.418  0.00  0.00    +0.001 A 
ATOM     25  C   UNL     1      -0.002  -2.995  -2.931  0.00  0.00    +0.004 A 
ATOM     26  C   UNL     1       0.010  -3.237  -1.574  0.00  0.00    +0.047 A 
ATOM     27  C   UNL     1       0.007  -2.172  -0.682  0.00  0.00    +0.136 A 
ATOM     28  O   UNL     1       0.016  -2.089   0.663  0.00  0.00    -0.458 OA
ATOM     29  C   UNL     1       0.014  -0.806   1.065  0.00  0.00    +0.129 A 
ENDBRANCH  18  29
ENDBRANCH   1  18
TORSDOF 4
