REMARK  Name = ZINC00927328
REMARK  8 active torsions:
REMARK  status: ('A' for Active; 'I' for Inactive)
REMARK    1  A    between atoms: C_1  and  C_2
REMARK    2  A    between atoms: C_4  and  C_31
REMARK    3  A    between atoms: C_7  and  C_14
REMARK    4  A    between atoms: C_14  and  N_63
REMARK    5  A    between atoms: C_15  and  C_16
REMARK    6  A    between atoms: C_15  and  N_63
REMARK    7  A    between atoms: N_20  and  C_21
REMARK    8  A    between atoms: C_26  and  N_63
REMARK                            x       y       z     vdW  Elec       q    Type
REMARK                         _______ _______ _______ _____ _____    ______ ____
ROOT
ATOM      1  N   UNL     1       0.264   2.146   2.306  0.00  0.00    +0.389 N 
ATOM      2  H   UNL     1       0.681   3.045   2.039  0.00  0.00    -0.080 HD
ENDROOT
BRANCH   1   3
ATOM      3  C   UNL     1      -0.555   1.644   1.183  0.00  0.00    -0.068 C 
ATOM      4  C   UNL     1      -1.017   0.192   1.423  0.00  0.00    -0.015 C 
ATOM      5  C   UNL     1      -0.956  -0.521   0.061  0.00  0.00    -0.002 C 
ATOM      6  C   UNL     1      -0.460   0.523  -0.961  0.00  0.00    -0.002 C 
ATOM      7  C   UNL     1       0.306   1.560  -0.103  0.00  0.00    -0.015 C 
ENDBRANCH   1   3
BRANCH   1   8
ATOM      8  C   UNL     1      -0.584   2.345   3.500  0.00  0.00    -0.037 C 
BRANCH   8  15
ATOM      9  C   UNL     1      -5.451   8.541   2.261  0.00  0.00    +0.044 C 
ATOM     10  C   UNL     1      -4.707   7.240   2.414  0.00  0.00    -0.048 A 
ATOM     11  C   UNL     1      -5.326   6.049   2.058  0.00  0.00    +0.007 A 
ATOM     12  C   UNL     1      -4.669   4.858   2.189  0.00  0.00    -0.041 A 
ATOM     13  C   UNL     1      -3.362   4.838   2.687  0.00  0.00    +0.002 A 
ATOM     14  C   UNL     1      -2.630   3.580   2.841  0.00  0.00    +0.017 A 
ATOM     15  C   UNL     1      -1.365   3.622   3.329  0.00  0.00    +0.001 A 
ATOM     16  C   UNL     1      -0.781   4.857   3.684  0.00  0.00    +0.251 A 
ATOM     17  O   UNL     1       0.354   4.872   4.126  0.00  0.00    -0.268 OA
ATOM     18  N   UNL     1      -1.444   6.018   3.541  0.00  0.00    -0.322 N 
ATOM     19  H   UNL     1      -0.997   6.876   3.795  0.00  0.00    +0.169 HD
ATOM     20  C   UNL     1      -2.732   6.043   3.050  0.00  0.00    +0.050 A 
ATOM     21  C   UNL     1      -3.420   7.244   2.907  0.00  0.00    +0.029 A 
ATOM     22  C   UNL     1      -5.350   3.572   1.798  0.00  0.00    +0.044 C 
ENDBRANCH   8  15
ENDBRANCH   1   8
BRANCH   1  23
ATOM     23  C   UNL     1       1.347   1.186   2.610  0.00  0.00    +0.001 C 
BRANCH  23  24
ATOM     24  C   UNL     1       2.368   1.869   3.483  0.00  0.00    +0.135 A 
ATOM     25  N   UNL     1       2.434   1.823   4.791  0.00  0.00    -0.115 NA
ATOM     26  N   UNL     1       3.444   2.532   5.163  0.00  0.00    -0.023 NA
ATOM     27  N   UNL     1       4.023   3.029   4.126  0.00  0.00    -0.044 NA
ATOM     28  N   UNL     1       3.392   2.638   3.070  0.00  0.00    -0.228 N 
BRANCH  28  29
ATOM     29  C   UNL     1       3.726   2.972   1.683  0.00  0.00    +0.111 C 
ATOM     30  C   UNL     1       5.133   2.444   1.337  0.00  0.00    +0.027 C 
ATOM     31  C   UNL     1       5.734   3.539   0.419  0.00  0.00    +0.002 C 
ATOM     32  C   UNL     1       5.207   4.848   1.058  0.00  0.00    +0.002 C 
ATOM     33  C   UNL     1       3.773   4.500   1.506  0.00  0.00    +0.027 C 
ENDBRANCH  28  29
ENDBRANCH  23  24
ENDBRANCH   1  23
TORSDOF 6
