REMARK  Name = ZINC05362380
REMARK  10 active torsions:
REMARK  status: ('A' for Active; 'I' for Inactive)
REMARK    1  A    between atoms: C_1  and  C_2
REMARK    2  A    between atoms: C_7  and  N_12
REMARK    3  A    between atoms: C_9  and  C_11
REMARK    4  A    between atoms: C_13  and  C_15
REMARK    5  A    between atoms: C_15  and  O_16
REMARK    6  A    between atoms: O_16  and  C_17
REMARK    7  A    between atoms: C_17  and  C_19
REMARK    8  A    between atoms: C_22  and  N_28
REMARK    9  A    between atoms: C_23  and  N_25
REMARK   10  A    between atoms: N_28  and  C_29
REMARK                            x       y       z     vdW  Elec       q    Type
REMARK                         _______ _______ _______ _____ _____    ______ ____
ROOT
ATOM      1  C   UNL     1      -5.295   2.897  -0.123  0.00  0.00    +0.340 C 
ATOM      2  O   UNL     1      -6.232   2.129  -0.028  0.00  0.00    -0.245 OA
ENDROOT
BRANCH   1   3
ATOM      3  C   UNL     1      -3.914   2.381  -0.097  0.00  0.00    +0.061 A 
ATOM      4  C   UNL     1      -2.834   3.263  -0.207  0.00  0.00    +0.017 A 
ATOM      5  C   UNL     1      -1.555   2.784  -0.183  0.00  0.00    +0.026 A 
ATOM      6  C   UNL     1      -1.321   1.418  -0.049  0.00  0.00    +0.058 A 
ATOM      7  C   UNL     1      -2.390   0.532   0.055  0.00  0.00    +0.148 A 
ATOM      8  C   UNL     1      -3.682   1.008   0.037  0.00  0.00    +0.049 A 
BRANCH   7   9
ATOM      9  N   UNL     1      -2.138  -0.920   0.192  0.00  0.00    +0.058 N 
ATOM     10  O   UNL     1      -3.070  -1.704   0.173  0.00  0.00    -0.126 OA
ATOM     11  O   UNL     1      -0.999  -1.331   0.323  0.00  0.00    -0.126 OA
ENDBRANCH   7   9
BRANCH   6  12
ATOM     12  N   UNL     1      -0.017   0.937  -0.025  0.00  0.00    -0.339 N 
ATOM     13  H   UNL     1       0.148  -0.019  -0.046  0.00  0.00    +0.146 HD
BRANCH  12  14
ATOM     14  C   UNL     1       1.108   1.873   0.026  0.00  0.00    +0.071 C 
ATOM     15  C   UNL     1       2.328   1.560  -0.843  0.00  0.00    +0.024 C 
ATOM     16  C   UNL     1       2.405   1.386   0.675  0.00  0.00    +0.024 C 
ENDBRANCH  12  14
ENDBRANCH   6  12
ENDBRANCH   1   3
BRANCH   1  17
ATOM     17  O   UNL     1      -5.517   4.219  -0.253  0.00  0.00    -0.452 OA
BRANCH  17  18
ATOM     18  C   UNL     1      -6.902   4.656  -0.271  0.00  0.00    +0.328 C 
BRANCH  18  20
ATOM     19  N   UNL     1      -8.143   6.787  -0.464  0.00  0.00    -0.309 N 
ATOM     20  C   UNL     1      -6.954   6.155  -0.422  0.00  0.00    +0.251 C 
ATOM     21  O   UNL     1      -5.925   6.792  -0.506  0.00  0.00    -0.272 OA
ATOM     22  H   UNL     1      -8.966   6.277  -0.397  0.00  0.00    +0.149 HD
BRANCH  19  28
ATOM     23  C   UNL     1     -10.917  10.572  -2.020  0.00  0.00    +0.008 C 
ATOM     24  C   UNL     1      -9.582  10.169  -1.391  0.00  0.00    -0.009 C 
ATOM     25  C   UNL     1      -9.447  10.824  -0.016  0.00  0.00    +0.003 C 
ATOM     26  C   UNL     1      -8.112  10.421   0.613  0.00  0.00    +0.002 C 
ATOM     27  C   UNL     1      -8.059   8.900   0.766  0.00  0.00    +0.022 C 
ATOM     28  C   UNL     1      -8.194   8.244  -0.610  0.00  0.00    +0.076 C 
ATOM     29  C   UNL     1      -9.529   8.647  -1.239  0.00  0.00    +0.009 C 
ATOM     30  C   UNL     1      -9.664   7.991  -2.614  0.00  0.00    +0.009 C 
ENDBRANCH  19  28
ENDBRANCH  18  20
ENDBRANCH  17  18
ENDBRANCH   1  17
TORSDOF 8
