REMARK  Name = ZINC11867433
REMARK  8 active torsions:
REMARK  status: ('A' for Active; 'I' for Inactive)
REMARK    1  A    between atoms: C_1  and  C_2
REMARK    2  A    between atoms: C_3  and  C_30
REMARK    3  A    between atoms: C_9  and  C_29
REMARK    4  A    between atoms: C_10  and  C_17
REMARK    5  A    between atoms: C_15  and  C_16
REMARK    6  A    between atoms: C_17  and  C_18
REMARK    7  A    between atoms: N_20  and  C_21
REMARK    8  A    between atoms: C_21  and  C_22
REMARK                            x       y       z     vdW  Elec       q    Type
REMARK                         _______ _______ _______ _____ _____    ______ ____
ROOT
ATOM      1  C   UNL     1      -0.346  -4.394   9.123  0.00  0.00    +0.048 C 
ATOM      2  C   UNL     1       0.575  -3.208   9.243  0.00  0.00    -0.002 A 
ATOM      3  C   UNL     1       1.522  -3.014  10.170  0.00  0.00    +0.106 A 
ATOM      4  O   UNL     1       2.146  -1.842   9.961  0.00  0.00    -0.459 OA
ATOM      5  C   UNL     1       1.637  -1.208   8.885  0.00  0.00    +0.142 A 
ATOM      6  C   UNL     1       0.616  -2.029   8.365  0.00  0.00    +0.024 A 
ATOM      7  C   UNL     1      -0.100  -1.637   7.242  0.00  0.00    +0.023 A 
ATOM      8  C   UNL     1       0.202  -0.420   6.631  0.00  0.00    +0.022 A 
ATOM      9  C   UNL     1      -0.538   0.028   5.448  0.00  0.00    -0.029 A 
ATOM     10  C   UNL     1      -0.198   1.219   4.892  0.00  0.00    +0.049 A 
ATOM     11  C   UNL     1       0.835   1.991   5.464  0.00  0.00    +0.341 A 
ATOM     12  O   UNL     1       1.125   3.060   4.958  0.00  0.00    -0.245 OA
ATOM     13  O   UNL     1       1.506   1.579   6.550  0.00  0.00    -0.422 OA
ATOM     14  C   UNL     1       1.224   0.402   7.152  0.00  0.00    +0.146 A 
ATOM     15  C   UNL     1       1.931   0.001   8.272  0.00  0.00    +0.035 A 
ATOM     16  C   UNL     1       3.023   0.879   8.826  0.00  0.00    +0.051 C 
ATOM     17  C   UNL     1      -1.642  -0.813   4.861  0.00  0.00    +0.045 C 
ATOM     18  C   UNL     1       1.842  -3.974  11.286  0.00  0.00    +0.086 C 
ENDROOT
BRANCH  10  19
ATOM     19  C   UNL     1      -0.927   1.718   3.671  0.00  0.00    +0.138 C 
BRANCH  19  20
ATOM     20  C   UNL     1      -0.222   1.232   2.431  0.00  0.00    +0.218 C 
ATOM     21  O   UNL     1       0.774   0.548   2.529  0.00  0.00    -0.275 OA
ATOM     22  N   UNL     1      -0.698   1.558   1.213  0.00  0.00    -0.311 N 
ATOM     23  H   UNL     1      -1.495   2.106   1.135  0.00  0.00    +0.149 HD
BRANCH  22  24
ATOM     24  C   UNL     1      -0.013   1.086   0.008  0.00  0.00    +0.139 C 
BRANCH  24  25
ATOM     25  C   UNL     1      -0.742   1.585  -1.213  0.00  0.00    -0.029 A 
ATOM     26  C   UNL     1      -1.750   0.824  -1.775  0.00  0.00    +0.005 A 
ATOM     27  C   UNL     1      -2.422   1.284  -2.892  0.00  0.00    +0.002 A 
ATOM     28  C   UNL     1      -2.079   2.499  -3.454  0.00  0.00    +0.020 A 
ATOM     29  C   UNL     1      -1.067   3.259  -2.895  0.00  0.00    +0.041 A 
ATOM     30  C   UNL     1      -0.398   2.800  -1.774  0.00  0.00    +0.025 A 
ATOM     31 CL   UNL     1      -0.636   4.785  -3.600  0.00  0.00    -0.084 Cl
ENDBRANCH  24  25
ENDBRANCH  22  24
ENDBRANCH  19  20
ENDBRANCH  10  19
TORSDOF 4
