REMARK  Name = ZINC06197803
REMARK  12 active torsions:
REMARK  status: ('A' for Active; 'I' for Inactive)
REMARK    1  A    between atoms: C_1  and  C_2
REMARK    2  A    between atoms: C_2  and  C_3
REMARK    3  A    between atoms: C_10  and  C_15
REMARK    4  A    between atoms: C_15  and  N_68
REMARK    5  A    between atoms: C_16  and  C_17
REMARK    6  A    between atoms: C_16  and  N_68
REMARK    7  A    between atoms: C_20  and  O_23
REMARK    8  A    between atoms: O_23  and  C_24
REMARK    9  A    between atoms: C_25  and  C_26
REMARK   10  A    between atoms: C_25  and  N_68
REMARK   11  A    between atoms: N_30  and  C_31
REMARK   12  A    between atoms: C_31  and  C_32
REMARK                            x       y       z     vdW  Elec       q    Type
REMARK                         _______ _______ _______ _____ _____    ______ ____
ROOT
ATOM      1  N   UNL     1      -6.016  -2.585   2.568  0.00  0.00    +0.390 N 
ATOM      2  H   UNL     1      -5.124  -3.069   2.725  0.00  0.00    -0.080 HD
ENDROOT
BRANCH   1   3
ATOM      3  C   UNL     1      -7.069  -3.246   3.367  0.00  0.00    -0.036 C 
BRANCH   3  11
ATOM      4  C   UNL     1      -6.452  -1.760   9.342  0.00  0.00    -0.047 A 
ATOM      5  C   UNL     1      -5.621  -2.820   9.681  0.00  0.00    +0.005 A 
ATOM      6  C   UNL     1      -5.238  -3.744   8.733  0.00  0.00    +0.026 A 
ATOM      7  C   UNL     1      -5.689  -3.617   7.423  0.00  0.00    +0.049 A 
ATOM      8  C   UNL     1      -6.531  -2.542   7.083  0.00  0.00    -0.001 A 
ATOM      9  C   UNL     1      -6.906  -1.615   8.062  0.00  0.00    +0.013 A 
ATOM     10  C   UNL     1      -6.995  -2.414   5.701  0.00  0.00    +0.017 A 
ATOM     11  C   UNL     1      -6.604  -3.346   4.797  0.00  0.00    +0.001 A 
ATOM     12  C   UNL     1      -5.758  -4.405   5.189  0.00  0.00    +0.251 A 
ATOM     13  O   UNL     1      -5.414  -5.229   4.360  0.00  0.00    -0.268 OA
ATOM     14  N   UNL     1      -5.322  -4.528   6.455  0.00  0.00    -0.322 N 
ATOM     15  H   UNL     1      -4.724  -5.291   6.699  0.00  0.00    +0.169 HD
BRANCH   4  17
ATOM     16  C   UNL     1      -8.148  -1.227  11.070  0.00  0.00    +0.009 C 
ATOM     17  C   UNL     1      -6.856  -0.762  10.395  0.00  0.00    +0.032 C 
ENDBRANCH   4  17
ENDBRANCH   3  11
ENDBRANCH   1   3
BRANCH   1  18
ATOM     18  C   UNL     1      -6.353  -2.654   1.131  0.00  0.00    -0.042 C 
BRANCH  18  19
ATOM     19  C   UNL     1      -5.095  -2.441   0.329  0.00  0.00    -0.064 A 
ATOM     20  C   UNL     1      -4.061  -3.356   0.411  0.00  0.00    +0.005 A 
ATOM     21  C   UNL     1      -2.907  -3.163  -0.323  0.00  0.00    +0.046 A 
ATOM     22  C   UNL     1      -2.785  -2.050  -1.143  0.00  0.00    +0.120 A 
ATOM     23  C   UNL     1      -3.822  -1.131  -1.219  0.00  0.00    +0.046 A 
ATOM     24  C   UNL     1      -4.976  -1.332  -0.487  0.00  0.00    +0.005 A 
BRANCH  22  25
ATOM     25  O   UNL     1      -1.651  -1.858  -1.866  0.00  0.00    -0.495 OA
ATOM     26  C   UNL     1      -1.595  -0.691  -2.688  0.00  0.00    +0.277 C 
ENDBRANCH  22  25
ENDBRANCH  18  19
ENDBRANCH   1  18
BRANCH   1  27
ATOM     27  C   UNL     1      -5.876  -1.174   2.986  0.00  0.00    +0.001 C 
BRANCH  27  28
ATOM     28  C   UNL     1      -4.514  -0.680   2.569  0.00  0.00    +0.135 A 
ATOM     29  N   UNL     1      -4.244   0.110   1.559  0.00  0.00    -0.115 NA
ATOM     30  N   UNL     1      -2.970   0.301   1.533  0.00  0.00    -0.023 NA
ATOM     31  N   UNL     1      -2.421  -0.346   2.500  0.00  0.00    -0.044 NA
ATOM     32  N   UNL     1      -3.341  -0.960   3.165  0.00  0.00    -0.229 N 
BRANCH  32  33
ATOM     33  C   UNL     1      -3.144  -1.805   4.346  0.00  0.00    +0.178 C 
BRANCH  33  34
ATOM     34  C   UNL     1      -2.277  -3.009   3.972  0.00  0.00    +0.140 C 
ATOM     35  C   UNL     1      -2.107  -3.949   5.192  0.00  0.00    +0.035 C 
ATOM     36  C   UNL     1      -1.816  -5.301   4.483  0.00  0.00    +0.031 C 
ATOM     37  C   UNL     1      -2.676  -5.194   3.205  0.00  0.00    +0.160 C 
ATOM     38  O   UNL     1      -2.934  -3.805   2.972  0.00  0.00    -0.375 OA
ENDBRANCH  33  34
ENDBRANCH  32  33
ENDBRANCH  27  28
ENDBRANCH   1  27
TORSDOF 10
