REMARK  Name = ZINC35919154
REMARK  4 active torsions:
REMARK  status: ('A' for Active; 'I' for Inactive)
REMARK    1  A    between atoms: C_15  and  N_17
REMARK    2  A    between atoms: N_24  and  C_27
REMARK    3  A    between atoms: C_27  and  C_28
REMARK    4  A    between atoms: C_33  and  C_34
REMARK                            x       y       z     vdW  Elec       q    Type
REMARK                         _______ _______ _______ _____ _____    ______ ____
ROOT
ATOM      1  C   UNL     1       0.705   0.082  -2.355  0.00  0.00    +0.000 A 
ATOM      2  C   UNL     1       1.803   0.899  -2.160  0.00  0.00    +0.000 A 
ATOM      3  C   UNL     1       3.023   0.340  -1.839  0.00  0.00    +0.005 A 
ATOM      4  C   UNL     1       3.155  -1.036  -1.709  0.00  0.00    -0.027 A 
ATOM      5  C   UNL     1       2.060  -1.850  -1.894  0.00  0.00    -0.041 A 
ATOM      6  C   UNL     1       0.834  -1.284  -2.224  0.00  0.00    +0.004 A 
ATOM      7  C   UNL     1       2.120  -3.347  -1.739  0.00  0.00    +0.054 C 
ATOM      8  C   UNL     1       3.557  -3.850  -1.860  0.00  0.00    +0.113 C 
ATOM      9  N   UNL     1       4.407  -3.000  -1.010  0.00  0.00    -0.295 N 
ATOM     10  C   UNL     1       4.519  -1.583  -1.371  0.00  0.00    +0.143 C 
ATOM     11  C   UNL     1       5.075  -3.518   0.086  0.00  0.00    +0.220 A 
ATOM     12  N   UNL     1       4.948  -4.805   0.371  0.00  0.00    -0.219 NA
ATOM     13  C   UNL     1       5.574  -5.339   1.413  0.00  0.00    +0.048 A 
ATOM     14  C   UNL     1       6.364  -4.539   2.205  0.00  0.00    -0.003 A 
ATOM     15  C   UNL     1       6.478  -3.183   1.883  0.00  0.00    +0.128 A 
ATOM     16  N   UNL     1       5.829  -2.715   0.822  0.00  0.00    -0.199 NA
ATOM     17  C   UNL     1       7.106  -5.080   3.395  0.00  0.00    -0.037 C 
ATOM     18  N   UNL     1       6.536  -6.364   3.816  0.00  0.00    +0.385 N 
ATOM     19  C   UNL     1       6.498  -7.274   2.662  0.00  0.00    -0.072 C 
ATOM     20  C   UNL     1       5.401  -6.806   1.705  0.00  0.00    +0.037 C 
ATOM     21  H   UNL     1       5.600  -6.220   4.164  0.00  0.00    -0.081 HD
ENDROOT
BRANCH  15  22
ATOM     22  N   UNL     1       7.261  -2.341   2.655  0.00  0.00    -0.311 N 
ATOM     23  C   UNL     1       8.702  -2.194   2.393  0.00  0.00    +0.134 C 
ATOM     24  C   UNL     1       9.026  -0.698   2.301  0.00  0.00    +0.178 C 
ATOM     25  O   UNL     1       8.521  -0.035   3.462  0.00  0.00    -0.377 OA
ATOM     26  C   UNL     1       7.100  -0.101   3.603  0.00  0.00    +0.178 C 
ATOM     27  C   UNL     1       6.676  -1.562   3.758  0.00  0.00    +0.134 C 
ENDBRANCH  15  22
BRANCH  18  28
ATOM     28  C   UNL     1       7.370  -6.948   4.875  0.00  0.00    -0.042 C 
BRANCH  28  29
ATOM     29  C   UNL     1       6.706  -8.190   5.411  0.00  0.00    -0.052 A 
ATOM     30  C   UNL     1       5.440  -8.538   4.977  0.00  0.00    +0.002 A 
ATOM     31  C   UNL     1       4.830  -9.677   5.468  0.00  0.00    +0.000 A 
ATOM     32  C   UNL     1       5.486 -10.468   6.393  0.00  0.00    +0.001 A 
ATOM     33  C   UNL     1       6.752 -10.121   6.826  0.00  0.00    +0.012 A 
ATOM     34  C   UNL     1       7.364  -8.984   6.331  0.00  0.00    +0.056 A 
BRANCH  34  35
ATOM     35  C   UNL     1       8.746  -8.607   6.799  0.00  0.00    +0.418 C 
ATOM     36  F   UNL     1       9.190  -9.543   7.740  0.00  0.00    -0.166 F 
ATOM     37  F   UNL     1       9.620  -8.594   5.707  0.00  0.00    -0.166 F 
ATOM     38  F   UNL     1       8.711  -7.337   7.384  0.00  0.00    -0.166 F 
ENDBRANCH  34  35
ENDBRANCH  28  29
ENDBRANCH  18  28
TORSDOF 4
