REMARK  Name = ZINC14667375
REMARK  10 active torsions:
REMARK  status: ('A' for Active; 'I' for Inactive)
REMARK    1  A    between atoms: C_1  and  C_2
REMARK    2  A    between atoms: C_2  and  C_3
REMARK    3  A    between atoms: C_2  and  C_4
REMARK    4  A    between atoms: C_4  and  O_5
REMARK    5  A    between atoms: O_5  and  C_6
REMARK    6  A    between atoms: C_11  and  C_12
REMARK    7  A    between atoms: N_14  and  C_15
REMARK    8  A    between atoms: C_15  and  N_17
REMARK    9  A    between atoms: N_17  and  N_18
REMARK   10  A    between atoms: C_19  and  C_21
REMARK                            x       y       z     vdW  Elec       q    Type
REMARK                         _______ _______ _______ _____ _____    ______ ____
ROOT
ATOM      1  C   UNL     1       2.416   3.950  -0.000  0.00  0.00    +0.253 C 
ATOM      2  O   UNL     1       3.481   3.365  -0.014  0.00  0.00    -0.270 OA
ATOM      3  N   UNL     1       2.388   5.298   0.007  0.00  0.00    -0.263 N 
ATOM      4  H   UNL     1       1.538   5.765   0.018  0.00  0.00    +0.157 HD
ENDROOT
BRANCH   1  10
ATOM      5  C   UNL     1       1.180   1.785   0.000  0.00  0.00    +0.133 A 
ATOM      6  C   UNL     1      -0.013   1.076   0.008  0.00  0.00    +0.047 A 
ATOM      7  C   UNL     1      -1.218   1.749   0.017  0.00  0.00    +0.019 A 
ATOM      8  C   UNL     1      -1.247   3.135   0.031  0.00  0.00    +0.019 A 
ATOM      9  C   UNL     1      -0.072   3.855   0.023  0.00  0.00    +0.032 A 
ATOM     10  C   UNL     1       1.155   3.186   0.008  0.00  0.00    +0.080 A 
ATOM     11 BR   UNL     1      -2.907   4.041   0.051  0.00  0.00    -0.050 Br
BRANCH   5  12
ATOM     12  O   UNL     1       2.365   1.124  -0.015  0.00  0.00    -0.491 OA
BRANCH  12  13
ATOM     13  C   UNL     1       2.312  -0.304  -0.023  0.00  0.00    +0.232 C 
BRANCH  13  15
ATOM     14  C   UNL     1       3.680  -2.392   0.078  0.00  0.00    +0.010 C 
ATOM     15  C   UNL     1       3.734  -0.867  -0.040  0.00  0.00    +0.020 C 
ATOM     16  C   UNL     1       4.420  -0.480  -1.351  0.00  0.00    +0.010 C 
ENDBRANCH  13  15
ENDBRANCH  12  13
ENDBRANCH   5  12
ENDBRANCH   1  10
BRANCH   3  17
ATOM     17  C   UNL     1       3.540   5.996  -0.001  0.00  0.00    +0.153 C 
ATOM     18  S   UNL     1       5.041   5.171  -0.020  0.00  0.00    -0.017 S 
BRANCH  17  19
ATOM     19  N   UNL     1       3.512   7.343   0.007  0.00  0.00    -0.245 N 
ATOM     20  H   UNL     1       4.342   7.846   0.002  0.00  0.00    +0.172 HD
BRANCH  19  21
ATOM     21  N   UNL     1       2.284   8.018   0.023  0.00  0.00    -0.231 N 
ATOM     22  C   UNL     1       2.256   9.365   0.030  0.00  0.00    +0.260 C 
ATOM     23  O   UNL     1       3.296   9.995   0.023  0.00  0.00    -0.269 OA
ATOM     24  H   UNL     1       1.455   7.515   0.028  0.00  0.00    +0.173 HD
BRANCH  22  25
ATOM     25  C   UNL     1       0.961  10.078   0.047  0.00  0.00    +0.038 A 
ATOM     26  C   UNL     1      -0.235   9.357   0.049  0.00  0.00    +0.013 A 
ATOM     27  C   UNL     1      -1.440  10.028   0.071  0.00  0.00    +0.001 A 
ATOM     28  C   UNL     1      -1.466  11.411   0.079  0.00  0.00    +0.000 A 
ATOM     29  C   UNL     1      -0.284  12.131   0.070  0.00  0.00    +0.001 A 
ATOM     30  C   UNL     1       0.928  11.473   0.055  0.00  0.00    +0.013 A 
ENDBRANCH  22  25
ENDBRANCH  19  21
ENDBRANCH  17  19
ENDBRANCH   3  17
TORSDOF 8
