REMARK  Name = ZINC14993481
REMARK  8 active torsions:
REMARK  status: ('A' for Active; 'I' for Inactive)
REMARK    1  A    between atoms: C_4  and  C_7
REMARK    2  A    between atoms: C_7  and  C_9
REMARK    3  A    between atoms: C_7  and  N_74
REMARK    4  A    between atoms: C_9  and  N_10
REMARK    5  A    between atoms: C_11  and  C_13
REMARK    6  A    between atoms: N_15  and  C_26
REMARK    7  A    between atoms: C_17  and  C_20
REMARK    8  A    between atoms: N_22  and  C_23
REMARK                            x       y       z     vdW  Elec       q    Type
REMARK                         _______ _______ _______ _____ _____    ______ ____
ROOT
ATOM      1  C   UNL     1       1.229   2.002  -0.156  0.00  0.00    +0.100 A 
ATOM      2  C   UNL     1       1.138   3.360   0.060  0.00  0.00    +0.102 A 
ATOM      3  N   UNL     1      -0.052   3.977   0.143  0.00  0.00    -0.349 N 
ATOM      4  C   UNL     1      -1.226   3.336   0.027  0.00  0.00    +0.102 A 
ATOM      5  C   UNL     1      -1.284   1.978  -0.197  0.00  0.00    +0.100 A 
ATOM      6  C   UNL     1      -0.018   1.232  -0.294  0.00  0.00    +0.206 A 
ATOM      7  O   UNL     1      -0.004   0.028  -0.486  0.00  0.00    -0.286 OA
ENDROOT
BRANCH   3   8
ATOM      8  C   UNL     1      -0.069   5.424   0.374  0.00  0.00    +0.087 C 
ATOM      9  C   UNL     1       0.661   6.132  -0.768  0.00  0.00    +0.025 C 
ATOM     10  C   UNL     1       0.643   7.643  -0.527  0.00  0.00    +0.002 C 
ATOM     11  C   UNL     1       1.342   7.956   0.797  0.00  0.00    +0.000 C 
ATOM     12  C   UNL     1       0.612   7.248   1.940  0.00  0.00    +0.002 C 
ATOM     13  C   UNL     1       0.630   5.738   1.698  0.00  0.00    +0.025 C 
ENDBRANCH   3   8
BRANCH   1  15
ATOM     14  N   UNL     1       3.671   2.059  -0.117  0.00  0.00    -0.312 N 
ATOM     15  C   UNL     1       2.541   1.338  -0.246  0.00  0.00    +0.249 C 
ATOM     16  O   UNL     1       2.603   0.138  -0.437  0.00  0.00    -0.270 OA
ATOM     17  H   UNL     1       3.622   3.016   0.036  0.00  0.00    +0.149 HD
BRANCH  14  18
ATOM     18  C   UNL     1       4.976   1.399  -0.206  0.00  0.00    +0.094 C 
BRANCH  18  19
ATOM     19  C   UNL     1       6.085   2.452  -0.169  0.00  0.00    -0.020 C 
BRANCH  19  25
ATOM     20  C   UNL     1       7.524   0.855   0.943  0.00  0.00    -0.078 C 
ATOM     21  C   UNL     1       8.835   0.075   0.813  0.00  0.00    -0.019 C 
ATOM     22  C   UNL     1      10.009   1.058   0.801  0.00  0.00    -0.004 C 
ATOM     23  C   UNL     1       9.824   2.047  -0.353  0.00  0.00    -0.019 C 
ATOM     24  C   UNL     1       8.485   2.769  -0.190  0.00  0.00    -0.078 C 
ATOM     25  N   UNL     1       7.395   1.771  -0.210  0.00  0.00    +0.385 N 
ATOM     26  H   UNL     1       7.460   1.225  -1.078  0.00  0.00    -0.081 HD
ENDBRANCH  19  25
BRANCH  19  30
ATOM     27  C   UNL     1       5.743   5.002  -3.579  0.00  0.00    +0.000 A 
ATOM     28  C   UNL     1       5.258   5.418  -2.353  0.00  0.00    +0.000 A 
ATOM     29  C   UNL     1       5.369   4.593  -1.249  0.00  0.00    +0.002 A 
ATOM     30  C   UNL     1       5.964   3.352  -1.372  0.00  0.00    -0.059 A 
ATOM     31  C   UNL     1       6.454   2.938  -2.596  0.00  0.00    +0.002 A 
ATOM     32  C   UNL     1       6.339   3.761  -3.701  0.00  0.00    +0.000 A 
ENDBRANCH  19  30
ENDBRANCH  18  19
ENDBRANCH  14  18
ENDBRANCH   1  15
BRANCH   5  33
ATOM     33  C   UNL     1      -2.579   1.289  -0.329  0.00  0.00    +0.249 C 
ATOM     34  O   UNL     1      -2.612   0.088  -0.521  0.00  0.00    -0.270 OA
ATOM     35  N   UNL     1      -3.727   1.988  -0.237  0.00  0.00    -0.308 N 
ATOM     36  H   UNL     1      -3.701   2.946  -0.083  0.00  0.00    +0.149 HD
BRANCH  35  37
ATOM     37  C   UNL     1      -5.015   1.303  -0.368  0.00  0.00    +0.073 C 
ATOM     38  C   UNL     1      -6.088   1.975  -1.228  0.00  0.00    +0.024 C 
ATOM     39  C   UNL     1      -6.232   1.952   0.295  0.00  0.00    +0.024 C 
ENDBRANCH  35  37
ENDBRANCH   5  33
TORSDOF 8
