REMARK  Name = ZINC35081886
REMARK  7 active torsions:
REMARK  status: ('A' for Active; 'I' for Inactive)
REMARK    1  A    between atoms: C_1  and  C_2
REMARK    2  A    between atoms: C_2  and  C_3
REMARK    3  A    between atoms: C_2  and  C_4
REMARK    4  A    between atoms: C_4  and  C_5
REMARK    5  A    between atoms: C_5  and  N_6
REMARK    6  A    between atoms: N_6  and  C_7
REMARK    7  A    between atoms: C_12  and  N_13
REMARK                            x       y       z     vdW  Elec       q    Type
REMARK                         _______ _______ _______ _____ _____    ______ ____
ROOT
ATOM      1  C   UNL     1       0.142  -0.374   4.954  0.00  0.00    +0.050 A 
ATOM      2  C   UNL     1      -1.052   0.312   5.086  0.00  0.00    +0.053 A 
ATOM      3  C   UNL     1      -1.578   0.547   6.355  0.00  0.00    +0.080 A 
ATOM      4  C   UNL     1      -0.884   0.079   7.495  0.00  0.00    +0.067 A 
ATOM      5  C   UNL     1       0.320  -0.613   7.349  0.00  0.00    +0.040 A 
ATOM      6  C   UNL     1       0.825  -0.842   6.085  0.00  0.00    +0.047 A 
ATOM      7  C   UNL     1      -1.468   0.345   8.815  0.00  0.00    +0.259 A 
ATOM      8  O   UNL     1      -0.920  -0.030   9.836  0.00  0.00    -0.267 OA
ATOM      9  N   UNL     1      -2.638   1.024   8.855  0.00  0.00    -0.313 N 
ATOM     10  H   UNL     1      -3.052   1.218   9.710  0.00  0.00    +0.170 HD
ATOM     11  C   UNL     1      -3.237   1.438   7.707  0.00  0.00    +0.199 A 
ATOM     12  N   UNL     1      -2.746   1.218   6.526  0.00  0.00    -0.237 NA
ENDROOT
BRANCH   6  13
ATOM     13  N   UNL     1       2.029  -1.540   5.933  0.00  0.00    -0.357 N 
ATOM     14  H   UNL     1       2.388  -1.699   5.046  0.00  0.00    +0.142 HD
ATOM     15  H   UNL     1       2.504  -1.864   6.714  0.00  0.00    +0.142 HD
ENDBRANCH   6  13
BRANCH   1  16
ATOM     16  N   UNL     1       0.667  -0.609   3.684  0.00  0.00    -0.342 N 
ATOM     17  H   UNL     1       1.502  -1.093   3.586  0.00  0.00    +0.146 HD
BRANCH  16  18
ATOM     18  C   UNL     1      -0.042  -0.124   2.497  0.00  0.00    +0.102 C 
BRANCH  18  19
ATOM     19  C   UNL     1       0.742  -0.511   1.242  0.00  0.00    +0.021 C 
BRANCH  19  21
ATOM     20  C   UNL     1      -0.019   1.526   0.010  0.00  0.00    +0.007 C 
ATOM     21  C   UNL     1       0.002  -0.004   0.002  0.00  0.00    -0.016 C 
ATOM     22  C   UNL     1       0.718  -0.497  -1.257  0.00  0.00    +0.007 C 
ENDBRANCH  19  21
ENDBRANCH  18  19
ENDBRANCH  16  18
ENDBRANCH   1  16
TORSDOF 5
