REMARK  Name = ZINC35350305
REMARK  11 active torsions:
REMARK  status: ('A' for Active; 'I' for Inactive)
REMARK    1  A    between atoms: C_1  and  N_2
REMARK    2  A    between atoms: N_2  and  C_3
REMARK    3  A    between atoms: N_2  and  C_4
REMARK    4  A    between atoms: C_4  and  C_5
REMARK    5  A    between atoms: C_5  and  N_6
REMARK    6  A    between atoms: C_7  and  C_9
REMARK    7  A    between atoms: C_12  and  C_14
REMARK    8  A    between atoms: C_14  and  S_15
REMARK    9  A    between atoms: S_15  and  C_16
REMARK   10  A    between atoms: C_19  and  C_28
REMARK   11  A    between atoms: N_20  and  C_21
REMARK                            x       y       z     vdW  Elec       q    Type
REMARK                         _______ _______ _______ _____ _____    ______ ____
ROOT
ATOM      1  S   UNL     1      -8.978  -1.665   0.817  0.00  0.00    -0.079 S 
ENDROOT
BRANCH   1   2
ATOM      2  C   UNL     1      -9.820  -2.732   1.938  0.00  0.00    +0.197 A 
ATOM      3  N   UNL     1      -9.809  -4.046   1.921  0.00  0.00    -0.122 NA
ATOM      4  N   UNL     1     -10.527  -4.509   2.881  0.00  0.00    -0.125 NA
ATOM      5  C   UNL     1     -11.044  -3.518   3.574  0.00  0.00    +0.205 A 
ATOM      6  N   UNL     1     -10.602  -2.347   2.994  0.00  0.00    -0.268 N 
BRANCH   6   7
ATOM      7  C   UNL     1     -10.894  -1.037   3.399  0.00  0.00    +0.051 A 
ATOM      8  C   UNL     1     -10.443  -0.572   4.627  0.00  0.00    +0.028 A 
ATOM      9  C   UNL     1     -10.732   0.719   5.024  0.00  0.00    +0.022 A 
ATOM     10  C   UNL     1     -11.471   1.549   4.198  0.00  0.00    +0.041 A 
ATOM     11  C   UNL     1     -11.921   1.088   2.974  0.00  0.00    +0.022 A 
ATOM     12  C   UNL     1     -11.630  -0.201   2.570  0.00  0.00    +0.028 A 
ATOM     13 CL   UNL     1     -11.833   3.171   4.700  0.00  0.00    -0.084 Cl
ENDBRANCH   6   7
BRANCH   5  14
ATOM     14  C   UNL     1     -11.922  -3.636   4.748  0.00  0.00    +0.172 A 
ATOM     15  C   UNL     1     -12.117  -4.761   5.492  0.00  0.00    +0.053 A 
ATOM     16  C   UNL     1     -13.030  -4.421   6.508  0.00  0.00    +0.042 A 
ATOM     17  C   UNL     1     -13.345  -3.122   6.339  0.00  0.00    +0.196 A 
ATOM     18  O   UNL     1     -12.670  -2.648   5.279  0.00  0.00    -0.460 OA
ENDBRANCH   5  14
ENDBRANCH   1   2
BRANCH   1  19
ATOM     19  C   UNL     1      -8.139  -2.800  -0.323  0.00  0.00    +0.140 C 
BRANCH  19  23
ATOM     20  C   UNL     1      -5.647  -0.892  -2.314  0.00  0.00    +0.133 A 
ATOM     21  C   UNL     1      -6.505  -0.681  -3.360  0.00  0.00    +0.080 A 
ATOM     22  S   UNL     1      -7.904  -1.452  -2.841  0.00  0.00    -0.079 S 
ATOM     23  C   UNL     1      -7.372  -2.006  -1.348  0.00  0.00    +0.089 A 
ATOM     24  N   UNL     1      -6.135  -1.592  -1.286  0.00  0.00    -0.239 NA
BRANCH  20  26
ATOM     25  N   UNL     1      -3.452  -0.617  -1.276  0.00  0.00    -0.312 N 
ATOM     26  C   UNL     1      -4.265  -0.382  -2.325  0.00  0.00    +0.263 C 
ATOM     27  O   UNL     1      -3.858   0.251  -3.280  0.00  0.00    -0.269 OA
ATOM     28  H   UNL     1      -3.777  -1.122  -0.514  0.00  0.00    +0.149 HD
BRANCH  25  29
ATOM     29  C   UNL     1      -2.078  -0.110  -1.286  0.00  0.00    +0.086 C 
BRANCH  29  30
ATOM     30  C   UNL     1      -1.376  -0.512   0.012  0.00  0.00    -0.061 C 
BRANCH  30  32
ATOM     31  C   UNL     1      -0.018   1.465   0.010  0.00  0.00    -0.097 C 
ATOM     32  N   UNL     1       0.002  -0.004   0.002  0.00  0.00    +0.377 N 
ATOM     33  C   UNL     1       0.713  -0.491   1.192  0.00  0.00    -0.097 C 
ATOM     34  H   UNL     1       0.474  -0.330  -0.828  0.00  0.00    -0.083 HD
ENDBRANCH  30  32
ENDBRANCH  29  30
ENDBRANCH  25  29
ENDBRANCH  20  26
ENDBRANCH  19  23
ENDBRANCH   1  19
TORSDOF 9
