REMARK  Name = ZINC01726085
REMARK  4 active torsions:
REMARK  status: ('A' for Active; 'I' for Inactive)
REMARK    1  A    between atoms: C_1  and  C_2
REMARK    2  A    between atoms: C_2  and  C_28
REMARK    3  A    between atoms: C_3  and  C_21
REMARK    4  A    between atoms: N_11  and  C_14
REMARK                            x       y       z     vdW  Elec       q    Type
REMARK                         _______ _______ _______ _____ _____    ______ ____
ROOT
ATOM      1  C   UNL     1       1.252  -2.611  -1.623  0.00  0.00    +0.056 C 
ATOM      2  C   UNL     1       2.464  -1.896  -1.022  0.00  0.00    +0.118 C 
ATOM      3  C   UNL     1       2.078  -1.165   0.287  0.00  0.00    +0.103 C 
ATOM      4  C   UNL     1       2.421  -2.207   1.332  0.00  0.00    +0.088 A 
ATOM      5  C   UNL     1       3.204  -3.147   0.730  0.00  0.00    +0.206 A 
ATOM      6  N   UNL     1       3.635  -4.218   1.481  0.00  0.00    -0.278 N 
ATOM      7  H   UNL     1       4.204  -4.924   1.057  0.00  0.00    +0.173 HD
ATOM      8  C   UNL     1       3.301  -4.326   2.778  0.00  0.00    +0.337 A 
ATOM      9  O   UNL     1       3.695  -5.282   3.418  0.00  0.00    -0.246 OA
ATOM     10  N   UNL     1       2.538  -3.397   3.383  0.00  0.00    -0.229 N 
ATOM     11  C   UNL     1       2.087  -2.333   2.687  0.00  0.00    +0.269 A 
ATOM     12  O   UNL     1       1.396  -1.490   3.231  0.00  0.00    -0.267 OA
ATOM     13  O   UNL     1       3.443  -2.846  -0.566  0.00  0.00    -0.470 OA
ATOM     14  C   UNL     1       3.078  -0.922  -2.029  0.00  0.00    +0.056 C 
ENDROOT
BRANCH   3  15
ATOM     15  C   UNL     1       2.906   0.080   0.474  0.00  0.00    -0.036 A 
ATOM     16  C   UNL     1       2.286   1.297   0.686  0.00  0.00    +0.006 A 
ATOM     17  C   UNL     1       3.045   2.440   0.857  0.00  0.00    +0.020 A 
ATOM     18  C   UNL     1       4.425   2.365   0.816  0.00  0.00    +0.041 A 
ATOM     19  C   UNL     1       5.046   1.147   0.604  0.00  0.00    +0.020 A 
ATOM     20  C   UNL     1       4.286   0.005   0.433  0.00  0.00    +0.006 A 
ATOM     21 CL   UNL     1       5.379   3.800   1.030  0.00  0.00    -0.084 Cl
ENDBRANCH   3  15
BRANCH  10  22
ATOM     22  C   UNL     1       2.211  -3.535   4.739  0.00  0.00    +0.054 A 
ATOM     23  C   UNL     1       1.059  -4.216   5.111  0.00  0.00    +0.026 A 
ATOM     24  C   UNL     1       0.742  -4.355   6.448  0.00  0.00    +0.002 A 
ATOM     25  C   UNL     1       1.565  -3.808   7.415  0.00  0.00    +0.000 A 
ATOM     26  C   UNL     1       2.709  -3.125   7.048  0.00  0.00    +0.002 A 
ATOM     27  C   UNL     1       3.034  -2.987   5.713  0.00  0.00    +0.026 A 
ENDBRANCH  10  22
TORSDOF 2
