REMARK  Name = ZINC10002451
REMARK  13 active torsions:
REMARK  status: ('A' for Active; 'I' for Inactive)
REMARK    1  A    between atoms: C_1  and  C_2
REMARK    2  A    between atoms: C_2  and  C_3
REMARK    3  A    between atoms: C_8  and  N_9
REMARK    4  A    between atoms: C_10  and  C_12
REMARK    5  A    between atoms: C_12  and  S_13
REMARK    6  A    between atoms: S_13  and  C_14
REMARK    7  A    between atoms: C_17  and  C_20
REMARK    8  A    between atoms: N_18  and  C_19
REMARK    9  A    between atoms: C_20  and  C_22
REMARK   10  A    between atoms: C_20  and  N_25
REMARK   11  A    between atoms: C_22  and  C_23
REMARK   12  A    between atoms: C_22  and  C_24
REMARK   13  A    between atoms: C_26  and  C_28
REMARK                            x       y       z     vdW  Elec       q    Type
REMARK                         _______ _______ _______ _____ _____    ______ ____
ROOT
ATOM      1  C   UNL     1       1.710   2.134   0.029  0.00  0.00    +0.192 A 
ATOM      2  N   UNL     1       2.674   1.243   0.027  0.00  0.00    -0.122 NA
ATOM      3  N   UNL     1       3.815   1.834   0.025  0.00  0.00    -0.132 NA
ATOM      4  C   UNL     1       3.649   3.127   0.033  0.00  0.00    +0.155 A 
ATOM      5  N   UNL     1       2.302   3.364   0.036  0.00  0.00    -0.308 N 
ATOM      6  C   UNL     1       1.634   4.668   0.045  0.00  0.00    +0.152 C 
ENDROOT
BRANCH   1   7
ATOM      7  S   UNL     1      -0.021   1.805   0.029  0.00  0.00    -0.077 S 
BRANCH   7   8
ATOM      8  C   UNL     1       0.003  -0.004   0.017  0.00  0.00    +0.173 C 
BRANCH   8  10
ATOM      9  N   UNL     1      -1.640  -1.854   0.008  0.00  0.00    -0.285 N 
ATOM     10  C   UNL     1      -1.411  -0.526   0.016  0.00  0.00    +0.227 C 
ATOM     11  O   UNL     1      -2.344   0.250   0.023  0.00  0.00    -0.275 OA
ATOM     12  H   UNL     1      -0.898  -2.473  -0.078  0.00  0.00    +0.155 HD
BRANCH   9  18
ATOM     13  C   UNL     1      -3.270  -3.594  -0.376  0.00  0.00    -0.026 A 
ATOM     14  C   UNL     1      -4.561  -4.071  -0.261  0.00  0.00    +0.005 A 
ATOM     15  C   UNL     1      -5.532  -3.300   0.352  0.00  0.00    +0.000 A 
ATOM     16  C   UNL     1      -5.214  -2.050   0.851  0.00  0.00    +0.002 A 
ATOM     17  C   UNL     1      -3.923  -1.570   0.743  0.00  0.00    +0.023 A 
ATOM     18  C   UNL     1      -2.947  -2.340   0.123  0.00  0.00    +0.037 A 
BRANCH  13  20
ATOM     19  C   UNL     1      -1.439  -5.219   0.019  0.00  0.00    +0.009 C 
ATOM     20  C   UNL     1      -2.212  -4.436  -1.043  0.00  0.00    +0.033 C 
ENDBRANCH  13  20
ENDBRANCH   9  18
ENDBRANCH   8  10
ENDBRANCH   7   8
ENDBRANCH   1   7
BRANCH   4  21
ATOM     21  C   UNL     1       4.739   4.167   0.039  0.00  0.00    +0.144 C 
BRANCH  21  22
ATOM     22  N   UNL     1       5.766   3.804  -0.941  0.00  0.00    -0.301 N 
ATOM     23  C   UNL     1       6.547   4.758  -1.485  0.00  0.00    +0.245 C 
ATOM     24  O   UNL     1       6.399   5.921  -1.162  0.00  0.00    -0.270 OA
ATOM     25  H   UNL     1       5.883   2.876  -1.199  0.00  0.00    +0.150 HD
BRANCH  23  26
ATOM     26  C   UNL     1       7.581   4.392  -2.472  0.00  0.00    +0.040 A 
ATOM     27  C   UNL     1       7.756   3.056  -2.840  0.00  0.00    +0.017 A 
ATOM     28  C   UNL     1       8.718   2.716  -3.766  0.00  0.00    +0.050 A 
ATOM     29  C   UNL     1       9.524   3.698  -4.327  0.00  0.00    +0.166 A 
ATOM     30  C   UNL     1       9.358   5.034  -3.960  0.00  0.00    +0.167 A 
ATOM     31  C   UNL     1       8.391   5.380  -3.037  0.00  0.00    +0.062 A 
ATOM     32  O   UNL     1      10.264   5.790  -4.647  0.00  0.00    -0.453 OA
ATOM     33  C   UNL     1      11.254   4.861  -5.127  0.00  0.00    +0.466 C 
ATOM     34  O   UNL     1      10.532   3.621  -5.243  0.00  0.00    -0.453 OA
ENDBRANCH  23  26
ENDBRANCH  21  22
BRANCH  21  35
ATOM     35  C   UNL     1       5.367   4.240   1.432  0.00  0.00    +0.011 C 
ATOM     36  C   UNL     1       6.474   5.296   1.437  0.00  0.00    +0.009 C 
ATOM     37  C   UNL     1       4.295   4.620   2.455  0.00  0.00    +0.009 C 
ENDBRANCH  21  35
ENDBRANCH   4  21
TORSDOF 9
