REMARK  Name = ZINC21307544
REMARK  12 active torsions:
REMARK  status: ('A' for Active; 'I' for Inactive)
REMARK    1  A    between atoms: C_1  and  C_2
REMARK    2  A    between atoms: C_2  and  C_4
REMARK    3  A    between atoms: C_2  and  N_14
REMARK    4  A    between atoms: C_7  and  S_10
REMARK    5  A    between atoms: S_10  and  N_13
REMARK    6  A    between atoms: N_14  and  C_15
REMARK    7  A    between atoms: N_14  and  C_16
REMARK    8  A    between atoms: C_16  and  C_17
REMARK    9  A    between atoms: C_17  and  C_19
REMARK   10  A    between atoms: C_17  and  O_28
REMARK   11  A    between atoms: C_19  and  O_20
REMARK   12  A    between atoms: O_20  and  C_21
REMARK                            x       y       z     vdW  Elec       q    Type
REMARK                         _______ _______ _______ _____ _____    ______ ____
ROOT
ATOM      1  N   UNL     1      -0.075  -0.117   0.132  0.00  0.00    +0.384 N 
ATOM      2  C   UNL     1      -0.320   1.324   0.279  0.00  0.00    -0.095 C 
ATOM      3  H   UNL     1       0.777  -0.247  -0.552  0.00  0.00    -0.081 HD
ENDROOT
BRANCH   1   5
ATOM      4  C   UNL     1      -1.586  -0.127  -1.796  0.00  0.00    -0.008 C 
ATOM      5  C   UNL     1      -1.238  -0.791  -0.462  0.00  0.00    -0.041 C 
BRANCH   5   6
ATOM      6  C   UNL     1      -0.912  -2.244  -0.694  0.00  0.00    -0.061 A 
ATOM      7  C   UNL     1       0.280  -2.597  -1.298  0.00  0.00    +0.004 A 
ATOM      8  C   UNL     1       0.581  -3.930  -1.506  0.00  0.00    +0.029 A 
ATOM      9  C   UNL     1      -0.315  -4.909  -1.121  0.00  0.00    +0.105 A 
ATOM     10  C   UNL     1      -1.510  -4.556  -0.522  0.00  0.00    +0.029 A 
ATOM     11  C   UNL     1      -1.808  -3.223  -0.309  0.00  0.00    +0.004 A 
BRANCH   9  12
ATOM     12  S   UNL     1       0.065  -6.608  -1.393  0.00  0.00    +0.056 S 
ATOM     13  O   UNL     1       1.481  -6.699  -1.473  0.00  0.00    -0.153 OA
ATOM     14  O   UNL     1      -0.694  -7.351  -0.449  0.00  0.00    -0.153 OA
BRANCH  12  15
ATOM     15  N   UNL     1      -0.520  -7.006  -2.890  0.00  0.00    -0.204 NA
ATOM     16  H   UNL     1      -0.302  -8.064  -3.099  0.00  0.00    +0.144 HD
ATOM     17  H   UNL     1      -0.039  -6.375  -3.652  0.00  0.00    +0.144 HD
ENDBRANCH  12  15
ENDBRANCH   9  12
ENDBRANCH   5   6
ENDBRANCH   1   5
BRANCH   1  18
ATOM     18  C   UNL     1       0.284  -0.724   1.420  0.00  0.00    -0.043 C 
BRANCH  18  19
ATOM     19  C   UNL     1       1.739  -0.387   1.755  0.00  0.00    +0.135 C 
BRANCH  19  20
ATOM     20  O   UNL     1       1.876   1.027   1.909  0.00  0.00    -0.390 OA
ATOM     21  H   UNL     1       2.857   1.461   2.153  0.00  0.00    +0.210 HD
ENDBRANCH  19  20
BRANCH  19  22
ATOM     22  C   UNL     1       2.137  -1.083   3.058  0.00  0.00    +0.258 C 
BRANCH  22  23
ATOM     23  O   UNL     1       3.526  -0.864   3.310  0.00  0.00    -0.489 OA
BRANCH  23  24
ATOM     24  C   UNL     1       4.044  -1.419   4.438  0.00  0.00    +0.121 A 
ATOM     25  C   UNL     1       3.230  -2.155   5.286  0.00  0.00    +0.047 A 
ATOM     26  C   UNL     1       3.759  -2.722   6.429  0.00  0.00    +0.023 A 
ATOM     27  C   UNL     1       5.097  -2.548   6.733  0.00  0.00    +0.041 A 
ATOM     28  C   UNL     1       5.910  -1.810   5.891  0.00  0.00    +0.023 A 
ATOM     29  C   UNL     1       5.386  -1.246   4.744  0.00  0.00    +0.047 A 
ATOM     30 CL   UNL     1       5.759  -3.258   8.173  0.00  0.00    -0.084 Cl
ENDBRANCH  23  24
ENDBRANCH  22  23
ENDBRANCH  19  22
ENDBRANCH  18  19
ENDBRANCH   1  18
TORSDOF 10
