REMARK  Name = ZINC20829809
REMARK  11 active torsions:
REMARK  status: ('A' for Active; 'I' for Inactive)
REMARK    1  A    between atoms: C_1  and  C_2
REMARK    2  A    between atoms: N_5  and  S_8
REMARK    3  A    between atoms: S_8  and  C_11
REMARK    4  A    between atoms: C_14  and  N_17
REMARK    5  A    between atoms: C_18  and  C_20
REMARK    6  A    between atoms: C_20  and  C_21
REMARK    7  A    between atoms: C_21  and  S_22
REMARK    8  A    between atoms: S_22  and  C_23
REMARK    9  A    between atoms: C_26  and  C_29
REMARK   10  A    between atoms: N_27  and  N_28
REMARK   11  A    between atoms: C_34  and  O_35
REMARK                            x       y       z     vdW  Elec       q    Type
REMARK                         _______ _______ _______ _____ _____    ______ ____
ROOT
ATOM      1  N   UNL     1      -7.178   4.460   0.056  0.00  0.00    -0.285 N 
ATOM      2  C   UNL     1      -7.771   3.402  -0.532  0.00  0.00    +0.218 C 
ATOM      3  O   UNL     1      -8.856   3.529  -1.059  0.00  0.00    -0.275 OA
ATOM      4  H   UNL     1      -6.231   4.328   0.600  0.00  0.00    +0.155 HD
ENDROOT
BRANCH   1   8
ATOM      5  C   UNL     1      -8.934   8.230  -0.186  0.00  0.00    +0.106 A 
ATOM      6  C   UNL     1      -9.730   7.103  -0.093  0.00  0.00    +0.030 A 
ATOM      7  C   UNL     1      -9.151   5.852  -0.013  0.00  0.00    +0.025 A 
ATOM      8  C   UNL     1      -7.768   5.726  -0.025  0.00  0.00    +0.033 A 
ATOM      9  C   UNL     1      -6.972   6.860  -0.113  0.00  0.00    +0.025 A 
ATOM     10  C   UNL     1      -7.557   8.108  -0.200  0.00  0.00    +0.030 A 
BRANCH   5  11
ATOM     11  S   UNL     1      -9.677   9.825  -0.289  0.00  0.00    +0.061 S 
ATOM     12  O   UNL     1      -8.728  10.675  -0.917  0.00  0.00    -0.153 OA
ATOM     13  O   UNL     1     -10.986   9.630  -0.807  0.00  0.00    -0.153 OA
BRANCH  11  18
ATOM     14  C   UNL     1     -11.160  13.470   3.881  0.00  0.00    +0.007 C 
ATOM     15  C   UNL     1     -10.583  12.164   3.333  0.00  0.00    -0.012 C 
ATOM     16  C   UNL     1      -9.392  12.474   2.423  0.00  0.00    +0.020 C 
ATOM     17  C   UNL     1      -8.795  11.162   1.905  0.00  0.00    +0.110 C 
ATOM     18  N   UNL     1      -9.859  10.381   1.260  0.00  0.00    -0.177 NA
ATOM     19  C   UNL     1     -11.090  10.107   2.014  0.00  0.00    +0.110 C 
ATOM     20  C   UNL     1     -11.659  11.426   2.534  0.00  0.00    +0.020 C 
ENDBRANCH  11  18
ENDBRANCH   5  11
ENDBRANCH   1   8
BRANCH   2  21
ATOM     21  C   UNL     1      -7.085   2.060  -0.534  0.00  0.00    +0.107 C 
BRANCH  21  22
ATOM     22  C   UNL     1      -7.964   1.039  -1.260  0.00  0.00    +0.086 C 
BRANCH  22  23
ATOM     23  S   UNL     1      -7.141  -0.573  -1.262  0.00  0.00    -0.084 S 
BRANCH  23  24
ATOM     24  C   UNL     1      -8.338  -1.526  -2.135  0.00  0.00    +0.209 A 
ATOM     25  N   UNL     1      -9.482  -1.092  -2.615  0.00  0.00    -0.121 NA
ATOM     26  N   UNL     1     -10.113  -2.053  -3.189  0.00  0.00    -0.127 NA
ATOM     27  C   UNL     1      -9.409  -3.159  -3.117  0.00  0.00    +0.185 A 
ATOM     28  N   UNL     1      -8.249  -2.855  -2.442  0.00  0.00    -0.224 N 
BRANCH  27  29
ATOM     29  C   UNL     1      -9.791  -4.480  -3.657  0.00  0.00    +0.062 A 
ATOM     30  C   UNL     1      -8.938  -5.573  -3.504  0.00  0.00    +0.015 A 
ATOM     31  C   UNL     1      -9.300  -6.805  -4.010  0.00  0.00    +0.001 A 
ATOM     32  C   UNL     1     -10.507  -6.960  -4.669  0.00  0.00    +0.004 A 
ATOM     33  C   UNL     1     -11.360  -5.884  -4.827  0.00  0.00    +0.046 A 
ATOM     34  C   UNL     1     -11.013  -4.643  -4.320  0.00  0.00    +0.128 A 
BRANCH  34  35
ATOM     35  O   UNL     1     -11.853  -3.586  -4.470  0.00  0.00    -0.506 OA
ATOM     36  H   UNL     1     -12.813  -3.716  -4.992  0.00  0.00    +0.292 HD
ENDBRANCH  34  35
ENDBRANCH  27  29
BRANCH  28  37
ATOM     37  N   UNL     1      -7.224  -3.705  -2.138  0.00  0.00    -0.295 N 
ATOM     38  H   UNL     1      -7.276  -4.761  -2.445  0.00  0.00    +0.163 HD
ATOM     39  H   UNL     1      -6.348  -3.335  -1.585  0.00  0.00    +0.163 HD
ENDBRANCH  28  37
ENDBRANCH  23  24
ENDBRANCH  22  23
ENDBRANCH  21  22
ENDBRANCH   2  21
TORSDOF 10
