REMARK  Name = ZINC24988917
REMARK  7 active torsions:
REMARK  status: ('A' for Active; 'I' for Inactive)
REMARK    1  A    between atoms: C_1  and  C_2
REMARK    2  A    between atoms: C_2  and  C_4
REMARK    3  A    between atoms: C_2  and  N_14
REMARK    4  A    between atoms: N_6  and  C_7
REMARK    5  A    between atoms: C_17  and  N_20
REMARK    6  A    between atoms: N_20  and  S_21
REMARK    7  A    between atoms: S_21  and  C_24
REMARK                            x       y       z     vdW  Elec       q    Type
REMARK                         _______ _______ _______ _____ _____    ______ ____
ROOT
ATOM      1  N   UNL     1       2.388   0.729   0.017  0.00  0.00    +0.387 N 
ATOM      2  C   UNL     1       2.405  -0.154  -1.157  0.00  0.00    -0.076 C 
ATOM      3  C   UNL     1       3.482  -1.226  -0.973  0.00  0.00    +0.002 C 
ATOM      4  C   UNL     1       4.845  -0.550  -0.799  0.00  0.00    +0.073 C 
ATOM      5  C   UNL     1       4.785   0.401   0.400  0.00  0.00    +0.002 C 
ATOM      6  C   UNL     1       3.670   1.426   0.176  0.00  0.00    -0.076 C 
ATOM      7  H   UNL     1       2.234   0.102   0.906  0.00  0.00    -0.081 HD
ENDROOT
BRANCH   1   9
ATOM      8  C   UNL     1      -0.034   0.928  -0.290  0.00  0.00    -0.004 C 
ATOM      9  C   UNL     1       1.275   1.686  -0.062  0.00  0.00    +0.016 C 
BRANCH   9  10
ATOM     10  C   UNL     1       1.188   2.461   1.228  0.00  0.00    +0.203 C 
ATOM     11  O   UNL     1       1.579   1.963   2.262  0.00  0.00    -0.277 OA
ATOM     12  N   UNL     1       0.670   3.706   1.232  0.00  0.00    -0.285 N 
ATOM     13  H   UNL     1       0.244   4.127   0.310  0.00  0.00    +0.155 HD
BRANCH  12  14
ATOM     14  C   UNL     1       0.675   4.462   2.411  0.00  0.00    +0.069 A 
ATOM     15  C   UNL     1       0.657   3.827   3.645  0.00  0.00    +0.026 A 
ATOM     16  C   UNL     1       0.668   4.576   4.806  0.00  0.00    +0.002 A 
ATOM     17  C   UNL     1       0.685   5.957   4.741  0.00  0.00    +0.003 A 
ATOM     18  C   UNL     1       0.698   6.594   3.514  0.00  0.00    +0.040 A 
ATOM     19  C   UNL     1       0.693   5.851   2.347  0.00  0.00    +0.144 A 
ATOM     20  F   UNL     1       0.705   6.473   1.148  0.00  0.00    -0.204 F 
ENDBRANCH  12  14
ENDBRANCH   9  10
ENDBRANCH   1   9
BRANCH   4  21
ATOM     21  N   UNL     1       5.871  -1.569  -0.565  0.00  0.00    -0.187 NA
ATOM     22  H   UNL     1       6.159  -1.833   0.463  0.00  0.00    +0.148 HD
BRANCH  21  23
ATOM     23  S   UNL     1       6.770  -2.145  -1.831  0.00  0.00    +0.065 S 
ATOM     24  O   UNL     1       7.683  -3.087  -1.285  0.00  0.00    -0.153 OA
ATOM     25  O   UNL     1       5.851  -2.483  -2.861  0.00  0.00    -0.153 OA
BRANCH  23  26
ATOM     26  C   UNL     1       7.735  -0.801  -2.438  0.00  0.00    +0.142 A 
ATOM     27  C   UNL     1       8.977  -0.406  -2.066  0.00  0.00    +0.036 A 
ATOM     28  C   UNL     1       9.546   0.690  -2.688  0.00  0.00    +0.010 A 
ATOM     29  C   UNL     1       8.845   1.336  -3.651  0.00  0.00    +0.047 A 
ATOM     30  S   UNL     1       7.334   0.387  -3.708  0.00  0.00    -0.077 S 
ENDBRANCH  23  26
ENDBRANCH  21  23
ENDBRANCH   4  21
TORSDOF 6
