REMARK  Name = ZINC01779716
REMARK  8 active torsions:
REMARK  status: ('A' for Active; 'I' for Inactive)
REMARK    1  A    between atoms: C_1  and  C_2
REMARK    2  A    between atoms: C_2  and  O_3
REMARK    3  A    between atoms: O_3  and  C_4
REMARK    4  A    between atoms: C_4  and  C_6
REMARK    5  A    between atoms: C_10  and  N_11
REMARK    6  A    between atoms: N_14  and  N_15
REMARK    7  A    between atoms: C_16  and  C_17
REMARK    8  A    between atoms: C_21  and  N_23
REMARK                            x       y       z     vdW  Elec       q    Type
REMARK                         _______ _______ _______ _____ _____    ______ ____
ROOT
ATOM      1  N   UNL     1      -0.017   1.381   0.010  0.00  0.00    -0.262 N 
ATOM      2  C   UNL     1       1.141   2.071   0.002  0.00  0.00    +0.324 C 
ATOM      3  O   UNL     1       2.202   1.478  -0.011  0.00  0.00    -0.251 OA
ATOM      4  N   UNL     1       1.123   3.419   0.010  0.00  0.00    -0.191 N 
ATOM      5  H   UNL     1      -0.863   1.855   0.016  0.00  0.00    +0.157 HD
ATOM      6  H   UNL     1       1.956   3.915   0.004  0.00  0.00    +0.179 HD
ENDROOT
BRANCH   1  11
ATOM      7  C   UNL     1      -1.071  -0.880   0.013  0.00  0.00    +0.091 A 
ATOM      8  C   UNL     1      -0.776  -2.313  -0.003  0.00  0.00    -0.021 A 
ATOM      9  C   UNL     1       0.532  -2.626  -0.017  0.00  0.00    -0.004 A 
ATOM     10  S   UNL     1       1.372  -1.061  -0.016  0.00  0.00    -0.077 S 
ATOM     11  C   UNL     1       0.002  -0.004   0.002  0.00  0.00    +0.088 A 
ATOM     12  C   UNL     1       0.756  -4.114  -0.030  0.00  0.00    +0.043 C 
ATOM     13  C   UNL     1      -0.604  -4.708  -0.459  0.00  0.00    +0.010 C 
ATOM     14  C   UNL     1      -1.585  -3.611  -0.000  0.00  0.00    +0.037 C 
BRANCH   7  15
ATOM     15  C   UNL     1      -2.451  -0.390   0.036  0.00  0.00    +0.342 C 
ATOM     16  O   UNL     1      -3.039  -0.181  -1.008  0.00  0.00    -0.245 OA
BRANCH  15  17
ATOM     17  O   UNL     1      -3.069  -0.170   1.215  0.00  0.00    -0.461 OA
BRANCH  17  19
ATOM     18  C   UNL     1      -4.966   0.505   2.584  0.00  0.00    +0.048 C 
ATOM     19  C   UNL     1      -4.436   0.316   1.161  0.00  0.00    +0.229 C 
ENDBRANCH  17  19
ENDBRANCH  15  17
ENDBRANCH   7  15
ENDBRANCH   1  11
BRANCH   4  20
ATOM     20  N   UNL     1      -0.100   4.103   0.025  0.00  0.00    -0.186 NA
ATOM     21  C   UNL     1      -0.117   5.400   0.032  0.00  0.00    +0.142 C 
BRANCH  21  22
ATOM     22  C   UNL     1      -1.404   6.120   0.048  0.00  0.00    +0.045 A 
ATOM     23  C   UNL     1      -1.427   7.516   0.056  0.00  0.00    +0.028 A 
ATOM     24  C   UNL     1      -2.635   8.184   0.071  0.00  0.00    +0.021 A 
ATOM     25  C   UNL     1      -3.824   7.474   0.078  0.00  0.00    +0.052 A 
ATOM     26  C   UNL     1      -3.813   6.092   0.070  0.00  0.00    +0.174 A 
ATOM     27  C   UNL     1      -2.610   5.407   0.050  0.00  0.00    +0.218 A 
ATOM     28 BR   UNL     1      -2.666  10.074   0.082  0.00  0.00    -0.050 Br
ATOM     29  O   UNL     1      -2.599   4.048   0.037  0.00  0.00    -0.285 OA
BRANCH  26  30
ATOM     30  N   UNL     1      -5.090   5.343   0.077  0.00  0.00    +0.060 N 
ATOM     31  O   UNL     1      -6.149   5.945   0.090  0.00  0.00    -0.126 OA
ATOM     32  O   UNL     1      -5.082   4.125   0.070  0.00  0.00    -0.126 OA
ENDBRANCH  26  30
ENDBRANCH  21  22
ENDBRANCH   4  20
TORSDOF 7
