REMARK  Name = ZINC32558251
REMARK  4 active torsions:
REMARK  status: ('A' for Active; 'I' for Inactive)
REMARK    1  A    between atoms: C_4  and  C_7
REMARK    2  A    between atoms: C_14  and  N_25
REMARK    3  A    between atoms: C_15  and  C_23
REMARK    4  A    between atoms: C_16  and  C_18
REMARK                            x       y       z     vdW  Elec       q    Type
REMARK                         _______ _______ _______ _____ _____    ______ ____
ROOT
ATOM      1  C   UNL     1       3.692  -0.683  -0.040  0.00  0.00    +0.074 A 
ATOM      2  C   UNL     1       3.985  -1.797  -0.753  0.00  0.00    +0.054 A 
ATOM      3  C   UNL     1       5.321  -2.151  -0.481  0.00  0.00    +0.245 A 
ATOM      4  N   UNL     1       5.812  -1.286   0.360  0.00  0.00    -0.135 NA
ATOM      5  N   UNL     1       4.816  -0.342   0.657  0.00  0.00    -0.273 N 
ATOM      6  H   UNL     1       4.910   0.418   1.254  0.00  0.00    +0.189 HD
ATOM      7  O   UNL     1       5.910  -3.235  -1.056  0.00  0.00    -0.421 OA
ATOM      8  C   UNL     1       5.276  -3.808  -2.097  0.00  0.00    +0.201 C 
ATOM      9  C   UNL     1       3.996  -3.556  -2.446  0.00  0.00    +0.099 C 
ATOM     10  C   UNL     1       3.115  -2.593  -1.692  0.00  0.00    +0.108 C 
ENDROOT
BRANCH   1  14
ATOM     11  C   UNL     1      -0.024   1.377   0.002  0.00  0.00    +0.000 A 
ATOM     12  C   UNL     1       0.538   0.995  -1.203  0.00  0.00    +0.001 A 
ATOM     13  C   UNL     1       1.745   0.326  -1.224  0.00  0.00    +0.010 A 
ATOM     14  C   UNL     1       2.398   0.035  -0.026  0.00  0.00    +0.000 A 
ATOM     15  C   UNL     1       1.826   0.423   1.186  0.00  0.00    +0.010 A 
ATOM     16  C   UNL     1       0.619   1.091   1.193  0.00  0.00    +0.001 A 
ENDBRANCH   1  14
BRANCH  10  17
ATOM     17  C   UNL     1       2.082  -3.357  -0.904  0.00  0.00    +0.003 A 
ATOM     18  C   UNL     1       0.733  -3.353  -1.036  0.00  0.00    +0.012 A 
ATOM     19  C   UNL     1      -0.025  -4.144  -0.193  0.00  0.00    +0.008 A 
ATOM     20  C   UNL     1       0.603  -4.899   0.741  0.00  0.00    +0.045 A 
ATOM     21  S   UNL     1       2.318  -4.508   0.441  0.00  0.00    -0.101 S 
ENDBRANCH  10  17
BRANCH   8  22
ATOM     22  N   UNL     1       5.979  -4.709  -2.857  0.00  0.00    -0.328 N 
ATOM     23  H   UNL     1       6.901  -4.914  -2.636  0.00  0.00    +0.145 HD
ATOM     24  H   UNL     1       5.554  -5.141  -3.614  0.00  0.00    +0.145 HD
ENDBRANCH   8  22
BRANCH   9  25
ATOM     25  C   UNL     1       3.451  -4.235  -3.582  0.00  0.00    +0.101 C 
ATOM     26  N   UNL     1       3.019  -4.774  -4.484  0.00  0.00    -0.191 NA
ENDBRANCH   9  25
TORSDOF 4
