REMARK  Name = ZINC36583686
REMARK  12 active torsions:
REMARK  status: ('A' for Active; 'I' for Inactive)
REMARK    1  A    between atoms: C_1  and  C_2
REMARK    2  A    between atoms: C_2  and  C_3
REMARK    3  A    between atoms: C_2  and  C_4
REMARK    4  A    between atoms: C_2  and  N_5
REMARK    5  A    between atoms: N_5  and  C_6
REMARK    6  A    between atoms: C_6  and  C_8
REMARK    7  A    between atoms: C_6  and  C_15
REMARK    8  A    between atoms: C_11  and  O_14
REMARK    9  A    between atoms: N_17  and  C_18
REMARK   10  A    between atoms: C_24  and  C_26
REMARK   11  A    between atoms: C_28  and  N_35
REMARK   12  A    between atoms: C_30  and  N_32
REMARK                            x       y       z     vdW  Elec       q    Type
REMARK                         _______ _______ _______ _____ _____    ______ ____
ROOT
ATOM      1  N   UNL     1      -0.023  -1.579  -0.255  0.00  0.00    -0.277 N 
ATOM      2  C   UNL     1      -1.038  -1.920   0.563  0.00  0.00    +0.248 C 
ATOM      3  O   UNL     1      -0.971  -1.673   1.751  0.00  0.00    -0.270 OA
ENDROOT
BRANCH   2   4
ATOM      4  C   UNL     1      -2.234  -2.595   0.015  0.00  0.00    +0.041 A 
ATOM      5  C   UNL     1      -2.420  -2.680  -1.366  0.00  0.00    +0.046 A 
ATOM      6  C   UNL     1      -3.538  -3.312  -1.871  0.00  0.00    +0.129 A 
ATOM      7  C   UNL     1      -4.473  -3.860  -1.012  0.00  0.00    +0.065 A 
ATOM      8  C   UNL     1      -4.295  -3.780   0.358  0.00  0.00    +0.129 A 
ATOM      9  C   UNL     1      -3.179  -3.156   0.876  0.00  0.00    +0.046 A 
BRANCH   8  10
ATOM     10  N   UNL     1      -5.301  -4.370   1.269  0.00  0.00    +0.057 N 
ATOM     11  O   UNL     1      -6.277  -4.921   0.817  0.00  0.00    -0.126 OA
ATOM     12  O   UNL     1      -5.147  -4.300   2.466  0.00  0.00    -0.126 OA
ENDBRANCH   8  10
BRANCH   6  13
ATOM     13  N   UNL     1      -3.736  -3.402  -3.335  0.00  0.00    +0.057 N 
ATOM     14  O   UNL     1      -2.877  -3.005  -4.087  0.00  0.00    -0.126 OA
ATOM     15  O   UNL     1      -4.758  -3.874  -3.778  0.00  0.00    -0.126 OA
ENDBRANCH   6  13
ENDBRANCH   2   4
BRANCH   1  17
ATOM     16  C   UNL     1       0.753  -0.268  -2.168  0.00  0.00    +0.031 C 
ATOM     17  C   UNL     1      -0.288  -1.268  -1.662  0.00  0.00    +0.030 C 
ATOM     18  C   UNL     1      -1.686  -0.660  -1.795  0.00  0.00    +0.031 C 
ATOM     19  C   UNL     1      -0.209  -2.551  -2.491  0.00  0.00    +0.031 C 
ENDBRANCH   1  17
BRANCH   1  20
ATOM     20  C   UNL     1       1.346  -1.518   0.263  0.00  0.00    +0.193 C 
BRANCH  20  21
ATOM     21  C   UNL     1       1.681  -2.817   0.950  0.00  0.00    -0.018 A 
ATOM     22  C   UNL     1       0.680  -3.560   1.548  0.00  0.00    +0.009 A 
ATOM     23  C   UNL     1       0.984  -4.750   2.179  0.00  0.00    +0.046 A 
ATOM     24  C   UNL     1       2.296  -5.201   2.212  0.00  0.00    +0.117 A 
ATOM     25  C   UNL     1       3.299  -4.455   1.610  0.00  0.00    +0.046 A 
ATOM     26  C   UNL     1       2.988  -3.267   0.976  0.00  0.00    +0.009 A 
BRANCH  24  27
ATOM     27  O   UNL     1       2.598  -6.372   2.832  0.00  0.00    -0.507 OA
ATOM     28  H   UNL     1       2.554  -7.146   2.254  0.00  0.00    +0.292 HD
ENDBRANCH  24  27
ENDBRANCH  20  21
BRANCH  20  29
ATOM     29  C   UNL     1       1.461  -0.385   1.249  0.00  0.00    +0.238 C 
ATOM     30  O   UNL     1       0.501   0.323   1.474  0.00  0.00    -0.273 OA
ATOM     31  N   UNL     1       2.629  -0.156   1.880  0.00  0.00    -0.311 N 
ATOM     32  H   UNL     1       3.397  -0.722   1.700  0.00  0.00    +0.149 HD
BRANCH  31  33
ATOM     33  C   UNL     1       2.741   0.946   2.839  0.00  0.00    +0.073 C 
ATOM     34  C   UNL     1       3.060   2.242   2.091  0.00  0.00    +0.022 C 
ATOM     35  C   UNL     1       3.177   3.393   3.092  0.00  0.00    +0.002 C 
ATOM     36  C   UNL     1       4.297   3.091   4.089  0.00  0.00    +0.000 C 
ATOM     37  C   UNL     1       3.977   1.795   4.837  0.00  0.00    +0.002 C 
ATOM     38  C   UNL     1       3.861   0.644   3.836  0.00  0.00    +0.022 C 
ENDBRANCH  31  33
ENDBRANCH  20  29
ENDBRANCH   1  20
TORSDOF 9
