REMARK  Name = ZINC12832963
REMARK  12 active torsions:
REMARK  status: ('A' for Active; 'I' for Inactive)
REMARK    1  A    between atoms: C_1  and  C_2
REMARK    2  A    between atoms: C_7  and  C_15
REMARK    3  A    between atoms: C_13  and  C_14
REMARK    4  A    between atoms: C_15  and  N_67
REMARK    5  A    between atoms: C_16  and  C_17
REMARK    6  A    between atoms: C_16  and  N_67
REMARK    7  A    between atoms: C_24  and  C_25
REMARK    8  A    between atoms: C_24  and  N_67
REMARK    9  A    between atoms: N_29  and  C_30
REMARK   10  A    between atoms: C_30  and  C_31
REMARK   11  A    between atoms: C_34  and  O_37
REMARK   12  A    between atoms: O_37  and  C_38
REMARK                            x       y       z     vdW  Elec       q    Type
REMARK                         _______ _______ _______ _____ _____    ______ ____
ROOT
ATOM      1  N   UNL     1       1.565  -2.061  -1.357  0.00  0.00    +0.390 N 
ATOM      2  H   UNL     1       0.844  -1.832  -2.052  0.00  0.00    -0.080 HD
ENDROOT
BRANCH   1   3
ATOM      3  C   UNL     1       1.393  -3.466  -0.933  0.00  0.00    -0.036 C 
BRANCH   3  10
ATOM      4  C   UNL     1      -6.383  -5.243  -0.956  0.00  0.00    +0.044 C 
ATOM      5  C   UNL     1      -4.914  -4.984  -1.172  0.00  0.00    -0.046 A 
ATOM      6  C   UNL     1      -4.338  -5.282  -2.400  0.00  0.00    +0.004 A 
ATOM      7  C   UNL     1      -3.008  -5.056  -2.616  0.00  0.00    +0.010 A 
ATOM      8  C   UNL     1      -2.220  -4.519  -1.593  0.00  0.00    -0.001 A 
ATOM      9  C   UNL     1      -0.793  -4.259  -1.792  0.00  0.00    +0.017 A 
ATOM     10  C   UNL     1      -0.079  -3.742  -0.762  0.00  0.00    +0.001 A 
ATOM     11  C   UNL     1      -0.710  -3.456   0.468  0.00  0.00    +0.251 A 
ATOM     12  O   UNL     1      -0.050  -2.988   1.379  0.00  0.00    -0.268 OA
ATOM     13  N   UNL     1      -2.020  -3.688   0.659  0.00  0.00    -0.322 N 
ATOM     14  H   UNL     1      -2.422  -3.479   1.517  0.00  0.00    +0.169 HD
ATOM     15  C   UNL     1      -2.801  -4.216  -0.347  0.00  0.00    +0.052 A 
ATOM     16  C   UNL     1      -4.157  -4.455  -0.149  0.00  0.00    -0.024 A 
ATOM     17  C   UNL     1      -4.796  -4.138   1.178  0.00  0.00    +0.046 C 
ENDBRANCH   3  10
ENDBRANCH   1   3
BRANCH   1  18
ATOM     18  C   UNL     1       2.897  -1.879  -1.971  0.00  0.00    -0.042 C 
BRANCH  18  19
ATOM     19  C   UNL     1       2.897  -2.527  -3.331  0.00  0.00    -0.064 A 
ATOM     20  C   UNL     1       3.395  -3.807  -3.486  0.00  0.00    +0.004 A 
ATOM     21  C   UNL     1       3.391  -4.405  -4.732  0.00  0.00    +0.038 A 
ATOM     22  C   UNL     1       2.898  -3.716  -5.828  0.00  0.00    +0.123 A 
ATOM     23  C   UNL     1       2.405  -2.432  -5.672  0.00  0.00    +0.038 A 
ATOM     24  C   UNL     1       2.405  -1.839  -4.424  0.00  0.00    +0.004 A 
ATOM     25  F   UNL     1       2.898  -4.298  -7.047  0.00  0.00    -0.205 F 
ENDBRANCH  18  19
ENDBRANCH   1  18
BRANCH   1  26
ATOM     26  C   UNL     1       1.416  -1.160  -0.195  0.00  0.00    +0.001 C 
BRANCH  26  27
ATOM     27  C   UNL     1       1.442   0.267  -0.678  0.00  0.00    +0.135 A 
ATOM     28  N   UNL     1       2.506   1.004  -0.886  0.00  0.00    -0.115 NA
ATOM     29  N   UNL     1       2.115   2.161  -1.295  0.00  0.00    -0.023 NA
ATOM     30  N   UNL     1       0.829   2.182  -1.354  0.00  0.00    -0.044 NA
ATOM     31  N   UNL     1       0.377   1.032  -0.981  0.00  0.00    -0.227 N 
BRANCH  31  32
ATOM     32  C   UNL     1      -1.031   0.634  -0.902  0.00  0.00    +0.182 C 
BRANCH  32  33
ATOM     33  C   UNL     1      -1.507   0.199  -2.264  0.00  0.00    -0.026 A 
ATOM     34  C   UNL     1      -1.958   1.140  -3.171  0.00  0.00    +0.009 A 
ATOM     35  C   UNL     1      -2.389   0.744  -4.422  0.00  0.00    +0.046 A 
ATOM     36  C   UNL     1      -2.381  -0.601  -4.764  0.00  0.00    +0.120 A 
ATOM     37  C   UNL     1      -1.934  -1.544  -3.850  0.00  0.00    +0.046 A 
ATOM     38  C   UNL     1      -1.498  -1.142  -2.602  0.00  0.00    +0.009 A 
BRANCH  36  39
ATOM     39  O   UNL     1      -2.810  -0.993  -5.992  0.00  0.00    -0.495 OA
ATOM     40  C   UNL     1      -3.256   0.032  -6.882  0.00  0.00    +0.277 C 
ENDBRANCH  36  39
ENDBRANCH  32  33
ENDBRANCH  31  32
ENDBRANCH  26  27
ENDBRANCH   1  26
TORSDOF 9
