REMARK  Name = ZINC08928064
REMARK  10 active torsions:
REMARK  status: ('A' for Active; 'I' for Inactive)
REMARK    1  A    between atoms: C_1  and  C_2
REMARK    2  A    between atoms: C_2  and  O_3
REMARK    3  A    between atoms: O_3  and  C_4
REMARK    4  A    between atoms: C_7  and  C_9
REMARK    5  A    between atoms: C_13  and  N_14
REMARK    6  A    between atoms: C_15  and  C_17
REMARK    7  A    between atoms: N_22  and  S_23
REMARK    8  A    between atoms: S_23  and  C_26
REMARK    9  A    between atoms: C_29  and  O_32
REMARK   10  A    between atoms: O_32  and  C_33
REMARK                            x       y       z     vdW  Elec       q    Type
REMARK                         _______ _______ _______ _____ _____    ______ ____
ROOT
ATOM      1  N   UNL     1       5.111  -6.460   3.794  0.00  0.00    -0.278 N 
ATOM      2  C   UNL     1       4.668  -5.266   4.234  0.00  0.00    +0.236 C 
ATOM      3  O   UNL     1       4.121  -5.183   5.314  0.00  0.00    -0.274 OA
ATOM      4  H   UNL     1       5.548  -6.527   2.930  0.00  0.00    +0.155 HD
ENDROOT
BRANCH   1   9
ATOM      5  C   UNL     1       5.324  -8.896   4.296  0.00  0.00    +0.069 A 
ATOM      6  C   UNL     1       5.024  -9.918   5.298  0.00  0.00    -0.023 A 
ATOM      7  C   UNL     1       4.398  -9.470   6.401  0.00  0.00    -0.004 A 
ATOM      8  S   UNL     1       4.206  -7.724   6.135  0.00  0.00    -0.077 S 
ATOM      9  C   UNL     1       4.941  -7.594   4.574  0.00  0.00    +0.084 A 
ATOM     10  C   UNL     1       4.127 -10.576   7.384  0.00  0.00    +0.043 C 
ATOM     11  C   UNL     1       5.054 -11.729   6.940  0.00  0.00    +0.010 C 
ATOM     12  C   UNL     1       5.234 -11.426   5.439  0.00  0.00    +0.037 C 
BRANCH   5  16
ATOM     13  C   UNL     1       5.912  -9.901   0.809  0.00  0.00    +0.407 C 
ATOM     14  O   UNL     1       7.125  -9.867   0.748  0.00  0.00    -0.226 OA
ATOM     15  N   UNL     1       5.286  -9.588   1.960  0.00  0.00    -0.217 N 
ATOM     16  C   UNL     1       6.005  -9.236   3.044  0.00  0.00    +0.255 C 
ATOM     17  O   UNL     1       7.220  -9.202   2.983  0.00  0.00    -0.270 OA
ATOM     18  H   UNL     1       4.317  -9.615   2.009  0.00  0.00    +0.161 HD
BRANCH  13  19
ATOM     19  O   UNL     1       5.194 -10.252  -0.274  0.00  0.00    -0.450 OA
BRANCH  19  21
ATOM     20  C   UNL     1       4.956 -10.948  -2.596  0.00  0.00    +0.048 C 
ATOM     21  C   UNL     1       5.934 -10.576  -1.480  0.00  0.00    +0.230 C 
ENDBRANCH  19  21
ENDBRANCH  13  19
ENDBRANCH   5  16
ENDBRANCH   1   9
BRANCH   2  22
ATOM     22  C   UNL     1       4.852  -4.035   3.386  0.00  0.00    +0.166 C 
ATOM     23  C   UNL     1       6.356  -3.762   3.171  0.00  0.00    +0.031 C 
ATOM     24  C   UNL     1       6.447  -2.216   3.253  0.00  0.00    +0.019 C 
ATOM     25  C   UNL     1       5.377  -1.898   4.328  0.00  0.00    +0.110 C 
ATOM     26  N   UNL     1       4.291  -2.864   4.076  0.00  0.00    -0.165 NA
BRANCH  26  27
ATOM     27  S   UNL     1       2.704  -2.665   4.505  0.00  0.00    +0.062 S 
ATOM     28  O   UNL     1       2.688  -1.746   5.589  0.00  0.00    -0.153 OA
ATOM     29  O   UNL     1       2.144  -3.968   4.603  0.00  0.00    -0.153 OA
BRANCH  27  30
ATOM     30  C   UNL     1       1.895  -1.869   3.158  0.00  0.00    +0.106 A 
ATOM     31  C   UNL     1       1.317  -2.626   2.155  0.00  0.00    +0.032 A 
ATOM     32  C   UNL     1       0.682  -2.003   1.098  0.00  0.00    +0.047 A 
ATOM     33  C   UNL     1       0.626  -0.618   1.042  0.00  0.00    +0.120 A 
ATOM     34  C   UNL     1       1.212   0.139   2.045  0.00  0.00    +0.047 A 
ATOM     35  C   UNL     1       1.840  -0.488   3.104  0.00  0.00    +0.032 A 
BRANCH  33  36
ATOM     36  O   UNL     1       0.002  -0.004   0.002  0.00  0.00    -0.495 OA
ATOM     37  C   UNL     1      -0.017   1.425   0.010  0.00  0.00    +0.277 C 
ENDBRANCH  33  36
ENDBRANCH  27  30
ENDBRANCH  26  27
ENDBRANCH   2  22
TORSDOF 8
