REMARK  Name = ZINC14889357
REMARK  11 active torsions:
REMARK  status: ('A' for Active; 'I' for Inactive)
REMARK    1  A    between atoms: C_1  and  C_2
REMARK    2  A    between atoms: C_2  and  C_4
REMARK    3  A    between atoms: C_2  and  N_62
REMARK    4  A    between atoms: C_4  and  C_5
REMARK    5  A    between atoms: C_5  and  C_6
REMARK    6  A    between atoms: C_9  and  O_12
REMARK    7  A    between atoms: C_18  and  S_24
REMARK    8  A    between atoms: C_19  and  C_20
REMARK    9  A    between atoms: C_20  and  O_22
REMARK   10  A    between atoms: O_22  and  C_23
REMARK   11  A    between atoms: S_24  and  N_27
REMARK                            x       y       z     vdW  Elec       q    Type
REMARK                         _______ _______ _______ _____ _____    ______ ____
ROOT
ATOM      1  C   UNL     1      -1.371   3.582  -2.467  0.00  0.00    -0.073 C 
ATOM      2  C   UNL     1      -1.602   5.088  -2.317  0.00  0.00    +0.018 C 
ATOM      3  C   UNL     1      -0.270   5.741  -1.970  0.00  0.00    -0.025 A 
ATOM      4  C   UNL     1       0.754   4.987  -1.503  0.00  0.00    -0.021 A 
ATOM      5  S   UNL     1       2.072   6.137  -1.242  0.00  0.00    -0.074 S 
ATOM      6  C   UNL     1       1.275   7.591  -1.744  0.00  0.00    +0.157 A 
ATOM      7  C   UNL     1       0.015   7.155  -2.100  0.00  0.00    +0.096 A 
ATOM      8  C   UNL     1       0.735   3.509  -1.270  0.00  0.00    -0.035 C 
ATOM      9  N   UNL     1      -0.682   3.069  -1.265  0.00  0.00    +0.385 N 
ATOM     10  H   UNL     1      -1.145   3.445  -0.429  0.00  0.00    -0.081 HD
ENDROOT
BRANCH   6  11
ATOM     11  S   UNL     1       1.918   9.231  -1.791  0.00  0.00    +0.068 S 
ATOM     12  O   UNL     1       1.977   9.606  -3.160  0.00  0.00    -0.152 OA
ATOM     13  O   UNL     1       1.190   9.980  -0.827  0.00  0.00    -0.152 OA
BRANCH  11  14
ATOM     14  N   UNL     1       3.482   9.159  -1.251  0.00  0.00    -0.176 NA
ATOM     15  C   UNL     1       3.914   9.308   0.146  0.00  0.00    +0.109 C 
ATOM     16  C   UNL     1       5.453   9.193   0.165  0.00  0.00    +0.018 C 
ATOM     17  C   UNL     1       5.844   9.560  -1.291  0.00  0.00    +0.018 C 
ATOM     18  C   UNL     1       4.672   8.942  -2.094  0.00  0.00    +0.109 C 
ENDBRANCH  11  14
ENDBRANCH   6  11
BRANCH   9  20
ATOM     19  C   UNL     1      -0.111   0.998  -2.487  0.00  0.00    -0.013 C 
ATOM     20  C   UNL     1      -0.753   1.593  -1.232  0.00  0.00    -0.071 C 
BRANCH  20  21
ATOM     21  C   UNL     1      -0.013   1.086   0.008  0.00  0.00    -0.011 C 
BRANCH  21  22
ATOM     22  C   UNL     1      -0.729   1.579   1.267  0.00  0.00    +0.033 C 
BRANCH  22  23
ATOM     23  C   UNL     1       0.000   1.080   2.488  0.00  0.00    -0.047 A 
ATOM     24  C   UNL     1      -0.348  -0.134   3.051  0.00  0.00    +0.007 A 
ATOM     25  C   UNL     1       0.322  -0.596   4.167  0.00  0.00    +0.045 A 
ATOM     26  C   UNL     1       1.338   0.164   4.729  0.00  0.00    +0.117 A 
ATOM     27  C   UNL     1       1.682   1.383   4.165  0.00  0.00    +0.045 A 
ATOM     28  C   UNL     1       1.012   1.839   3.046  0.00  0.00    +0.007 A 
BRANCH  26  29
ATOM     29  O   UNL     1       1.996  -0.287   5.830  0.00  0.00    -0.507 OA
ATOM     30  H   UNL     1       1.597  -0.011   6.666  0.00  0.00    +0.292 HD
ENDBRANCH  26  29
ENDBRANCH  22  23
ENDBRANCH  21  22
ENDBRANCH  20  21
ENDBRANCH   9  20
BRANCH   7  31
ATOM     31  C   UNL     1      -1.003   8.094  -2.594  0.00  0.00    +0.342 C 
ATOM     32  O   UNL     1      -1.757   8.639  -1.812  0.00  0.00    -0.245 OA
BRANCH  31  33
ATOM     33  O   UNL     1      -1.101   8.349  -3.914  0.00  0.00    -0.464 OA
ATOM     34  C   UNL     1      -2.129   9.286  -4.330  0.00  0.00    +0.280 C 
ENDBRANCH  31  33
ENDBRANCH   7  31
TORSDOF 9
