REMARK  Name = ZINC39606011
REMARK  13 active torsions:
REMARK  status: ('A' for Active; 'I' for Inactive)
REMARK    1  A    between atoms: C_1  and  C_2
REMARK    2  A    between atoms: C_2  and  C_3
REMARK    3  A    between atoms: C_3  and  C_5
REMARK    4  A    between atoms: C_3  and  C_6
REMARK    5  A    between atoms: C_6  and  N_7
REMARK    6  A    between atoms: C_8  and  C_10
REMARK    7  A    between atoms: C_21  and  C_23
REMARK    8  A    between atoms: C_25  and  O_33
REMARK    9  A    between atoms: C_26  and  O_31
REMARK   10  A    between atoms: C_27  and  O_29
REMARK   11  A    between atoms: O_29  and  C_30
REMARK   12  A    between atoms: O_31  and  C_32
REMARK   13  A    between atoms: O_33  and  C_34
REMARK                            x       y       z     vdW  Elec       q    Type
REMARK                         _______ _______ _______ _____ _____    ______ ____
ROOT
ATOM      1  C   UNL     1      -4.019  -4.359   1.066  0.00  0.00    +0.100 C 
ATOM      2  C   UNL     1      -4.919  -3.888   2.230  0.00  0.00    +0.121 C 
ATOM      3  N   UNL     1      -5.744  -5.072   2.568  0.00  0.00    -0.296 N 
ATOM      4  C   UNL     1      -4.812  -6.218   2.449  0.00  0.00    +0.115 C 
ATOM      5  C   UNL     1      -3.950  -5.888   1.213  0.00  0.00    -0.004 C 
ATOM      6  C   UNL     1      -2.509  -6.333   1.442  0.00  0.00    -0.010 C 
ATOM      7  C   UNL     1      -2.458  -7.861   1.527  0.00  0.00    -0.082 C 
ATOM      8  N   UNL     1      -2.979  -8.440   0.282  0.00  0.00    +0.379 N 
ATOM      9  C   UNL     1      -4.393  -8.084   0.117  0.00  0.00    -0.082 C 
ATOM     10  C   UNL     1      -4.526  -6.565  -0.027  0.00  0.00    -0.010 C 
ATOM     11  C   UNL     1      -7.049  -5.100   2.906  0.00  0.00    +0.247 C 
ATOM     12  O   UNL     1      -7.717  -4.086   2.836  0.00  0.00    -0.270 OA
ATOM     13  H   UNL     1      -2.450  -8.083  -0.500  0.00  0.00    -0.086 HD
ATOM     14  H   UNL     1      -2.888  -9.444   0.316  0.00  0.00    -0.086 HD
ENDROOT
BRANCH  11  15
ATOM     15  C   UNL     1      -7.666  -6.361   3.361  0.00  0.00    +0.044 A 
ATOM     16  C   UNL     1      -6.866  -7.391   3.861  0.00  0.00    +0.062 A 
ATOM     17  C   UNL     1      -7.447  -8.571   4.288  0.00  0.00    +0.166 A 
ATOM     18  C   UNL     1      -8.828  -8.733   4.219  0.00  0.00    +0.204 A 
ATOM     19  C   UNL     1      -9.627  -7.708   3.721  0.00  0.00    +0.166 A 
ATOM     20  C   UNL     1      -9.052  -6.524   3.299  0.00  0.00    +0.062 A 
BRANCH  19  21
ATOM     21  O   UNL     1     -10.976  -7.869   3.655  0.00  0.00    -0.491 OA
ATOM     22  C   UNL     1     -11.736  -6.777   3.133  0.00  0.00    +0.277 C 
ENDBRANCH  19  21
BRANCH  18  23
ATOM     23  O   UNL     1      -9.396  -9.894   4.638  0.00  0.00    -0.488 OA
ATOM     24  C   UNL     1      -9.782  -9.968   6.012  0.00  0.00    +0.277 C 
ENDBRANCH  18  23
BRANCH  17  25
ATOM     25  O   UNL     1      -6.668  -9.574   4.774  0.00  0.00    -0.491 OA
ATOM     26  C   UNL     1      -5.259  -9.340   4.816  0.00  0.00    +0.277 C 
ENDBRANCH  17  25
ENDBRANCH  11  15
BRANCH   1  28
ATOM     27  N   UNL     1      -1.914  -3.509   0.084  0.00  0.00    -0.315 N 
ATOM     28  C   UNL     1      -2.643  -3.758   1.190  0.00  0.00    +0.218 C 
ATOM     29  O   UNL     1      -2.191  -3.497   2.285  0.00  0.00    -0.275 OA
ATOM     30  H   UNL     1      -2.275  -3.717  -0.792  0.00  0.00    +0.149 HD
BRANCH  27  31
ATOM     31  C   UNL     1      -0.576  -2.925   0.205  0.00  0.00    +0.107 C 
BRANCH  31  32
ATOM     32  C   UNL     1       0.030  -2.746  -1.189  0.00  0.00    +0.003 C 
ATOM     33  C   UNL     1       0.245  -4.118  -1.831  0.00  0.00    +0.009 C 
BRANCH  32  35
ATOM     34  C   UNL     1       1.921  -1.733  -2.471  0.00  0.00    +0.004 C 
ATOM     35  C   UNL     1       1.373  -2.022  -1.072  0.00  0.00    +0.001 C 
ENDBRANCH  32  35
ENDBRANCH  31  32
ENDBRANCH  27  31
ENDBRANCH   1  28
TORSDOF 8
