REMARK  Name = ZINC45850152
REMARK  9 active torsions:
REMARK  status: ('A' for Active; 'I' for Inactive)
REMARK    1  A    between atoms: C_1  and  C_2
REMARK    2  A    between atoms: C_2  and  C_3
REMARK    3  A    between atoms: C_3  and  C_4
REMARK    4  A    between atoms: C_6  and  C_9
REMARK    5  A    between atoms: C_9  and  S_10
REMARK    6  A    between atoms: S_10  and  C_11
REMARK    7  A    between atoms: C_14  and  C_23
REMARK    8  A    between atoms: N_15  and  C_16
REMARK    9  A    between atoms: C_20  and  C_22
REMARK                            x       y       z     vdW  Elec       q    Type
REMARK                         _______ _______ _______ _____ _____    ______ ____
ROOT
ATOM      1  C   UNL     1       2.781  -7.047   1.611  0.00  0.00    +0.197 A 
ATOM      2  N   UNL     1       3.717  -7.553   0.842  0.00  0.00    -0.122 NA
ATOM      3  N   UNL     1       4.295  -8.535   1.435  0.00  0.00    -0.128 NA
ATOM      4  C   UNL     1       3.766  -8.719   2.623  0.00  0.00    +0.171 A 
ATOM      5  N   UNL     1       2.781  -7.767   2.777  0.00  0.00    -0.270 N 
ENDROOT
BRANCH   4   6
ATOM      6  C   UNL     1       4.154  -9.748   3.608  0.00  0.00    +0.045 A 
ATOM      7  C   UNL     1       3.605  -9.945   4.834  0.00  0.00    +0.095 A 
ATOM      8  N   UNL     1       4.228 -10.989   5.455  0.00  0.00    -0.360 N 
ATOM      9  H   UNL     1       4.009 -11.319   6.340  0.00  0.00    +0.165 HD
ATOM     10  C   UNL     1       5.213 -11.508   4.641  0.00  0.00    +0.047 A 
ATOM     11  C   UNL     1       5.209 -10.763   3.450  0.00  0.00    +0.010 A 
ATOM     12  C   UNL     1       6.108 -11.074   2.430  0.00  0.00    +0.011 A 
ATOM     13  C   UNL     1       6.994 -12.114   2.597  0.00  0.00    +0.001 A 
ATOM     14  C   UNL     1       6.996 -12.853   3.772  0.00  0.00    +0.002 A 
ATOM     15  C   UNL     1       6.119 -12.552   4.791  0.00  0.00    +0.026 A 
ENDBRANCH   4   6
BRANCH   5  16
ATOM     16  C   UNL     1       1.952  -7.578   3.891  0.00  0.00    +0.051 A 
ATOM     17  C   UNL     1       2.497  -7.177   5.104  0.00  0.00    +0.026 A 
ATOM     18  C   UNL     1       1.677  -6.991   6.199  0.00  0.00    +0.002 A 
ATOM     19  C   UNL     1       0.315  -7.203   6.090  0.00  0.00    +0.003 A 
ATOM     20  C   UNL     1      -0.231  -7.601   4.884  0.00  0.00    -0.048 A 
ATOM     21  C   UNL     1       0.584  -7.784   3.783  0.00  0.00    +0.029 A 
ATOM     22  C   UNL     1      -1.715  -7.831   4.768  0.00  0.00    +0.044 C 
ENDBRANCH   5  16
BRANCH   1  23
ATOM     23  S   UNL     1       1.728  -5.689   1.221  0.00  0.00    -0.076 S 
BRANCH  23  24
ATOM     24  C   UNL     1       2.242  -5.200  -0.449  0.00  0.00    +0.176 C 
BRANCH  24  27
ATOM     25  C   UNL     1       0.739  -2.004  -1.265  0.00  0.00    +0.172 A 
ATOM     26  N   UNL     1       1.694  -2.772  -0.730  0.00  0.00    -0.195 NA
ATOM     27  C   UNL     1       1.409  -4.032  -0.909  0.00  0.00    +0.238 A 
ATOM     28  O   UNL     1       0.249  -4.109  -1.573  0.00  0.00    -0.337 OA
ATOM     29  N   UNL     1      -0.174  -2.771  -1.790  0.00  0.00    -0.061 NA
BRANCH  25  30
ATOM     30  C   UNL     1       0.718  -0.497  -1.257  0.00  0.00    +0.079 C 
BRANCH  30  32
ATOM     31  C   UNL     1      -0.019   1.526   0.010  0.00  0.00    +0.004 C 
ATOM     32  C   UNL     1       0.002  -0.004   0.002  0.00  0.00    +0.004 C 
ENDBRANCH  30  32
ENDBRANCH  25  30
ENDBRANCH  24  27
ENDBRANCH  23  24
ENDBRANCH   1  23
TORSDOF 7
