REMARK  Name = ZINC48098852
REMARK  3 active torsions:
REMARK  status: ('A' for Active; 'I' for Inactive)
REMARK    1  A    between atoms: C_1  and  C_2
REMARK    2  A    between atoms: N_14  and  C_15
REMARK    3  A    between atoms: C_18  and  C_21
REMARK                            x       y       z     vdW  Elec       q    Type
REMARK                         _______ _______ _______ _____ _____    ______ ____
ROOT
ATOM      1  C   UNL     1       3.126   0.729   3.609  0.00  0.00    +0.035 A 
ATOM      2  C   UNL     1       3.236   2.065   3.235  0.00  0.00    +0.024 A 
ATOM      3  C   UNL     1       3.975   2.937   4.001  0.00  0.00    +0.015 A 
ATOM      4  C   UNL     1       4.616   2.480   5.157  0.00  0.00    +0.037 A 
ATOM      5  C   UNL     1       4.503   1.138   5.530  0.00  0.00    +0.015 A 
ATOM      6  C   UNL     1       3.758   0.272   4.762  0.00  0.00    +0.024 A 
ENDROOT
BRANCH   1  19
ATOM      7  C   UNL     1      -0.918   1.368   1.047  0.00  0.00    +0.033 C 
ATOM      8  C   UNL     1      -0.605  -0.081   0.667  0.00  0.00    +0.105 C 
ATOM      9  C   UNL     1      -1.804  -0.970   0.989  0.00  0.00    -0.017 A 
ATOM     10  C   UNL     1      -3.112  -0.648   0.629  0.00  0.00    +0.013 A 
ATOM     11  C   UNL     1      -4.126  -1.487   0.944  0.00  0.00    +0.046 A 
ATOM     12  S   UNL     1      -3.265  -2.806   1.786  0.00  0.00    -0.101 S 
ATOM     13  C   UNL     1      -1.625  -2.142   1.658  0.00  0.00    -0.004 A 
ATOM     14  C   UNL     1      -0.346  -2.723   2.166  0.00  0.00    +0.062 C 
ATOM     15  C   UNL     1       0.827  -2.007   1.479  0.00  0.00    +0.115 C 
ATOM     16  N   UNL     1       0.538  -0.565   1.452  0.00  0.00    -0.278 N 
ATOM     17  C   UNL     1       1.311   0.299   2.139  0.00  0.00    +0.307 C 
ATOM     18  O   UNL     1       1.047   1.486   2.135  0.00  0.00    -0.252 OA
ATOM     19  N   UNL     1       2.376  -0.152   2.831  0.00  0.00    -0.269 N 
ATOM     20  H   UNL     1       2.621  -1.089   2.787  0.00  0.00    +0.156 HD
ENDBRANCH   1  19
BRANCH   4  21
ATOM     21  C   UNL     1       5.410   3.412   5.980  0.00  0.00    +0.247 C 
ATOM     22  O   UNL     1       6.483   3.062   6.432  0.00  0.00    -0.270 OA
ATOM     23  N   UNL     1       4.945   4.652   6.232  0.00  0.00    -0.298 N 
ATOM     24  C   UNL     1       5.792   5.577   6.952  0.00  0.00    +0.108 C 
ATOM     25  C   UNL     1       5.546   5.429   8.473  0.00  0.00    +0.019 C 
ATOM     26  C   UNL     1       4.227   5.973   8.833  0.00  0.00    +0.002 C 
ATOM     27  C   UNL     1       3.051   5.246   8.188  0.00  0.00    +0.002 C 
ATOM     28  C   UNL     1       2.806   5.814   6.812  0.00  0.00    +0.019 C 
ATOM     29  C   UNL     1       3.595   5.013   5.755  0.00  0.00    +0.108 C 
ENDBRANCH   4  21
TORSDOF 2
