REMARK  Name = ZINC20386435
REMARK  11 active torsions:
REMARK  status: ('A' for Active; 'I' for Inactive)
REMARK    1  A    between atoms: C_1  and  C_2
REMARK    2  A    between atoms: C_2  and  N_3
REMARK    3  A    between atoms: C_9  and  N_28
REMARK    4  A    between atoms: C_10  and  C_11
REMARK    5  A    between atoms: C_11  and  C_13
REMARK    6  A    between atoms: C_11  and  N_14
REMARK    7  A    between atoms: N_17  and  C_18
REMARK    8  A    between atoms: C_20  and  O_26
REMARK    9  A    between atoms: C_22  and  O_24
REMARK   10  A    between atoms: O_24  and  C_25
REMARK   11  A    between atoms: O_26  and  C_27
REMARK                            x       y       z     vdW  Elec       q    Type
REMARK                         _______ _______ _______ _____ _____    ______ ____
ROOT
ATOM      1  C   UNL     1       4.699   5.216  -0.674  0.00  0.00    +0.104 C 
ATOM      2  C   UNL     1       4.428   5.793   0.717  0.00  0.00    +0.033 C 
ENDROOT
BRANCH   1  10
ATOM      3  N   UNL     1       5.615   8.447  -4.601  0.00  0.00    +0.383 N 
ATOM      4  C   UNL     1       4.511   8.541  -3.636  0.00  0.00    -0.074 C 
ATOM      5  C   UNL     1       4.354   7.219  -2.880  0.00  0.00    +0.018 C 
ATOM      6  C   UNL     1       5.715   6.829  -2.311  0.00  0.00    -0.034 A 
ATOM      7  C   UNL     1       6.840   7.414  -2.808  0.00  0.00    -0.021 A 
ATOM      8  S   UNL     1       8.150   6.688  -1.861  0.00  0.00    -0.077 S 
ATOM      9  C   UNL     1       7.144   5.630  -0.831  0.00  0.00    +0.090 A 
ATOM     10  C   UNL     1       5.891   5.907  -1.282  0.00  0.00    +0.007 A 
ATOM     11  C   UNL     1       6.915   8.427  -3.903  0.00  0.00    -0.035 C 
ATOM     12  H   UNL     1       5.503   7.503  -5.155  0.00  0.00    -0.081 HD
BRANCH   9  13
ATOM     13  N   UNL     1       7.542   4.745   0.178  0.00  0.00    -0.317 N 
ATOM     14  C   UNL     1       6.706   4.077   1.027  0.00  0.00    +0.092 A 
ATOM     15  C   UNL     1       7.460   3.322   1.853  0.00  0.00    +0.019 A 
ATOM     16  C   UNL     1       8.809   3.537   1.509  0.00  0.00    +0.019 A 
ATOM     17  C   UNL     1       8.831   4.412   0.482  0.00  0.00    +0.092 A 
ENDBRANCH   9  13
BRANCH   3  19
ATOM     18  C   UNL     1       5.595  10.884  -4.838  0.00  0.00    -0.017 C 
ATOM     19  C   UNL     1       5.557   9.544  -5.575  0.00  0.00    -0.082 C 
ENDBRANCH   3  19
ENDBRANCH   1  10
BRANCH   1  20
ATOM     20  N   UNL     1       4.971   3.780  -0.562  0.00  0.00    -0.292 N 
ATOM     21  C   UNL     1       3.962   2.921  -0.316  0.00  0.00    +0.304 C 
ATOM     22  O   UNL     1       2.827   3.336  -0.186  0.00  0.00    -0.252 OA
ATOM     23  N   UNL     1       4.213   1.600  -0.213  0.00  0.00    -0.269 N 
ATOM     24  H   UNL     1       5.998   3.405  -0.679  0.00  0.00    +0.151 HD
ATOM     25  H   UNL     1       5.250   1.235  -0.223  0.00  0.00    +0.156 HD
BRANCH  23  26
ATOM     26  C   UNL     1       3.153   0.695  -0.094  0.00  0.00    +0.042 A 
ATOM     27  C   UNL     1       3.292  -0.437   0.699  0.00  0.00    +0.069 A 
ATOM     28  C   UNL     1       2.241  -1.334   0.816  0.00  0.00    +0.125 A 
ATOM     29  C   UNL     1       1.052  -1.102   0.141  0.00  0.00    +0.091 A 
ATOM     30  C   UNL     1       0.912   0.028  -0.650  0.00  0.00    +0.125 A 
ATOM     31  C   UNL     1       1.962   0.926  -0.769  0.00  0.00    +0.069 A 
BRANCH  30  32
ATOM     32  O   UNL     1      -0.254   0.255  -1.311  0.00  0.00    -0.495 OA
ATOM     33  C   UNL     1      -1.292  -0.712  -1.144  0.00  0.00    +0.277 C 
ENDBRANCH  30  32
BRANCH  28  34
ATOM     34  O   UNL     1       2.376  -2.439   1.595  0.00  0.00    -0.495 OA
ATOM     35  C   UNL     1       1.251  -3.317   1.675  0.00  0.00    +0.277 C 
ENDBRANCH  28  34
ENDBRANCH  23  26
ENDBRANCH   1  20
TORSDOF 7
