REMARK  Name = ZINC12462113
REMARK  10 active torsions:
REMARK  status: ('A' for Active; 'I' for Inactive)
REMARK    1  A    between atoms: C_1  and  C_2
REMARK    2  A    between atoms: C_5  and  N_8
REMARK    3  A    between atoms: C_18  and  S_19
REMARK    4  A    between atoms: S_19  and  C_20
REMARK    5  A    between atoms: C_20  and  C_21
REMARK    6  A    between atoms: N_23  and  C_24
REMARK    7  A    between atoms: C_26  and  O_32
REMARK    8  A    between atoms: C_28  and  O_30
REMARK    9  A    between atoms: O_30  and  C_31
REMARK   10  A    between atoms: O_32  and  C_33
REMARK                            x       y       z     vdW  Elec       q    Type
REMARK                         _______ _______ _______ _____ _____    ______ ____
ROOT
ATOM      1  N   UNL     1      -6.543   1.041   0.300  0.00  0.00    -0.272 N 
ATOM      2  C   UNL     1      -7.233  -0.142   0.417  0.00  0.00    +0.173 A 
ATOM      3  C   UNL     1      -6.272  -1.155   0.445  0.00  0.00    +0.173 A 
ATOM      4  C   UNL     1      -6.710  -2.497   0.561  0.00  0.00    +0.279 A 
ATOM      5  O   UNL     1      -5.909  -3.416   0.591  0.00  0.00    -0.265 OA
ATOM      6  N   UNL     1      -8.039  -2.731   0.638  0.00  0.00    -0.312 N 
ATOM      7  H   UNL     1      -8.364  -3.641   0.718  0.00  0.00    +0.170 HD
ATOM      8  C   UNL     1      -8.920  -1.700   0.605  0.00  0.00    +0.201 A 
ATOM      9  N   UNL     1      -8.532  -0.459   0.498  0.00  0.00    -0.217 NA
ATOM     10  N   UNL     1      -5.055  -0.566   0.342  0.00  0.00    -0.214 NA
ATOM     11  C   UNL     1      -5.208   0.734   0.261  0.00  0.00    +0.176 A 
ENDROOT
BRANCH   1  16
ATOM     12  C   UNL     1      -8.803   6.240   0.033  0.00  0.00    +0.044 C 
ATOM     13  C   UNL     1      -8.203   4.859   0.104  0.00  0.00    -0.050 A 
ATOM     14  C   UNL     1      -7.514   4.350  -0.981  0.00  0.00    +0.005 A 
ATOM     15  C   UNL     1      -6.963   3.085  -0.919  0.00  0.00    +0.026 A 
ATOM     16  C   UNL     1      -7.101   2.325   0.234  0.00  0.00    +0.050 A 
ATOM     17  C   UNL     1      -7.798   2.837   1.320  0.00  0.00    +0.026 A 
ATOM     18  C   UNL     1      -8.342   4.105   1.254  0.00  0.00    +0.005 A 
ENDBRANCH   1  16
BRANCH  11  19
ATOM     19  S   UNL     1      -3.899   1.904   0.118  0.00  0.00    -0.078 S 
BRANCH  19  20
ATOM     20  C   UNL     1      -2.475   0.787   0.133  0.00  0.00    +0.173 C 
BRANCH  20  21
ATOM     21  C   UNL     1      -1.205   1.591   0.017  0.00  0.00    +0.227 C 
ATOM     22  O   UNL     1      -1.258   2.799  -0.067  0.00  0.00    -0.275 OA
ATOM     23  N   UNL     1      -0.011   0.966   0.007  0.00  0.00    -0.285 N 
ATOM     24  H   UNL     1       0.029  -0.003   0.007  0.00  0.00    +0.155 HD
BRANCH  23  25
ATOM     25  C   UNL     1       1.170   1.715  -0.008  0.00  0.00    +0.040 A 
ATOM     26  C   UNL     1       1.224   2.912  -0.709  0.00  0.00    +0.069 A 
ATOM     27  C   UNL     1       2.394   3.657  -0.719  0.00  0.00    +0.125 A 
ATOM     28  C   UNL     1       3.513   3.200  -0.039  0.00  0.00    +0.091 A 
ATOM     29  C   UNL     1       3.461   2.002   0.657  0.00  0.00    +0.125 A 
ATOM     30  C   UNL     1       2.291   1.259   0.673  0.00  0.00    +0.069 A 
BRANCH  29  31
ATOM     31  O   UNL     1       4.558   1.555   1.323  0.00  0.00    -0.495 OA
ATOM     32  C   UNL     1       5.730   2.371   1.264  0.00  0.00    +0.277 C 
ENDBRANCH  29  31
BRANCH  27  33
ATOM     33  O   UNL     1       2.445   4.832  -1.400  0.00  0.00    -0.495 OA
ATOM     34  C   UNL     1       3.684   5.544  -1.373  0.00  0.00    +0.277 C 
ENDBRANCH  27  33
ENDBRANCH  23  25
ENDBRANCH  20  21
ENDBRANCH  19  20
ENDBRANCH  11  19
TORSDOF 7
