REMARK  Name = ZINC12402825
REMARK  13 active torsions:
REMARK  status: ('A' for Active; 'I' for Inactive)
REMARK    1  A    between atoms: C_1  and  C_2
REMARK    2  A    between atoms: C_3  and  C_34
REMARK    3  A    between atoms: C_4  and  C_23
REMARK    4  A    between atoms: C_10  and  C_15
REMARK    5  A    between atoms: C_20  and  O_21
REMARK    6  A    between atoms: O_21  and  C_22
REMARK    7  A    between atoms: C_25  and  N_31
REMARK    8  A    between atoms: C_27  and  O_29
REMARK    9  A    between atoms: O_29  and  C_30
REMARK   10  A    between atoms: C_34  and  O_36
REMARK   11  A    between atoms: O_36  and  C_37
REMARK   12  A    between atoms: C_37  and  C_38
REMARK   13  A    between atoms: C_37  and  C_39
REMARK                            x       y       z     vdW  Elec       q    Type
REMARK                         _______ _______ _______ _____ _____    ______ ____
ROOT
ATOM      1  C   UNL     1       5.257   6.166  -2.635  0.00  0.00    +0.061 C 
ATOM      2  C   UNL     1       5.410   4.818  -1.980  0.00  0.00    +0.031 C 
ATOM      3  C   UNL     1       5.238   4.697  -0.652  0.00  0.00    +0.154 C 
ATOM      4  C   UNL     1       5.372   3.368   0.033  0.00  0.00    +0.074 C 
ATOM      5  C   UNL     1       6.119   2.388  -0.837  0.00  0.00    +0.025 C 
ATOM      6  C   UNL     1       6.252   2.602  -2.162  0.00  0.00    +0.049 C 
ATOM      7  N   UNL     1       5.725   3.726  -2.740  0.00  0.00    -0.260 NA
ATOM      8  C   UNL     1       6.980   1.615  -3.040  0.00  0.00    +0.064 C 
ATOM      9  C   UNL     1       8.080   0.923  -2.232  0.00  0.00    +0.036 C 
ATOM     10  C   UNL     1       7.437   0.229  -1.027  0.00  0.00    +0.088 C 
ATOM     11  C   UNL     1       6.671   1.246  -0.227  0.00  0.00    +0.162 C 
ATOM     12  O   UNL     1       6.528   1.080   0.968  0.00  0.00    -0.292 OA
ENDROOT
BRANCH   4  13
ATOM     13  C   UNL     1       4.002   2.818   0.334  0.00  0.00    -0.033 A 
ATOM     14  C   UNL     1       3.120   2.559  -0.699  0.00  0.00    +0.041 A 
ATOM     15  C   UNL     1       1.861   2.056  -0.427  0.00  0.00    +0.177 A 
ATOM     16  C   UNL     1       1.482   1.809   0.882  0.00  0.00    +0.250 A 
ATOM     17  C   UNL     1       2.367   2.074   1.922  0.00  0.00    +0.169 A 
ATOM     18  C   UNL     1       3.629   2.574   1.643  0.00  0.00    +0.054 A 
ATOM     19  O   UNL     1       0.244   1.313   1.151  0.00  0.00    -0.282 OA
BRANCH  15  20
ATOM     20  N   UNL     1       0.920   1.780  -1.536  0.00  0.00    +0.060 N 
ATOM     21  O   UNL     1       1.254   1.998  -2.687  0.00  0.00    -0.126 OA
ATOM     22  O   UNL     1      -0.189   1.336  -1.297  0.00  0.00    -0.126 OA
ENDBRANCH  15  20
BRANCH  17  23
ATOM     23  O   UNL     1       1.997   1.838   3.209  0.00  0.00    -0.491 OA
ATOM     24  C   UNL     1       2.958   2.134   4.225  0.00  0.00    +0.277 C 
ENDBRANCH  17  23
ENDBRANCH   4  13
BRANCH   9  25
ATOM     25  C   UNL     1       8.774  -0.100  -3.095  0.00  0.00    -0.002 A 
ATOM     26  C   UNL     1       8.057  -1.150  -3.635  0.00  0.00    +0.007 A 
ATOM     27  C   UNL     1       8.693  -2.086  -4.429  0.00  0.00    +0.001 A 
ATOM     28  C   UNL     1      10.049  -1.979  -4.678  0.00  0.00    +0.004 A 
ATOM     29  C   UNL     1      10.771  -0.934  -4.136  0.00  0.00    +0.046 A 
ATOM     30  C   UNL     1      10.135   0.010  -3.342  0.00  0.00    +0.124 A 
BRANCH  30  31
ATOM     31  O   UNL     1      10.843   1.040  -2.809  0.00  0.00    -0.495 OA
ATOM     32  C   UNL     1      12.240   1.089  -3.106  0.00  0.00    +0.277 C 
ENDBRANCH  30  31
ENDBRANCH   9  25
BRANCH   3  33
ATOM     33  C   UNL     1       4.920   5.844   0.113  0.00  0.00    +0.317 C 
ATOM     34  O   UNL     1       4.926   6.943  -0.408  0.00  0.00    -0.250 OA
BRANCH  33  35
ATOM     35  O   UNL     1       4.611   5.718   1.420  0.00  0.00    -0.461 OA
BRANCH  35  36
ATOM     36  C   UNL     1       4.300   6.917   2.132  0.00  0.00    +0.170 C 
ATOM     37  C   UNL     1       2.797   7.190   2.042  0.00  0.00    +0.052 C 
ATOM     38  C   UNL     1       4.702   6.758   3.600  0.00  0.00    +0.052 C 
ENDBRANCH  35  36
ENDBRANCH  33  35
ENDBRANCH   3  33
TORSDOF 8
