REMARK  Name = ZINC42527741
REMARK  7 active torsions:
REMARK  status: ('A' for Active; 'I' for Inactive)
REMARK    1  A    between atoms: C_3  and  N_11
REMARK    2  A    between atoms: C_4  and  N_10
REMARK    3  A    between atoms: C_6  and  C_7
REMARK    4  A    between atoms: N_11  and  C_12
REMARK    5  A    between atoms: N_11  and  C_15
REMARK    6  A    between atoms: C_12  and  C_13
REMARK    7  A    between atoms: C_13  and  O_14
REMARK                            x       y       z     vdW  Elec       q    Type
REMARK                         _______ _______ _______ _____ _____    ______ ____
ROOT
ATOM      1  C   UNL     1      -0.167   2.140   0.157  0.00  0.00    +0.017 A 
ATOM      2  C   UNL     1       1.137   2.575   0.086  0.00  0.00    +0.026 A 
ATOM      3  C   UNL     1       2.181   1.657   0.105  0.00  0.00    +0.051 A 
ATOM      4  C   UNL     1       1.911   0.288   0.196  0.00  0.00    +0.047 A 
ATOM      5  C   UNL     1       0.604  -0.154   0.267  0.00  0.00    +0.039 A 
ATOM      6  C   UNL     1      -0.446   0.772   0.247  0.00  0.00    +0.065 A 
ENDROOT
BRANCH   6   7
ATOM      7  C   UNL     1      -1.840   0.307   0.323  0.00  0.00    +0.387 C 
ATOM      8  O   UNL     1      -2.757   1.117   0.306  0.00  0.00    -0.241 OA
ATOM      9  O   UNL     1      -2.083  -0.889   0.402  0.00  0.00    -0.241 OA
ENDBRANCH   6   7
BRANCH   4  10
ATOM     10  N   UNL     1       2.964  -0.635   0.214  0.00  0.00    -0.357 N 
ATOM     11  H   UNL     1       3.881  -0.325   0.164  0.00  0.00    +0.142 HD
ATOM     12  H   UNL     1       2.776  -1.585   0.277  0.00  0.00    +0.142 HD
ENDBRANCH   4  10
BRANCH   3  13
ATOM     13  N   UNL     1       3.498   2.101   0.033  0.00  0.00    -0.323 N 
BRANCH  13  14
ATOM     14  C   UNL     1       4.148   2.259  -1.270  0.00  0.00    +0.074 C 
ATOM     15  C   UNL     1       4.584   3.715  -1.450  0.00  0.00    +0.022 C 
ATOM     16  C   UNL     1       5.262   3.880  -2.811  0.00  0.00    +0.002 C 
ATOM     17  C   UNL     1       6.488   2.968  -2.884  0.00  0.00    +0.000 C 
ATOM     18  C   UNL     1       6.053   1.512  -2.704  0.00  0.00    +0.002 C 
ATOM     19  C   UNL     1       5.374   1.347  -1.343  0.00  0.00    +0.022 C 
ENDBRANCH  13  14
BRANCH  13  20
ATOM     20  C   UNL     1       4.235   2.411   1.261  0.00  0.00    +0.133 C 
BRANCH  20  21
ATOM     21  C   UNL     1       3.914   3.840   1.702  0.00  0.00    +0.174 C 
BRANCH  21  22
ATOM     22  O   UNL     1       2.536   3.925   2.074  0.00  0.00    -0.393 OA
ATOM     23  H   UNL     1       2.261   4.806   2.365  0.00  0.00    +0.209 HD
ENDBRANCH  21  22
ENDBRANCH  20  21
ENDBRANCH  13  20
ENDBRANCH   3  13
TORSDOF 7
