REMARK  Name = ZINC39940770
REMARK  9 active torsions:
REMARK  status: ('A' for Active; 'I' for Inactive)
REMARK    1  A    between atoms: C_1  and  C_2
REMARK    2  A    between atoms: C_2  and  O_3
REMARK    3  A    between atoms: O_3  and  C_4
REMARK    4  A    between atoms: C_7  and  N_10
REMARK    5  A    between atoms: C_18  and  S_19
REMARK    6  A    between atoms: S_19  and  C_20
REMARK    7  A    between atoms: C_20  and  C_22
REMARK    8  A    between atoms: C_20  and  C_28
REMARK    9  A    between atoms: C_28  and  C_30
REMARK                            x       y       z     vdW  Elec       q    Type
REMARK                         _______ _______ _______ _____ _____    ______ ____
ROOT
ATOM      1  S   UNL     1      -1.635  -6.378  -2.102  0.00  0.00    -0.071 S 
ENDROOT
BRANCH   1  10
ATOM      2  N   UNL     1       1.101  -5.939  -1.835  0.00  0.00    -0.287 N 
ATOM      3  C   UNL     1       2.274  -6.679  -1.833  0.00  0.00    +0.074 A 
ATOM      4  C   UNL     1       3.613  -6.356  -1.681  0.00  0.00    +0.028 A 
ATOM      5  C   UNL     1       4.570  -7.349  -1.729  0.00  0.00    +0.002 A 
ATOM      6  C   UNL     1       4.200  -8.671  -1.928  0.00  0.00    +0.002 A 
ATOM      7  C   UNL     1       2.874  -9.011  -2.081  0.00  0.00    +0.030 A 
ATOM      8  C   UNL     1       1.893  -8.016  -2.034  0.00  0.00    +0.091 A 
ATOM      9  N   UNL     1       0.539  -8.035  -2.148  0.00  0.00    -0.221 NA
ATOM     10  C   UNL     1       0.069  -6.818  -2.026  0.00  0.00    +0.175 A 
BRANCH   2  14
ATOM     11  C   UNL     1       0.777  -1.811  -1.336  0.00  0.00    +0.121 A 
ATOM     12  C   UNL     1       0.242  -2.668  -0.386  0.00  0.00    +0.047 A 
ATOM     13  C   UNL     1       0.349  -4.035  -0.550  0.00  0.00    +0.030 A 
ATOM     14  C   UNL     1       0.992  -4.551  -1.668  0.00  0.00    +0.049 A 
ATOM     15  C   UNL     1       1.526  -3.692  -2.619  0.00  0.00    +0.030 A 
ATOM     16  C   UNL     1       1.414  -2.326  -2.455  0.00  0.00    +0.047 A 
BRANCH  11  17
ATOM     17  O   UNL     1       0.671  -0.465  -1.174  0.00  0.00    -0.492 OA
BRANCH  17  19
ATOM     18  C   UNL     1      -0.019   1.526   0.010  0.00  0.00    +0.048 C 
ATOM     19  C   UNL     1       0.002  -0.004   0.002  0.00  0.00    +0.225 C 
ENDBRANCH  17  19
ENDBRANCH  11  17
ENDBRANCH   2  14
ENDBRANCH   1  10
BRANCH   1  20
ATOM     20  C   UNL     1      -2.485  -7.959  -2.368  0.00  0.00    +0.155 C 
BRANCH  20  21
ATOM     21  C   UNL     1      -2.290  -8.843  -1.163  0.00  0.00    -0.027 A 
ATOM     22  C   UNL     1      -2.741  -8.431   0.077  0.00  0.00    +0.005 A 
ATOM     23  C   UNL     1      -2.562  -9.242   1.182  0.00  0.00    +0.000 A 
ATOM     24  C   UNL     1      -1.932 -10.465   1.047  0.00  0.00    +0.000 A 
ATOM     25  C   UNL     1      -1.482 -10.877  -0.193  0.00  0.00    +0.000 A 
ATOM     26  C   UNL     1      -1.665 -10.068  -1.299  0.00  0.00    +0.005 A 
ENDBRANCH  20  21
BRANCH  20  27
ATOM     27  C   UNL     1      -3.957  -7.709  -2.574  0.00  0.00    +0.179 C 
ATOM     28  O   UNL     1      -4.473  -6.709  -2.118  0.00  0.00    -0.291 OA
BRANCH  27  29
ATOM     29  C   UNL     1      -4.735  -8.637  -3.298  0.00  0.00    +0.025 C 
ATOM     30  C   UNL     1      -6.087  -8.556  -3.580  0.00  0.00    +0.006 A 
ATOM     31  C   UNL     1      -7.079  -7.597  -3.269  0.00  0.00    +0.010 A 
ATOM     32  C   UNL     1      -8.353  -7.776  -3.682  0.00  0.00    +0.001 A 
ATOM     33  C   UNL     1      -8.754  -8.897  -4.426  0.00  0.00    +0.002 A 
ATOM     34  C   UNL     1      -7.886  -9.871  -4.775  0.00  0.00    +0.026 A 
ATOM     35  C   UNL     1      -6.476  -9.753  -4.365  0.00  0.00    +0.043 A 
ATOM     36  N   UNL     1      -5.447 -10.527  -4.560  0.00  0.00    -0.380 N 
ATOM     37  C   UNL     1      -4.264  -9.927  -3.934  0.00  0.00    +0.152 C 
ATOM     38  H   UNL     1      -5.459 -11.366  -5.047  0.00  0.00    +0.160 HD
ENDBRANCH  27  29
ENDBRANCH  20  27
ENDBRANCH   1  20
TORSDOF 8
