REMARK  Name = ZINC39537395
REMARK  6 active torsions:
REMARK  status: ('A' for Active; 'I' for Inactive)
REMARK    1  A    between atoms: C_1  and  C_2
REMARK    2  A    between atoms: C_2  and  C_3
REMARK    3  A    between atoms: C_2  and  N_4
REMARK    4  A    between atoms: C_9  and  C_18
REMARK    5  A    between atoms: C_11  and  C_13
REMARK    6  A    between atoms: N_20  and  C_21
REMARK                            x       y       z     vdW  Elec       q    Type
REMARK                         _______ _______ _______ _____ _____    ______ ____
ROOT
ATOM      1  N   UNL     1      -1.385  -0.479  -0.005  0.00  0.00    -0.244 N 
ATOM      2  C   UNL     1      -1.953  -1.282  -0.961  0.00  0.00    +0.160 A 
ATOM      3  C   UNL     1      -3.275  -1.529  -0.537  0.00  0.00    +0.051 A 
ATOM      4  C   UNL     1      -3.453  -0.850   0.686  0.00  0.00    +0.145 A 
ATOM      5  N   UNL     1      -2.340  -0.244   0.991  0.00  0.00    -0.177 NA
ATOM      6  C   UNL     1      -4.115  -2.340  -1.336  0.00  0.00    +0.051 A 
ATOM      7  C   UNL     1      -3.591  -2.860  -2.513  0.00  0.00    +0.042 A 
ATOM      8  C   UNL     1      -2.267  -2.566  -2.862  0.00  0.00    +0.081 A 
ATOM      9  N   UNL     1      -1.505  -1.802  -2.093  0.00  0.00    -0.227 NA
ENDROOT
BRANCH   8  10
ATOM     10  C   UNL     1      -1.710  -3.117  -4.112  0.00  0.00    +0.038 A 
ATOM     11  C   UNL     1      -0.453  -2.965  -4.639  0.00  0.00    +0.017 A 
ATOM     12  C   UNL     1      -0.157  -3.582  -5.833  0.00  0.00    +0.008 A 
ATOM     13  C   UNL     1      -1.115  -4.320  -6.452  0.00  0.00    +0.046 A 
ATOM     14  S   UNL     1      -2.494  -4.163  -5.329  0.00  0.00    -0.095 S 
ENDBRANCH   8  10
BRANCH   6  15
ATOM     15  C   UNL     1      -5.507  -2.626  -0.930  0.00  0.00    +0.249 C 
ATOM     16  O   UNL     1      -5.947  -2.162   0.104  0.00  0.00    -0.270 OA
ATOM     17  N   UNL     1      -6.290  -3.402  -1.706  0.00  0.00    -0.280 N 
ATOM     18  H   UNL     1      -5.962  -3.718  -2.563  0.00  0.00    +0.155 HD
BRANCH  17  19
ATOM     19  C   UNL     1      -7.577  -3.750  -1.277  0.00  0.00    +0.056 A 
ATOM     20  C   UNL     1      -8.329  -2.850  -0.535  0.00  0.00    +0.074 A 
ATOM     21  C   UNL     1      -9.602  -3.195  -0.111  0.00  0.00    +0.164 A 
ATOM     22  C   UNL     1     -10.126  -4.443  -0.430  0.00  0.00    +0.164 A 
ATOM     23  C   UNL     1      -9.371  -5.341  -1.171  0.00  0.00    +0.071 A 
ATOM     24  C   UNL     1      -8.103  -4.995  -1.598  0.00  0.00    +0.066 A 
ATOM     25 CL   UNL     1      -7.165  -6.120  -2.530  0.00  0.00    -0.081 Cl
ATOM     26  O   UNL     1     -11.378  -4.796  -0.028  0.00  0.00    -0.485 OA
ATOM     27  C   UNL     1     -11.959  -4.020   1.025  0.00  0.00    +0.270 C 
ATOM     28  C   UNL     1     -11.736  -2.535   0.707  0.00  0.00    +0.270 C 
ATOM     29  O   UNL     1     -10.326  -2.303   0.620  0.00  0.00    -0.485 OA
ENDBRANCH  17  19
ENDBRANCH   6  15
BRANCH   1  31
ATOM     30  C   UNL     1      -0.045   1.566  -0.011  0.00  0.00    +0.032 C 
ATOM     31  C   UNL     1      -0.014   0.037  -0.020  0.00  0.00    +0.103 C 
ATOM     32  C   UNL     1       0.734  -0.466   1.217  0.00  0.00    +0.032 C 
ENDBRANCH   1  31
TORSDOF 4
