REMARK  Name = ZINC08912384
REMARK  8 active torsions:
REMARK  status: ('A' for Active; 'I' for Inactive)
REMARK    1  A    between atoms: C_1  and  S_2
REMARK    2  A    between atoms: S_2  and  C_5
REMARK    3  A    between atoms: C_7  and  S_23
REMARK    4  A    between atoms: C_8  and  N_10
REMARK    5  A    between atoms: N_10  and  C_11
REMARK    6  A    between atoms: C_11  and  C_12
REMARK    7  A    between atoms: C_12  and  C_13
REMARK    8  A    between atoms: S_23  and  C_26
REMARK                            x       y       z     vdW  Elec       q    Type
REMARK                         _______ _______ _______ _____ _____    ______ ____
ROOT
ATOM      1  C   UNL     1       3.179   8.987  -5.111  0.00  0.00    +0.218 A 
ATOM      2  N   UNL     1       3.639   9.674  -4.089  0.00  0.00    -0.201 NA
ATOM      3  C   UNL     1       3.284   9.391  -2.852  0.00  0.00    +0.212 A 
ATOM      4  C   UNL     1       2.419   8.362  -2.619  0.00  0.00    +0.113 A 
ATOM      5  S   UNL     1       2.130   7.794  -4.290  0.00  0.00    -0.032 S 
ENDROOT
BRANCH   1   7
ATOM      6  C   UNL     1       4.953   8.131  -7.150  0.00  0.00    +0.202 C 
ATOM      7  S   UNL     1       3.512   9.185  -6.830  0.00  0.00    +0.018 S 
ATOM      8  O   UNL     1       2.366   8.659  -7.484  0.00  0.00    -0.168 OA
ATOM      9  O   UNL     1       3.865  10.554  -6.976  0.00  0.00    -0.168 OA
ENDBRANCH   1   7
BRANCH   3  10
ATOM     10  S   UNL     1       3.922  10.335  -1.508  0.00  0.00    +0.044 S 
ATOM     11  O   UNL     1       4.295  11.599  -2.041  0.00  0.00    -0.163 OA
ATOM     12  O   UNL     1       2.992  10.203  -0.442  0.00  0.00    -0.163 OA
BRANCH  10  13
ATOM     13  C   UNL     1       5.409   9.552  -0.981  0.00  0.00    +0.095 A 
ATOM     14  C   UNL     1       5.367   8.577  -0.001  0.00  0.00    +0.029 A 
ATOM     15  C   UNL     1       6.532   7.958   0.409  0.00  0.00    +0.022 A 
ATOM     16  C   UNL     1       7.743   8.322  -0.153  0.00  0.00    +0.041 A 
ATOM     17  C   UNL     1       7.786   9.301  -1.129  0.00  0.00    +0.022 A 
ATOM     18  C   UNL     1       6.619   9.915  -1.543  0.00  0.00    +0.029 A 
ATOM     19 CL   UNL     1       9.209   7.549   0.367  0.00  0.00    -0.084 Cl
ENDBRANCH  10  13
ENDBRANCH   3  10
BRANCH   4  20
ATOM     20  N   UNL     1       1.906   7.882  -1.412  0.00  0.00    -0.335 N 
ATOM     21  H   UNL     1       2.164   8.300  -0.575  0.00  0.00    +0.147 HD
BRANCH  20  22
ATOM     22  C   UNL     1       0.978   6.749  -1.409  0.00  0.00    +0.107 C 
BRANCH  22  23
ATOM     23  C   UNL     1       0.571   6.427   0.030  0.00  0.00    +0.056 C 
BRANCH  23  24
ATOM     24  C   UNL     1      -0.384   5.261   0.033  0.00  0.00    -0.021 A 
ATOM     25  C   UNL     1      -1.724   5.326   0.046  0.00  0.00    +0.087 A 
ATOM     26  N   UNL     1      -2.254   4.064   0.045  0.00  0.00    -0.360 N 
ATOM     27  H   UNL     1      -3.201   3.858   0.053  0.00  0.00    +0.165 HD
ATOM     28  C   UNL     1      -1.240   3.132   0.031  0.00  0.00    +0.047 A 
ATOM     29  C   UNL     1      -0.025   3.840   0.022  0.00  0.00    +0.003 A 
ATOM     30  C   UNL     1       1.186   3.146   0.007  0.00  0.00    +0.010 A 
ATOM     31  C   UNL     1       1.184   1.779   0.000  0.00  0.00    +0.001 A 
ATOM     32  C   UNL     1      -0.013   1.076   0.008  0.00  0.00    +0.002 A 
ATOM     33  C   UNL     1      -1.219   1.742   0.017  0.00  0.00    +0.026 A 
ENDBRANCH  23  24
ENDBRANCH  22  23
ENDBRANCH  20  22
ENDBRANCH   4  20
TORSDOF 7
