REMARK  Name = ZINC03447195
REMARK  9 active torsions:
REMARK  status: ('A' for Active; 'I' for Inactive)
REMARK    1  A    between atoms: C_1  and  C_2
REMARK    2  A    between atoms: C_2  and  C_3
REMARK    3  A    between atoms: C_9  and  S_19
REMARK    4  A    between atoms: N_10  and  C_13
REMARK    5  A    between atoms: C_13  and  C_14
REMARK    6  A    between atoms: S_19  and  C_20
REMARK    7  A    between atoms: C_20  and  C_21
REMARK    8  A    between atoms: N_23  and  C_24
REMARK    9  A    between atoms: C_24  and  C_25
REMARK                            x       y       z     vdW  Elec       q    Type
REMARK                         _______ _______ _______ _____ _____    ______ ____
ROOT
ATOM      1  C   UNL     1      12.052  -3.590  -4.830  0.00  0.00    -0.008 A 
ATOM      2  C   UNL     1      12.861  -3.483  -3.766  0.00  0.00    +0.026 A 
ATOM      3  C   UNL     1      12.302  -3.079  -2.487  0.00  0.00    +0.072 A 
ATOM      4  C   UNL     1      10.916  -2.833  -2.496  0.00  0.00    +0.116 A 
ATOM      5  S   UNL     1      10.452  -3.149  -4.179  0.00  0.00    -0.073 S 
ATOM      6  N   UNL     1      10.261  -2.456  -1.405  0.00  0.00    -0.216 NA
ATOM      7  C   UNL     1      10.891  -2.296  -0.259  0.00  0.00    +0.173 A 
ATOM      8  N   UNL     1      12.236  -2.509  -0.163  0.00  0.00    -0.280 N 
ATOM      9  C   UNL     1      12.959  -2.898  -1.229  0.00  0.00    +0.263 A 
ATOM     10  O   UNL     1      14.158  -3.089  -1.125  0.00  0.00    -0.267 OA
ENDROOT
BRANCH   1  12
ATOM     11  C   UNL     1      12.282  -5.506  -6.387  0.00  0.00    +0.009 C 
ATOM     12  C   UNL     1      12.409  -3.989  -6.239  0.00  0.00    +0.039 C 
ENDBRANCH   1  12
BRANCH   8  13
ATOM     13  C   UNL     1      12.903  -2.317   1.127  0.00  0.00    +0.201 C 
BRANCH  13  14
ATOM     14  C   UNL     1      12.893  -3.612   1.896  0.00  0.00    +0.125 A 
ATOM     15  C   UNL     1      13.839  -4.567   1.841  0.00  0.00    +0.046 A 
ATOM     16  C   UNL     1      13.431  -5.599   2.718  0.00  0.00    +0.041 A 
ATOM     17  C   UNL     1      12.257  -5.216   3.250  0.00  0.00    +0.195 A 
ATOM     18  O   UNL     1      11.936  -4.012   2.748  0.00  0.00    -0.466 OA
ENDBRANCH  13  14
ENDBRANCH   8  13
BRANCH   7  19
ATOM     19  S   UNL     1       9.986  -1.794   1.167  0.00  0.00    -0.078 S 
BRANCH  19  20
ATOM     20  C   UNL     1       8.326  -1.665   0.457  0.00  0.00    +0.173 C 
BRANCH  20  21
ATOM     21  C   UNL     1       7.355  -1.236   1.526  0.00  0.00    +0.224 C 
ATOM     22  O   UNL     1       7.746  -1.037   2.657  0.00  0.00    -0.275 OA
ATOM     23  N   UNL     1       6.051  -1.073   1.226  0.00  0.00    -0.311 N 
ATOM     24  H   UNL     1       5.738  -1.231   0.322  0.00  0.00    +0.149 HD
BRANCH  23  25
ATOM     25  C   UNL     1       5.107  -0.655   2.265  0.00  0.00    +0.139 C 
BRANCH  25  26
ATOM     26  C   UNL     1       3.725  -0.548   1.674  0.00  0.00    -0.027 A 
ATOM     27  C   UNL     1       2.885  -1.646   1.677  0.00  0.00    +0.009 A 
ATOM     28  C   UNL     1       1.617  -1.553   1.135  0.00  0.00    +0.050 A 
ATOM     29  C   UNL     1       1.183  -0.356   0.589  0.00  0.00    +0.166 A 
ATOM     30  C   UNL     1       2.028   0.751   0.586  0.00  0.00    +0.167 A 
ATOM     31  C   UNL     1       3.298   0.650   1.131  0.00  0.00    +0.054 A 
ATOM     32  O   UNL     1       1.376   1.797  -0.001  0.00  0.00    -0.453 OA
ATOM     33  C   UNL     1      -0.018   1.436   0.010  0.00  0.00    +0.466 C 
ATOM     34  O   UNL     1       0.002  -0.004   0.002  0.00  0.00    -0.453 OA
ENDBRANCH  25  26
ENDBRANCH  23  25
ENDBRANCH  20  21
ENDBRANCH  19  20
ENDBRANCH   7  19
TORSDOF 8
