REMARK  Name = ZINC49481296
REMARK  3 active torsions:
REMARK  status: ('A' for Active; 'I' for Inactive)
REMARK    1  A    between atoms: C_4  and  C_7
REMARK    2  A    between atoms: C_9  and  C_12
REMARK    3  A    between atoms: C_16  and  C_18
REMARK                            x       y       z     vdW  Elec       q    Type
REMARK                         _______ _______ _______ _____ _____    ______ ____
ROOT
ATOM      1  C   UNL     1       5.623  -3.842  -0.004  0.00  0.00    +0.112 C 
ATOM      2  C   UNL     1       6.956  -3.904   0.763  0.00  0.00    +0.122 C 
ATOM      3  N   UNL     1       7.446  -4.733  -0.355  0.00  0.00    -0.296 N 
ATOM      4  C   UNL     1       6.451  -4.136  -1.267  0.00  0.00    +0.122 C 
ATOM      5  C   UNL     1       8.412  -5.662  -0.490  0.00  0.00    +0.247 C 
ATOM      6  O   UNL     1       9.135  -5.928   0.451  0.00  0.00    -0.270 OA
ENDROOT
BRANCH   5   7
ATOM      7  C   UNL     1       8.594  -6.358  -1.780  0.00  0.00    +0.037 A 
ATOM      8  C   UNL     1       7.886  -5.939  -2.908  0.00  0.00    +0.014 A 
ATOM      9  C   UNL     1       8.059  -6.593  -4.110  0.00  0.00    +0.021 A 
ATOM     10  C   UNL     1       8.934  -7.663  -4.200  0.00  0.00    +0.041 A 
ATOM     11  C   UNL     1       9.639  -8.083  -3.084  0.00  0.00    +0.021 A 
ATOM     12  C   UNL     1       9.478  -7.434  -1.878  0.00  0.00    +0.014 A 
ATOM     13 CL   UNL     1       9.147  -8.481  -5.716  0.00  0.00    -0.084 Cl
ENDBRANCH   5   7
BRANCH   1  16
ATOM     14  C   UNL     1       3.487  -0.908   0.049  0.00  0.00    +0.202 A 
ATOM     15  N   UNL     1       3.706  -2.235   0.068  0.00  0.00    -0.191 NA
ATOM     16  C   UNL     1       4.984  -2.477  -0.000  0.00  0.00    +0.234 A 
ATOM     17  O   UNL     1       5.634  -1.308  -0.067  0.00  0.00    -0.337 OA
ATOM     18  N   UNL     1       4.641  -0.294  -0.038  0.00  0.00    -0.056 NA
BRANCH  14  22
ATOM     19  C   UNL     1      -0.320   0.980   0.222  0.00  0.00    +0.000 A 
ATOM     20  C   UNL     1       0.827   1.748   0.131  0.00  0.00    +0.001 A 
ATOM     21  C   UNL     1       2.065   1.141   0.075  0.00  0.00    +0.012 A 
ATOM     22  C   UNL     1       2.158  -0.249   0.110  0.00  0.00    +0.022 A 
ATOM     23  C   UNL     1       1.000  -1.018   0.201  0.00  0.00    +0.012 A 
ATOM     24  C   UNL     1      -0.233  -0.400   0.256  0.00  0.00    +0.001 A 
ENDBRANCH  14  22
ENDBRANCH   1  16
TORSDOF 3
