REMARK  Name = ZINC08616835
REMARK  7 active torsions:
REMARK  status: ('A' for Active; 'I' for Inactive)
REMARK    1  A    between atoms: C_1  and  C_2
REMARK    2  A    between atoms: C_3  and  C_14
REMARK    3  A    between atoms: C_4  and  C_7
REMARK    4  A    between atoms: N_16  and  C_17
REMARK    5  A    between atoms: C_22  and  C_23
REMARK    6  A    between atoms: C_23  and  C_24
REMARK    7  A    between atoms: C_34  and  N_60
REMARK                            x       y       z     vdW  Elec       q    Type
REMARK                         _______ _______ _______ _____ _____    ______ ____
ROOT
ATOM      1  C   UNL     1      -2.547   0.235   1.612  0.00  0.00    +0.037 A 
ATOM      2  C   UNL     1      -3.307   0.399   2.763  0.00  0.00    +0.023 A 
ATOM      3  C   UNL     1      -2.937   1.340   3.704  0.00  0.00    +0.002 A 
ATOM      4  C   UNL     1      -1.812   2.119   3.501  0.00  0.00    +0.000 A 
ATOM      5  C   UNL     1      -1.051   1.954   2.358  0.00  0.00    +0.005 A 
ATOM      6  C   UNL     1      -1.419   1.019   1.411  0.00  0.00    -0.027 A 
ENDROOT
BRANCH   1   9
ATOM      7  C   UNL     1      -3.545  -1.847   1.040  0.00  0.00    +0.254 C 
ATOM      8  O   UNL     1      -3.850  -2.008   2.207  0.00  0.00    -0.270 OA
ATOM      9  N   UNL     1      -2.919  -0.717   0.657  0.00  0.00    -0.281 N 
ATOM     10  H   UNL     1      -2.726  -0.564  -0.281  0.00  0.00    +0.155 HD
BRANCH   7  13
ATOM     11  C   UNL     1      -6.106  -2.016  -0.858  0.00  0.00    +0.090 C 
ATOM     12  C   UNL     1      -4.951  -2.981  -0.778  0.00  0.00    +0.147 A 
ATOM     13  C   UNL     1      -3.859  -2.888   0.047  0.00  0.00    +0.106 A 
ATOM     14  C   UNL     1      -3.073  -4.087  -0.311  0.00  0.00    +0.127 A 
ATOM     15  N   UNL     1      -3.774  -4.690  -1.238  0.00  0.00    -0.077 NA
ATOM     16  O   UNL     1      -4.791  -4.095  -1.497  0.00  0.00    -0.359 OA
BRANCH  14  17
ATOM     17  C   UNL     1      -1.772  -4.516   0.258  0.00  0.00    +0.023 A 
ATOM     18  C   UNL     1      -1.585  -4.534   1.639  0.00  0.00    +0.011 A 
ATOM     19  C   UNL     1      -0.372  -4.934   2.163  0.00  0.00    +0.001 A 
ATOM     20  C   UNL     1       0.656  -5.318   1.321  0.00  0.00    +0.001 A 
ATOM     21  C   UNL     1       0.476  -5.304  -0.050  0.00  0.00    +0.020 A 
ATOM     22  C   UNL     1      -0.735  -4.910  -0.587  0.00  0.00    +0.050 A 
ATOM     23 CL   UNL     1      -0.961  -4.899  -2.308  0.00  0.00    -0.083 Cl
ENDBRANCH  14  17
ENDBRANCH   7  13
ENDBRANCH   1   9
BRANCH   6  24
ATOM     24  C   UNL     1      -0.592   0.844   0.163  0.00  0.00    +0.026 C 
BRANCH  24  25
ATOM     25  C   UNL     1      -1.416   1.258  -1.058  0.00  0.00    -0.033 C 
ATOM     26  C   UNL     1      -0.654   0.917  -2.311  0.00  0.00    -0.058 A 
ATOM     27  C   UNL     1       0.000  -0.305  -2.374  0.00  0.00    +0.002 A 
ATOM     28  C   UNL     1       0.707  -0.660  -3.505  0.00  0.00    +0.000 A 
ATOM     29  C   UNL     1       0.764   0.205  -4.582  0.00  0.00    +0.000 A 
ATOM     30  C   UNL     1       0.115   1.422  -4.520  0.00  0.00    +0.004 A 
ATOM     31  C   UNL     1      -0.595   1.780  -3.384  0.00  0.00    -0.047 A 
ATOM     32  C   UNL     1      -1.284   3.120  -3.360  0.00  0.00    +0.017 C 
ATOM     33  C   UNL     1      -2.325   3.152  -2.240  0.00  0.00    -0.074 C 
ATOM     34  C   UNL     1      -2.510   3.030   0.173  0.00  0.00    -0.095 C 
ATOM     35  N   UNL     1      -1.662   2.708  -0.997  0.00  0.00    +0.383 N 
ATOM     36  H   UNL     1      -0.764   3.197  -0.903  0.00  0.00    -0.081 HD
ENDBRANCH  24  25
ENDBRANCH   6  24
TORSDOF 5
