REMARK  Name = ZINC18167466
REMARK  5 active torsions:
REMARK  status: ('A' for Active; 'I' for Inactive)
REMARK    1  A    between atoms: C_1  and  C_2
REMARK    2  A    between atoms: C_5  and  C_8
REMARK    3  A    between atoms: C_8  and  C_28
REMARK    4  A    between atoms: N_12  and  C_22
REMARK    5  A    between atoms: N_14  and  C_15
REMARK                            x       y       z     vdW  Elec       q    Type
REMARK                         _______ _______ _______ _____ _____    ______ ____
ROOT
ATOM      1  C   UNL     1       1.674  -5.197   0.002  0.00  0.00    +0.210 C 
ATOM      2  N   UNL     1       1.141  -5.733   1.256  0.00  0.00    -0.273 N 
ATOM      3  C   UNL     1       0.070  -6.509   1.351  0.00  0.00    +0.310 C 
ATOM      4  O   UNL     1      -0.170  -6.941   2.462  0.00  0.00    -0.252 OA
ATOM      5  N   UNL     1      -0.780  -6.880   0.393  0.00  0.00    -0.232 N 
ATOM      6  C   UNL     1      -0.632  -6.443  -0.919  0.00  0.00    +0.162 C 
ATOM      7  N   UNL     1      -1.131  -7.102  -1.927  0.00  0.00    -0.260 NA
ATOM      8  S   UNL     1       0.278  -4.935  -1.140  0.00  0.00    -0.051 S 
ATOM      9  H   UNL     1       1.604  -5.503   2.077  0.00  0.00    +0.152 HD
ENDROOT
BRANCH   1  14
ATOM     10  C   UNL     1       4.344  -0.171   1.005  0.00  0.00    +0.044 C 
ATOM     11  C   UNL     1       3.648  -1.482   0.744  0.00  0.00    -0.050 A 
ATOM     12  C   UNL     1       3.110  -1.742  -0.503  0.00  0.00    +0.004 A 
ATOM     13  C   UNL     1       2.471  -2.944  -0.743  0.00  0.00    +0.007 A 
ATOM     14  C   UNL     1       2.371  -3.887   0.263  0.00  0.00    -0.005 A 
ATOM     15  C   UNL     1       2.910  -3.627   1.509  0.00  0.00    +0.007 A 
ATOM     16  C   UNL     1       3.553  -2.427   1.748  0.00  0.00    +0.004 A 
ENDBRANCH   1  14
BRANCH   7  17
ATOM     17  C   UNL     1      -1.433  -8.529  -1.791  0.00  0.00    +0.108 C 
ATOM     18  C   UNL     1      -2.897  -8.778  -2.159  0.00  0.00    +0.027 C 
ATOM     19  C   UNL     1      -3.211 -10.269  -2.017  0.00  0.00    +0.002 C 
ATOM     20  C   UNL     1      -2.307 -11.072  -2.954  0.00  0.00    +0.000 C 
ATOM     21  C   UNL     1      -0.842 -10.823  -2.587  0.00  0.00    +0.002 C 
ATOM     22  C   UNL     1      -0.528  -9.332  -2.728  0.00  0.00    +0.027 C 
ENDBRANCH   7  17
BRANCH   5  23
ATOM     23  C   UNL     1      -1.895  -7.767   0.730  0.00  0.00    +0.085 C 
ATOM     24  C   UNL     1      -2.830  -7.061   1.715  0.00  0.00    +0.023 C 
ATOM     25  C   UNL     1      -3.995  -7.988   2.067  0.00  0.00    +0.002 C 
ATOM     26  C   UNL     1      -3.453  -9.268   2.707  0.00  0.00    +0.000 C 
ATOM     27  C   UNL     1      -2.519  -9.974   1.722  0.00  0.00    +0.002 C 
ATOM     28  C   UNL     1      -1.354  -9.047   1.370  0.00  0.00    +0.023 C 
ENDBRANCH   5  23
BRANCH   1  29
ATOM     29  C   UNL     1       2.661  -6.194  -0.609  0.00  0.00    +0.425 C 
ATOM     30  F   UNL     1       3.722  -6.403   0.278  0.00  0.00    -0.167 F 
ATOM     31  F   UNL     1       2.008  -7.408  -0.849  0.00  0.00    -0.167 F 
ATOM     32  F   UNL     1       3.154  -5.684  -1.814  0.00  0.00    -0.167 F 
ENDBRANCH   1  29
TORSDOF 4
