REMARK  Name = ZINC50122424
REMARK  5 active torsions:
REMARK  status: ('A' for Active; 'I' for Inactive)
REMARK    1  A    between atoms: C_1  and  C_2
REMARK    2  A    between atoms: C_2  and  C_3
REMARK    3  A    between atoms: C_2  and  C_4
REMARK    4  A    between atoms: C_2  and  N_5
REMARK    5  A    between atoms: C_8  and  C_11
REMARK                            x       y       z     vdW  Elec       q    Type
REMARK                         _______ _______ _______ _____ _____    ______ ____
ROOT
ATOM      1  N   UNL     1       0.688  -0.476  -1.203  0.00  0.00    -0.276 N 
ATOM      2  C   UNL     1       1.224   0.331  -2.166  0.00  0.00    +0.160 C 
ATOM      3  N   UNL     1       1.774  -0.320  -3.129  0.00  0.00    -0.366 N 
ATOM      4  C   UNL     1       1.632  -1.758  -2.852  0.00  0.00    +0.172 C 
ATOM      5  C   UNL     1       0.891  -1.800  -1.528  0.00  0.00    +0.101 C 
ATOM      6  N   UNL     1       0.530  -2.844  -0.857  0.00  0.00    -0.388 N 
ATOM      7  H   UNL     1       0.056  -2.741  -0.018  0.00  0.00    +0.157 HD
ATOM      8  H   UNL     1       0.734  -3.731  -1.193  0.00  0.00    +0.157 HD
ATOM      9  H   UNL     1       2.208   0.069  -3.904  0.00  0.00    +0.161 HD
ENDROOT
BRANCH   4  10
ATOM     10  C   UNL     1       2.985  -2.407  -2.716  0.00  0.00    -0.015 A 
ATOM     11  C   UNL     1       4.011  -1.738  -2.074  0.00  0.00    +0.009 A 
ATOM     12  C   UNL     1       5.253  -2.332  -1.948  0.00  0.00    +0.041 A 
ATOM     13  C   UNL     1       5.470  -3.597  -2.466  0.00  0.00    +0.158 A 
ATOM     14  C   UNL     1       4.442  -4.268  -3.110  0.00  0.00    +0.159 A 
ATOM     15  C   UNL     1       3.198  -3.672  -3.229  0.00  0.00    +0.047 A 
ATOM     16  F   UNL     1       4.652  -5.502  -3.616  0.00  0.00    -0.202 F 
ATOM     17  F   UNL     1       6.684  -4.178  -2.344  0.00  0.00    -0.202 F 
ENDBRANCH   4  10
BRANCH   1  19
ATOM     18  C   UNL     1      -0.019   1.526   0.010  0.00  0.00    +0.031 C 
ATOM     19  C   UNL     1       0.002  -0.004   0.002  0.00  0.00    +0.033 C 
ATOM     20  C   UNL     1       0.742  -0.511   1.242  0.00  0.00    +0.031 C 
ATOM     21  C   UNL     1      -1.433  -0.534   0.013  0.00  0.00    +0.031 C 
ENDBRANCH   1  19
TORSDOF 2
