REMARK  Name = ZINC50029855
REMARK  6 active torsions:
REMARK  status: ('A' for Active; 'I' for Inactive)
REMARK    1  A    between atoms: C_1  and  C_2
REMARK    2  A    between atoms: C_2  and  C_4
REMARK    3  A    between atoms: C_2  and  N_10
REMARK    4  A    between atoms: N_10  and  C_11
REMARK    5  A    between atoms: C_13  and  C_19
REMARK    6  A    between atoms: C_14  and  N_18
REMARK                            x       y       z     vdW  Elec       q    Type
REMARK                         _______ _______ _______ _____ _____    ______ ____
ROOT
ATOM      1  C   UNL     1       0.086  -0.632  -2.471  0.00  0.00    +0.064 A 
ATOM      2  C   UNL     1      -1.255  -0.305  -2.392  0.00  0.00    +0.040 A 
ATOM      3  C   UNL     1      -2.069  -0.423  -3.523  0.00  0.00    +0.059 A 
ATOM      4  C   UNL     1      -1.517  -0.873  -4.733  0.00  0.00    +0.040 A 
ATOM      5  C   UNL     1      -0.169  -1.197  -4.798  0.00  0.00    +0.063 A 
ATOM      6  C   UNL     1       0.629  -1.073  -3.676  0.00  0.00    +0.146 A 
ATOM      7  F   UNL     1       1.942  -1.385  -3.747  0.00  0.00    -0.203 F 
ENDROOT
BRANCH   3   8
ATOM      8  C   UNL     1      -3.498  -0.077  -3.446  0.00  0.00    +0.243 C 
ATOM      9  O   UNL     1      -4.179  -0.076  -4.453  0.00  0.00    -0.270 OA
ATOM     10  N   UNL     1      -4.052   0.239  -2.258  0.00  0.00    -0.325 N 
ATOM     11  H   UNL     1      -3.509   0.238  -1.454  0.00  0.00    +0.145 HD
ATOM     12  H   UNL     1      -4.993   0.467  -2.207  0.00  0.00    +0.145 HD
ENDBRANCH   3   8
BRANCH   4  13
ATOM     13  N   UNL     1      -2.319  -0.994  -5.863  0.00  0.00    -0.357 N 
ATOM     14  H   UNL     1      -3.240  -0.692  -5.839  0.00  0.00    +0.142 HD
ATOM     15  H   UNL     1      -1.956  -1.380  -6.676  0.00  0.00    +0.142 HD
ENDBRANCH   4  13
BRANCH   1  16
ATOM     16  N   UNL     1       0.902  -0.513  -1.338  0.00  0.00    -0.337 N 
ATOM     17  H   UNL     1       1.844  -0.739  -1.393  0.00  0.00    +0.147 HD
BRANCH  16  19
ATOM     18  C   UNL     1       0.325   1.480  -0.043  0.00  0.00    +0.030 C 
ATOM     19  C   UNL     1       0.332  -0.050  -0.070  0.00  0.00    +0.096 C 
BRANCH  19  20
ATOM     20  C   UNL     1       1.178  -0.576   1.091  0.00  0.00    +0.138 C 
ATOM     21  C   UNL     1       0.518  -0.194   2.434  0.00  0.00    +0.035 C 
ATOM     22  C   UNL     1       1.746   0.171   3.312  0.00  0.00    +0.031 C 
ATOM     23  C   UNL     1       2.688   0.798   2.254  0.00  0.00    +0.160 C 
ATOM     24  O   UNL     1       2.477   0.026   1.059  0.00  0.00    -0.375 OA
ENDBRANCH  19  20
ENDBRANCH  16  19
ENDBRANCH   1  16
TORSDOF 5
