REMARK  Name = ZINC13130274
REMARK  7 active torsions:
REMARK  status: ('A' for Active; 'I' for Inactive)
REMARK    1  A    between atoms: C_1  and  O_2
REMARK    2  A    between atoms: O_2  and  C_3
REMARK    3  A    between atoms: C_6  and  C_11
REMARK    4  A    between atoms: C_8  and  O_9
REMARK    5  A    between atoms: O_9  and  C_10
REMARK    6  A    between atoms: C_13  and  C_17
REMARK    7  A    between atoms: C_22  and  O_23
REMARK                            x       y       z     vdW  Elec       q    Type
REMARK                         _______ _______ _______ _____ _____    ______ ____
ROOT
ATOM      1  C   UNL     1       2.497  -2.492  -4.372  0.00  0.00    +0.093 A 
ATOM      2  C   UNL     1       3.197  -1.837  -5.400  0.00  0.00    +0.058 A 
ATOM      3  C   UNL     1       3.649  -2.788  -6.268  0.00  0.00    +0.070 A 
ATOM      4  N   UNL     1       3.244  -4.002  -5.795  0.00  0.00    -0.276 N 
ATOM      5  H   UNL     1       3.421  -4.862  -6.207  0.00  0.00    +0.189 HD
ATOM      6  N   UNL     1       2.531  -3.787  -4.609  0.00  0.00    -0.173 NA
ENDROOT
BRANCH   1  10
ATOM      7  C   UNL     1       0.606  -0.607  -1.056  0.00  0.00    +0.162 A 
ATOM      8  C   UNL     1       1.172   0.162  -2.061  0.00  0.00    +0.050 A 
ATOM      9  C   UNL     1       1.786  -0.447  -3.137  0.00  0.00    +0.014 A 
ATOM     10  C   UNL     1       1.838  -1.837  -3.215  0.00  0.00    +0.006 A 
ATOM     11  C   UNL     1       1.269  -2.611  -2.206  0.00  0.00    +0.059 A 
ATOM     12  C   UNL     1       0.660  -1.997  -1.126  0.00  0.00    +0.162 A 
BRANCH   7  14
ATOM     13  C   UNL     1      -0.017   1.425   0.010  0.00  0.00    +0.277 C 
ATOM     14  O   UNL     1       0.002  -0.004   0.002  0.00  0.00    -0.491 OA
ENDBRANCH   7  14
BRANCH  12  15
ATOM     15  O   UNL     1       0.110  -2.750  -0.137  0.00  0.00    -0.491 OA
ATOM     16  C   UNL     1       0.202  -4.170  -0.274  0.00  0.00    +0.277 C 
ENDBRANCH  12  15
ENDBRANCH   1  10
BRANCH   3  17
ATOM     17  C   UNL     1       4.436  -2.547  -7.497  0.00  0.00    +0.041 A 
ATOM     18  C   UNL     1       4.137  -1.461  -8.319  0.00  0.00    +0.013 A 
ATOM     19  C   UNL     1       4.875  -1.240  -9.463  0.00  0.00    +0.001 A 
ATOM     20  C   UNL     1       5.911  -2.094  -9.800  0.00  0.00    +0.004 A 
ATOM     21  C   UNL     1       6.216  -3.174  -8.994  0.00  0.00    +0.046 A 
ATOM     22  C   UNL     1       5.489  -3.405  -7.838  0.00  0.00    +0.126 A 
BRANCH  22  23
ATOM     23  O   UNL     1       5.792  -4.462  -7.041  0.00  0.00    -0.506 OA
ATOM     24  H   UNL     1       5.319  -5.274  -7.269  0.00  0.00    +0.292 HD
ENDBRANCH  22  23
ENDBRANCH   3  17
TORSDOF 5
