REMARK  Name = ZINC35916135
REMARK  7 active torsions:
REMARK  status: ('A' for Active; 'I' for Inactive)
REMARK    1  A    between atoms: C_4  and  C_32
REMARK    2  A    between atoms: C_5  and  C_7
REMARK    3  A    between atoms: C_7  and  N_8
REMARK    4  A    between atoms: N_12  and  C_15
REMARK    5  A    between atoms: C_18  and  N_21
REMARK    6  A    between atoms: N_21  and  S_22
REMARK    7  A    between atoms: S_22  and  C_25
REMARK                            x       y       z     vdW  Elec       q    Type
REMARK                         _______ _______ _______ _____ _____    ______ ____
ROOT
ATOM      1  C   UNL     1      -0.260  -3.759   4.175  0.00  0.00    +0.038 A 
ATOM      2  C   UNL     1      -0.307  -5.030   4.731  0.00  0.00    +0.025 A 
ATOM      3  C   UNL     1      -1.315  -5.360   5.615  0.00  0.00    +0.026 A 
ATOM      4  C   UNL     1      -2.282  -4.420   5.948  0.00  0.00    +0.048 A 
ATOM      5  C   UNL     1      -2.235  -3.148   5.392  0.00  0.00    +0.026 A 
ATOM      6  C   UNL     1      -1.224  -2.817   4.512  0.00  0.00    +0.025 A 
ENDROOT
BRANCH   1  11
ATOM      7  N   UNL     1       1.388  -2.889   1.072  0.00  0.00    -0.281 N 
ATOM      8  C   UNL     1       2.797  -2.735   1.437  0.00  0.00    +0.111 C 
ATOM      9  C   UNL     1       2.892  -2.289   2.900  0.00  0.00    +0.038 C 
ATOM     10  C   UNL     1       2.136  -3.300   3.768  0.00  0.00    +0.117 C 
ATOM     11  N   UNL     1       0.763  -3.424   3.277  0.00  0.00    -0.255 N 
ATOM     12  C   UNL     1       0.463  -3.218   1.986  0.00  0.00    +0.309 C 
ATOM     13  O   UNL     1      -0.693  -3.338   1.629  0.00  0.00    -0.252 OA
BRANCH   7  14
ATOM     14  C   UNL     1       0.980  -2.675  -0.319  0.00  0.00    +0.145 C 
BRANCH  14  19
ATOM     15  C   UNL     1       0.405   0.999   0.340  0.00  0.00    +0.000 A 
ATOM     16  C   UNL     1       0.119   1.475  -0.927  0.00  0.00    +0.001 A 
ATOM     17  C   UNL     1       0.109   0.614  -2.005  0.00  0.00    +0.019 A 
ATOM     18  C   UNL     1       0.389  -0.741  -1.815  0.00  0.00    +0.056 A 
ATOM     19  C   UNL     1       0.677  -1.214  -0.534  0.00  0.00    -0.013 A 
ATOM     20  C   UNL     1       0.683  -0.342   0.535  0.00  0.00    +0.006 A 
BRANCH  18  21
ATOM     21  C   UNL     1       0.379  -1.641  -2.929  0.00  0.00    +0.099 C 
ATOM     22  N   UNL     1       0.372  -2.354  -3.813  0.00  0.00    -0.191 NA
ENDBRANCH  18  21
ENDBRANCH  14  19
ENDBRANCH   7  14
ENDBRANCH   1  11
BRANCH   4  23
ATOM     23  N   UNL     1      -3.303  -4.754   6.844  0.00  0.00    -0.216 N 
ATOM     24  H   UNL     1      -3.782  -5.592   6.743  0.00  0.00    +0.174 HD
BRANCH  23  25
ATOM     25  S   UNL     1      -3.695  -3.720   8.076  0.00  0.00    +0.072 S 
ATOM     26  O   UNL     1      -3.894  -2.442   7.486  0.00  0.00    -0.150 OA
ATOM     27  O   UNL     1      -4.698  -4.367   8.847  0.00  0.00    -0.150 OA
BRANCH  25  28
ATOM     28  C   UNL     1      -2.276  -3.580   9.111  0.00  0.00    +0.109 A 
ATOM     29  C   UNL     1      -2.043  -4.524  10.094  0.00  0.00    +0.031 A 
ATOM     30  C   UNL     1      -0.930  -4.417  10.907  0.00  0.00    +0.040 A 
ATOM     31  C   UNL     1      -0.049  -3.363  10.736  0.00  0.00    +0.124 A 
ATOM     32  C   UNL     1      -0.283  -2.418   9.751  0.00  0.00    +0.040 A 
ATOM     33  C   UNL     1      -1.394  -2.531   8.936  0.00  0.00    +0.031 A 
ATOM     34  F   UNL     1       1.039  -3.256  11.529  0.00  0.00    -0.205 F 
ENDBRANCH  25  28
ENDBRANCH  23  25
ENDBRANCH   4  23
TORSDOF 7
