REMARK  Name = ZINC49178442
REMARK  7 active torsions:
REMARK  status: ('A' for Active; 'I' for Inactive)
REMARK    1  A    between atoms: C_1  and  C_2
REMARK    2  A    between atoms: C_2  and  C_3
REMARK    3  A    between atoms: C_3  and  C_4
REMARK    4  A    between atoms: C_4  and  C_5
REMARK    5  A    between atoms: C_5  and  C_7
REMARK    6  A    between atoms: C_5  and  N_17
REMARK    7  A    between atoms: C_14  and  C_16
REMARK                            x       y       z     vdW  Elec       q    Type
REMARK                         _______ _______ _______ _____ _____    ______ ____
ROOT
ATOM      1  C   UNL     1       1.880  -2.557  -2.985  0.00  0.00    +0.161 C 
ENDROOT
BRANCH   1   2
ATOM      2  C   UNL     1       1.853  -4.047  -2.763  0.00  0.00    +0.236 C 
ATOM      3  O   UNL     1       1.055  -4.736  -3.362  0.00  0.00    -0.274 OA
ATOM      4  N   UNL     1       2.717  -4.615  -1.897  0.00  0.00    -0.297 N 
ATOM      5  C   UNL     1       3.756  -3.811  -1.241  0.00  0.00    +0.108 C 
ATOM      6  C   UNL     1       5.117  -4.470  -1.486  0.00  0.00    +0.019 C 
ATOM      7  C   UNL     1       5.065  -5.928  -1.024  0.00  0.00    +0.003 C 
ATOM      8  C   UNL     1       4.010  -6.684  -1.834  0.00  0.00    +0.022 C 
ATOM      9  C   UNL     1       2.632  -6.049  -1.588  0.00  0.00    +0.073 C 
ATOM     10  C   UNL     1       1.592  -6.709  -2.495  0.00  0.00    +0.028 C 
ENDBRANCH   1   2
BRANCH   1  11
ATOM     11  N   UNL     1       1.228  -2.241  -4.258  0.00  0.00    -0.288 N 
ATOM     12  C   UNL     1      -0.062  -2.577  -4.456  0.00  0.00    +0.298 C 
ATOM     13  O   UNL     1      -0.685  -3.141  -3.577  0.00  0.00    -0.253 OA
ATOM     14  N   UNL     1      -0.662  -2.287  -5.627  0.00  0.00    -0.313 N 
ATOM     15  H   UNL     1       1.725  -1.791  -4.959  0.00  0.00    +0.151 HD
ATOM     16  H   UNL     1      -0.166  -1.836  -6.328  0.00  0.00    +0.146 HD
ATOM     17  H   UNL     1      -1.591  -2.528  -5.769  0.00  0.00    +0.146 HD
ENDBRANCH   1  11
BRANCH   1  18
ATOM     18  C   UNL     1       1.138  -1.858  -1.845  0.00  0.00    +0.032 C 
BRANCH  18  19
ATOM     19  C   UNL     1       1.272  -0.342  -2.003  0.00  0.00    +0.002 C 
BRANCH  19  21
ATOM     20  C   UNL     1       0.663   1.873  -1.021  0.00  0.00    +0.004 C 
ATOM     21  C   UNL     1       0.529   0.357  -0.863  0.00  0.00    -0.003 C 
ENDBRANCH  19  21
ENDBRANCH  18  19
ENDBRANCH   1  18
TORSDOF 5
