REMARK  Name = ZINC39484757
REMARK  4 active torsions:
REMARK  status: ('A' for Active; 'I' for Inactive)
REMARK    1  A    between atoms: C_4  and  C_7
REMARK    2  A    between atoms: N_9  and  N_10
REMARK    3  A    between atoms: C_11  and  C_13
REMARK    4  A    between atoms: C_19  and  C_21
REMARK                            x       y       z     vdW  Elec       q    Type
REMARK                         _______ _______ _______ _____ _____    ______ ____
ROOT
ATOM      1  C   UNL     1       6.101  -4.777  -0.192  0.00  0.00    +0.088 C 
ATOM      2  C   UNL     1       6.806  -4.217   1.045  0.00  0.00    +0.013 C 
ATOM      3  C   UNL     1       8.221  -4.792   1.130  0.00  0.00    +0.001 C 
ATOM      4  C   UNL     1       8.146  -6.317   1.233  0.00  0.00    +0.001 C 
ATOM      5  C   UNL     1       7.441  -6.877  -0.004  0.00  0.00    +0.013 C 
ATOM      6  C   UNL     1       6.026  -6.302  -0.089  0.00  0.00    +0.087 C 
ENDROOT
BRANCH   6   7
ATOM      7  C   UNL     1       5.253  -6.685   1.146  0.00  0.00    +0.224 C 
ATOM      8  O   UNL     1       5.016  -5.852   1.995  0.00  0.00    -0.275 OA
ATOM      9  N   UNL     1       4.825  -7.953   1.307  0.00  0.00    -0.271 N 
ATOM     10  C   UNL     1       5.142  -9.067   0.409  0.00  0.00    +0.118 C 
ATOM     11  C   UNL     1       4.430 -10.287   1.015  0.00  0.00    +0.056 C 
ATOM     12  C   UNL     1       3.742  -9.753   2.251  0.00  0.00    -0.024 A 
ATOM     13  C   UNL     1       4.019  -8.399   2.359  0.00  0.00    +0.039 A 
ATOM     14  C   UNL     1       3.492  -7.683   3.435  0.00  0.00    +0.024 A 
ATOM     15  C   UNL     1       2.710  -8.319   4.377  0.00  0.00    +0.002 A 
ATOM     16  C   UNL     1       2.443  -9.670   4.262  0.00  0.00    +0.000 A 
ATOM     17  C   UNL     1       2.955 -10.384   3.194  0.00  0.00    +0.005 A 
ENDBRANCH   6   7
BRANCH   1  19
ATOM     18  N   UNL     1       4.526  -2.878  -0.374  0.00  0.00    -0.234 N 
ATOM     19  C   UNL     1       4.707  -4.210  -0.276  0.00  0.00    +0.233 C 
ATOM     20  O   UNL     1       3.749  -4.953  -0.256  0.00  0.00    -0.274 OA
ATOM     21  H   UNL     1       5.293  -2.284  -0.390  0.00  0.00    +0.173 HD
BRANCH  18  24
ATOM     22  C   UNL     1       3.049  -1.020  -0.550  0.00  0.00    +0.260 C 
ATOM     23  O   UNL     1       4.010  -0.275  -0.570  0.00  0.00    -0.269 OA
ATOM     24  N   UNL     1       3.230  -2.352  -0.452  0.00  0.00    -0.230 N 
ATOM     25  H   UNL     1       2.464  -2.945  -0.436  0.00  0.00    +0.173 HD
BRANCH  22  29
ATOM     26  C   UNL     1      -0.879   0.578  -0.788  0.00  0.00    +0.000 A 
ATOM     27  C   UNL     1       0.212   1.428  -0.811  0.00  0.00    +0.001 A 
ATOM     28  C   UNL     1       1.491   0.915  -0.734  0.00  0.00    +0.013 A 
ATOM     29  C   UNL     1       1.682  -0.464  -0.632  0.00  0.00    +0.038 A 
ATOM     30  C   UNL     1       0.576  -1.315  -0.610  0.00  0.00    +0.013 A 
ATOM     31  C   UNL     1      -0.697  -0.790  -0.688  0.00  0.00    +0.001 A 
ENDBRANCH  22  29
ENDBRANCH  18  24
ENDBRANCH   1  19
TORSDOF 4
