REMARK  Name = ZINC38905702
REMARK  9 active torsions:
REMARK  status: ('A' for Active; 'I' for Inactive)
REMARK    1  A    between atoms: C_6  and  C_7
REMARK    2  A    between atoms: C_9  and  C_12
REMARK    3  A    between atoms: C_12  and  N_13
REMARK    4  A    between atoms: C_17  and  C_20
REMARK    5  A    between atoms: N_22  and  C_23
REMARK    6  A    between atoms: C_23  and  C_24
REMARK    7  A    between atoms: C_24  and  C_25
REMARK    8  A    between atoms: C_25  and  S_26
REMARK    9  A    between atoms: S_26  and  C_27
REMARK                            x       y       z     vdW  Elec       q    Type
REMARK                         _______ _______ _______ _____ _____    ______ ____
ROOT
ATOM      1  N   UNL     1      -3.330  -4.321   1.406  0.00  0.00    +0.386 N 
ATOM      2  C   UNL     1      -2.015  -4.389   2.054  0.00  0.00    -0.078 C 
ATOM      3  C   UNL     1      -2.185  -4.790   3.521  0.00  0.00    -0.018 C 
ATOM      4  C   UNL     1      -2.863  -6.161   3.594  0.00  0.00    +0.009 C 
ATOM      5  C   UNL     1      -4.201  -6.098   2.851  0.00  0.00    +0.058 C 
ATOM      6  C   UNL     1      -3.956  -5.648   1.409  0.00  0.00    -0.065 C 
ATOM      7  H   UNL     1      -3.917  -3.672   1.909  0.00  0.00    -0.081 HD
ENDROOT
BRANCH   5   8
ATOM      8  C   UNL     1      -4.841  -7.462   2.852  0.00  0.00    +0.214 C 
ATOM      9  O   UNL     1      -5.083  -8.019   1.802  0.00  0.00    -0.276 OA
ATOM     10  N   UNL     1      -5.146  -8.062   4.020  0.00  0.00    -0.315 N 
ATOM     11  H   UNL     1      -4.953  -7.617   4.859  0.00  0.00    +0.149 HD
BRANCH  10  12
ATOM     12  C   UNL     1      -5.769  -9.388   4.021  0.00  0.00    +0.105 C 
BRANCH  12  13
ATOM     13  C   UNL     1      -6.008  -9.838   5.463  0.00  0.00    +0.029 C 
BRANCH  13  14
ATOM     14  C   UNL     1      -6.659 -11.223   5.464  0.00  0.00    +0.071 C 
BRANCH  14  15
ATOM     15  S   UNL     1      -6.942 -11.757   7.175  0.00  0.00    -0.157 S 
BRANCH  15  16
ATOM     16  C   UNL     1      -7.707 -13.393   7.003  0.00  0.00    +0.046 C 
ATOM     17  C   UNL     1      -9.072 -13.249   6.325  0.00  0.00    +0.014 C 
ATOM     18  C   UNL     1      -9.717 -14.629   6.180  0.00  0.00    +0.001 C 
ATOM     19  C   UNL     1      -9.899 -15.255   7.564  0.00  0.00    +0.000 C 
ATOM     20  C   UNL     1      -8.534 -15.398   8.242  0.00  0.00    +0.001 C 
ATOM     21  C   UNL     1      -7.889 -14.019   8.387  0.00  0.00    +0.014 C 
ENDBRANCH  15  16
ENDBRANCH  14  15
ENDBRANCH  13  14
ENDBRANCH  12  13
ENDBRANCH  10  12
ENDBRANCH   5   8
BRANCH   1  22
ATOM     22  C   UNL     1      -3.169  -3.860   0.021  0.00  0.00    +0.022 C 
BRANCH  22  25
ATOM     23  C   UNL     1      -1.272  -0.766   0.011  0.00  0.00    +0.202 A 
ATOM     24  N   UNL     1      -1.384  -2.106   0.010  0.00  0.00    -0.193 NA
ATOM     25  C   UNL     1      -2.641  -2.449   0.019  0.00  0.00    +0.211 A 
ATOM     26  O   UNL     1      -3.384  -1.335   0.026  0.00  0.00    -0.340 OA
ATOM     27  N   UNL     1      -2.474  -0.245   0.026  0.00  0.00    -0.056 NA
BRANCH  23  33
ATOM     28  C   UNL     1      -0.017   1.389   0.010  0.00  0.00    +0.013 A 
ATOM     29  C   UNL     1       1.170   2.093   0.002  0.00  0.00    +0.016 A 
ATOM     30  C   UNL     1       2.378   1.417  -0.013  0.00  0.00    +0.018 A 
ATOM     31  C   UNL     1       2.402   0.033  -0.021  0.00  0.00    +0.016 A 
ATOM     32  C   UNL     1       1.221  -0.680  -0.014  0.00  0.00    +0.013 A 
ATOM     33  C   UNL     1       0.002  -0.004   0.002  0.00  0.00    +0.023 A 
ATOM     34 BR   UNL     1       4.001   2.388  -0.024  0.00  0.00    -0.050 Br
ENDBRANCH  23  33
ENDBRANCH  22  25
ENDBRANCH   1  22
TORSDOF 9
