REMARK  Name = ZINC32037783
REMARK  7 active torsions:
REMARK  status: ('A' for Active; 'I' for Inactive)
REMARK    1  A    between atoms: C_1  and  C_2
REMARK    2  A    between atoms: C_2  and  C_3
REMARK    3  A    between atoms: C_3  and  N_4
REMARK    4  A    between atoms: C_13  and  C_15
REMARK    5  A    between atoms: N_17  and  N_18
REMARK    6  A    between atoms: C_19  and  C_21
REMARK    7  A    between atoms: C_21  and  C_26
REMARK                            x       y       z     vdW  Elec       q    Type
REMARK                         _______ _______ _______ _____ _____    ______ ____
ROOT
ATOM      1  C   UNL     1       2.991  -4.520   0.106  0.00  0.00    +0.281 C 
ATOM      2  O   UNL     1       3.111  -5.727   0.190  0.00  0.00    -0.267 OA
ATOM      3  N   UNL     1       3.942  -3.711   0.614  0.00  0.00    -0.229 N 
ATOM      4  H   UNL     1       3.847  -2.748   0.548  0.00  0.00    +0.173 HD
ENDROOT
BRANCH   1  14
ATOM      5  N   UNL     1       0.669  -2.058  -1.196  0.00  0.00    -0.228 N 
ATOM      6  C   UNL     1      -0.366  -2.721  -1.752  0.00  0.00    +0.275 A 
ATOM      7  O   UNL     1      -1.290  -2.117  -2.265  0.00  0.00    -0.266 OA
ATOM      8  C   UNL     1      -0.352  -4.191  -1.723  0.00  0.00    +0.050 A 
ATOM      9  C   UNL     1      -1.370  -4.967  -2.267  0.00  0.00    +0.014 A 
ATOM     10  C   UNL     1      -1.282  -6.341  -2.199  0.00  0.00    +0.001 A 
ATOM     11  C   UNL     1      -0.192  -6.953  -1.595  0.00  0.00    +0.001 A 
ATOM     12  C   UNL     1       0.828  -6.202  -1.050  0.00  0.00    +0.011 A 
ATOM     13  C   UNL     1       0.758  -4.814  -1.108  0.00  0.00    +0.020 A 
ATOM     14  C   UNL     1       1.803  -3.939  -0.551  0.00  0.00    +0.155 A 
ATOM     15  N   UNL     1       1.668  -2.639  -0.649  0.00  0.00    -0.163 NA
BRANCH   5  16
ATOM     16  C   UNL     1       0.650  -0.593  -1.228  0.00  0.00    +0.147 C 
BRANCH  16  18
ATOM     17  C   UNL     1      -0.062   1.464  -0.002  0.00  0.00    +0.005 C 
ATOM     18  C   UNL     1      -0.042  -0.065   0.031  0.00  0.00    +0.020 C 
ENDBRANCH  16  18
ENDBRANCH   5  16
ENDBRANCH   1  14
BRANCH   3  19
ATOM     19  N   UNL     1       5.069  -4.262   1.238  0.00  0.00    -0.233 N 
ATOM     20  C   UNL     1       6.021  -3.454   1.746  0.00  0.00    +0.240 C 
ATOM     21  O   UNL     1       5.947  -2.254   1.583  0.00  0.00    -0.273 OA
ATOM     22  H   UNL     1       5.165  -5.225   1.304  0.00  0.00    +0.173 HD
BRANCH  20  23
ATOM     23  C   UNL     1       7.176  -4.041   2.515  0.00  0.00    +0.073 C 
ATOM     24  C   UNL     1       6.653  -4.878   3.695  0.00  0.00    +0.021 C 
ATOM     25  C   UNL     1       7.212  -4.228   4.978  0.00  0.00    +0.001 C 
ATOM     26  C   UNL     1       7.500  -2.763   4.567  0.00  0.00    +0.001 C 
ATOM     27  C   UNL     1       8.035  -2.912   3.122  0.00  0.00    +0.021 C 
BRANCH  23  28
ATOM     28  C   UNL     1       8.018  -4.899   1.606  0.00  0.00    -0.031 A 
ATOM     29  C   UNL     1       7.749  -4.941   0.250  0.00  0.00    +0.005 A 
ATOM     30  C   UNL     1       8.521  -5.728  -0.584  0.00  0.00    +0.002 A 
ATOM     31  C   UNL     1       9.563  -6.473  -0.063  0.00  0.00    +0.020 A 
ATOM     32  C   UNL     1       9.833  -6.430   1.293  0.00  0.00    +0.041 A 
ATOM     33  C   UNL     1       9.063  -5.638   2.127  0.00  0.00    +0.024 A 
ATOM     34 CL   UNL     1      11.141  -7.366   1.947  0.00  0.00    -0.084 Cl
ENDBRANCH  23  28
ENDBRANCH  20  23
ENDBRANCH   3  19
TORSDOF 6
