REMARK  Name = ZINC04036113
REMARK  8 active torsions:
REMARK  status: ('A' for Active; 'I' for Inactive)
REMARK    1  A    between atoms: C_1  and  O_2
REMARK    2  A    between atoms: O_2  and  C_3
REMARK    3  A    between atoms: C_5  and  C_13
REMARK    4  A    between atoms: C_7  and  O_11
REMARK    5  A    between atoms: C_8  and  O_9
REMARK    6  A    between atoms: O_9  and  C_10
REMARK    7  A    between atoms: O_11  and  C_12
REMARK    8  A    between atoms: C_18  and  C_28
REMARK                            x       y       z     vdW  Elec       q    Type
REMARK                         _______ _______ _______ _____ _____    ______ ____
ROOT
ATOM      1  C   UNL     1       6.608  -1.740   1.498  0.00  0.00    +0.032 C 
ATOM      2  C   UNL     1       5.138  -1.893   1.114  0.00  0.00    +0.059 C 
ATOM      3  C   UNL     1       4.548  -0.532   0.779  0.00  0.00    +0.017 C 
ATOM      4  C   UNL     1       4.974   0.568   1.421  0.00  0.00    +0.036 C 
ATOM      5  C   UNL     1       4.453   1.971   1.218  0.00  0.00    +0.136 C 
ATOM      6  N   UNL     1       3.602   2.130   0.058  0.00  0.00    -0.331 N 
ATOM      7  C   UNL     1       2.373   1.478  -0.028  0.00  0.00    +0.049 A 
ATOM      8  C   UNL     1       1.179   2.183  -0.019  0.00  0.00    +0.025 A 
ATOM      9  C   UNL     1      -0.019   1.492  -0.029  0.00  0.00    +0.002 A 
ATOM     10  C   UNL     1      -0.030   0.109  -0.056  0.00  0.00    +0.002 A 
ATOM     11  C   UNL     1       1.160  -0.598  -0.091  0.00  0.00    +0.025 A 
ATOM     12  C   UNL     1       2.359   0.093  -0.085  0.00  0.00    +0.052 A 
ATOM     13  N   UNL     1       3.588  -0.551  -0.180  0.00  0.00    -0.316 N 
ATOM     14  C   UNL     1       6.003   0.476   2.388  0.00  0.00    +0.163 C 
ATOM     15  O   UNL     1       6.354   1.485   2.968  0.00  0.00    -0.292 OA
ATOM     16  C   UNL     1       6.677  -0.821   2.723  0.00  0.00    +0.088 C 
ATOM     17  H   UNL     1       3.922   2.773  -0.775  0.00  0.00    +0.147 HD
ATOM     18  H   UNL     1       3.756  -1.105  -1.116  0.00  0.00    +0.152 HD
ENDROOT
BRANCH   5  19
ATOM     19  C   UNL     1       3.673   2.374   2.442  0.00  0.00    -0.020 A 
ATOM     20  C   UNL     1       2.523   1.688   2.786  0.00  0.00    +0.006 A 
ATOM     21  C   UNL     1       1.806   2.056   3.909  0.00  0.00    +0.003 A 
ATOM     22  C   UNL     1       2.238   3.112   4.689  0.00  0.00    +0.038 A 
ATOM     23  C   UNL     1       3.389   3.800   4.346  0.00  0.00    +0.124 A 
ATOM     24  C   UNL     1       4.110   3.426   3.224  0.00  0.00    +0.044 A 
ATOM     25  F   UNL     1       3.813   4.832   5.109  0.00  0.00    -0.205 F 
ENDBRANCH   5  19
BRANCH   1  28
ATOM     26  C   UNL     1       8.796  -4.821   1.423  0.00  0.00    +0.165 A 
ATOM     27  C   UNL     1       8.258  -3.581   1.113  0.00  0.00    +0.053 A 
ATOM     28  C   UNL     1       7.189  -3.088   1.839  0.00  0.00    -0.036 A 
ATOM     29  C   UNL     1       6.656  -3.827   2.878  0.00  0.00    +0.053 A 
ATOM     30  C   UNL     1       7.184  -5.070   3.191  0.00  0.00    +0.165 A 
ATOM     31  C   UNL     1       8.258  -5.569   2.464  0.00  0.00    +0.204 A 
BRANCH  26  33
ATOM     32  C   UNL     1      10.347  -4.483  -0.347  0.00  0.00    +0.277 C 
ATOM     33  O   UNL     1       9.847  -5.306   0.709  0.00  0.00    -0.491 OA
ENDBRANCH  26  33
BRANCH  31  34
ATOM     34  O   UNL     1       8.783  -6.787   2.771  0.00  0.00    -0.488 OA
ATOM     35  C   UNL     1       9.841  -6.815   3.731  0.00  0.00    +0.277 C 
ENDBRANCH  31  34
BRANCH  30  36
ATOM     36  O   UNL     1       6.655  -5.798   4.210  0.00  0.00    -0.491 OA
ATOM     37  C   UNL     1       5.552  -5.223   4.914  0.00  0.00    +0.277 C 
ENDBRANCH  30  36
ENDBRANCH   1  28
TORSDOF 5
