REMARK  Name = ZINC31165232
REMARK  13 active torsions:
REMARK  status: ('A' for Active; 'I' for Inactive)
REMARK    1  A    between atoms: CD1_1  and  CG1_2
REMARK    2  A    between atoms: CG1_2  and  CB_3
REMARK    3  A    between atoms: CB_3  and  CG2_5
REMARK    4  A    between atoms: CB_3  and  CA_6
REMARK    5  A    between atoms: N_10  and  C_44
REMARK    6  A    between atoms: CA_11  and  CB_37
REMARK    7  A    between atoms: CA_16  and  CB_34
REMARK    8  A    between atoms: N_20  and  C_33
REMARK    9  A    between atoms: CA_21  and  CB_26
REMARK   10  A    between atoms: CB_26  and  CG_27
REMARK   11  A    between atoms: CB_34  and  CG1_35
REMARK   12  A    between atoms: CB_34  and  CG2_36
REMARK   13  A    between atoms: CB_37  and  CG_38
REMARK                            x       y       z     vdW  Elec       q    Type
REMARK                         _______ _______ _______ _____ _____    ______ ____
ROOT
ATOM      1  CA  ILE A   4      -2.186   3.443   4.647  0.00  0.00    +0.162 C 
ATOM      2  C   ILE A   4      -2.457   2.052   4.187  0.00  0.00    +0.237 C 
ATOM      3  O   ILE A   4      -3.299   1.427   4.857  0.00  0.00    -0.274 OA
ATOM      4  N   PHE A   1      -1.933   1.354   3.161  0.00  0.00    -0.291 N 
ATOM      5  CA  PHE A   1      -2.837   0.262   2.675  0.00  0.00    +0.166 C 
ATOM      6  C   PHE A   1      -4.096   0.947   2.194  0.00  0.00    +0.234 C 
ATOM      7  O   PHE A   1      -4.035   1.682   1.233  0.00  0.00    -0.274 OA
ATOM      8  N   VAL A   2      -5.268   0.705   2.852  0.00  0.00    -0.302 N 
ATOM      9  CA  VAL A   2      -6.426   1.552   2.438  0.00  0.00    +0.162 C 
ATOM     10  C   VAL A   2      -6.021   2.975   2.612  0.00  0.00    +0.237 C 
ATOM     11  O   VAL A   2      -6.049   3.394   3.784  0.00  0.00    -0.274 OA
ATOM     12  N   PHE A   3      -5.633   3.891   1.703  0.00  0.00    -0.291 N 
ATOM     13  CA  PHE A   3      -4.778   4.972   2.292  0.00  0.00    +0.166 C 
ATOM     14  C   PHE A   3      -3.545   4.281   2.829  0.00  0.00    +0.234 C 
ATOM     15  O   PHE A   3      -2.787   3.741   2.052  0.00  0.00    -0.274 OA
ATOM     16  N   ILE A   4      -3.317   4.297   4.175  0.00  0.00    -0.302 N 
ATOM     17  C   ACE A   0      -5.985   3.953   0.284  0.00  0.00    +0.133 C 
ATOM     18  C   ACE A   0      -0.618   1.520   2.539  0.00  0.00    +0.133 C 
ATOM     19  H   VAL A   2      -5.395  -0.053   3.640  0.00  0.00    +0.150 HD
ATOM     20  H   ILE A   4      -3.901   4.885   4.899  0.00  0.00    +0.150 HD
ENDROOT
BRANCH   9  21
ATOM     21  CB  VAL A   2      -6.934   1.157   1.063  0.00  0.00    +0.012 C 
ATOM     22  CG1 VAL A   2      -7.141  -0.358   1.012  0.00  0.00    +0.009 C 
ATOM     23  CG2 VAL A   2      -8.263   1.863   0.789  0.00  0.00    +0.009 C 
ENDBRANCH   9  21
BRANCH   1  24
ATOM     24  CB  ILE A   4      -0.845   4.037   4.255  0.00  0.00    +0.015 C 
ATOM     25  CG2 ILE A   4       0.278   3.266   4.951  0.00  0.00    +0.010 C 
BRANCH  24  27
ATOM     26  CD1 ILE A   4      -1.710   6.331   3.772  0.00  0.00    +0.004 C 
ATOM     27  CG1 ILE A   4      -0.794   5.506   4.679  0.00  0.00    +0.002 C 
ENDBRANCH  24  27
ENDBRANCH   1  24
BRANCH  13  28
ATOM     28  CB  PHE A   3      -4.388   5.966   1.199  0.00  0.00    +0.067 C 
BRANCH  28  29
ATOM     29  CG  PHE A   3      -5.600   6.764   0.790  0.00  0.00    -0.045 A 
ATOM     30  CD2 PHE A   3      -6.158   6.581  -0.461  0.00  0.00    +0.004 A 
ATOM     31  CE2 PHE A   3      -7.272   7.309  -0.834  0.00  0.00    +0.000 A 
ATOM     32  CZ  PHE A   3      -7.822   8.227   0.041  0.00  0.00    +0.000 A 
ATOM     33  CE1 PHE A   3      -7.261   8.414   1.290  0.00  0.00    +0.000 A 
ATOM     34  CD1 PHE A   3      -6.150   7.682   1.665  0.00  0.00    +0.004 A 
ENDBRANCH  28  29
ENDBRANCH  13  28
BRANCH   5  35
ATOM     35  CB  PHE A   1      -2.167  -0.479   1.519  0.00  0.00    +0.067 C 
BRANCH  35  36
ATOM     36  CG  PHE A   1      -3.026  -1.647   1.105  0.00  0.00    -0.045 A 
ATOM     37  CD2 PHE A   1      -2.826  -2.889   1.678  0.00  0.00    +0.004 A 
ATOM     38  CE2 PHE A   1      -3.609  -3.961   1.294  0.00  0.00    +0.000 A 
ATOM     39  CZ  PHE A   1      -4.592  -3.791   0.338  0.00  0.00    +0.000 A 
ATOM     40  CE1 PHE A   1      -4.793  -2.549  -0.235  0.00  0.00    +0.000 A 
ATOM     41  CD1 PHE A   1      -4.009  -1.477   0.149  0.00  0.00    +0.004 A 
ENDBRANCH  35  36
ENDBRANCH   5  35
TORSDOF 7
