REMARK  Name = ZINC63537922
REMARK  5 active torsions:
REMARK  status: ('A' for Active; 'I' for Inactive)
REMARK    1  A    between atoms: C_1  and  C_2
REMARK    2  A    between atoms: C_2  and  C_3
REMARK    3  A    between atoms: C_6  and  N_9
REMARK    4  A    between atoms: C_12  and  C_17
REMARK    5  A    between atoms: C_17  and  C_18
REMARK                            x       y       z     vdW  Elec       q    Type
REMARK                         _______ _______ _______ _____ _____    ______ ____
ROOT
ATOM      1  N   UNL     1       2.747  -1.886   4.600  0.00  0.00    -0.193 N 
ATOM      2  C   UNL     1       2.170  -2.071   5.803  0.00  0.00    +0.248 C 
ATOM      3  O   UNL     1       1.010  -1.874   6.097  0.00  0.00    -0.273 OA
ATOM      4  C   UNL     1       3.271  -2.577   6.713  0.00  0.00    +0.165 C 
ATOM      5  N   UNL     1       4.452  -2.623   5.834  0.00  0.00    -0.287 N 
ATOM      6  C   UNL     1       4.046  -2.206   4.621  0.00  0.00    +0.314 C 
ATOM      7  O   UNL     1       4.777  -2.126   3.654  0.00  0.00    -0.252 OA
ATOM      8  H   UNL     1       5.348  -2.902   6.080  0.00  0.00    +0.151 HD
ENDROOT
BRANCH   1  12
ATOM      9  C   UNL     1       0.731  -0.503   1.223  0.00  0.00    -0.048 A 
ATOM     10  C   UNL     1       2.101  -0.688   1.181  0.00  0.00    +0.005 A 
ATOM     11  C   UNL     1       2.771  -1.146   2.299  0.00  0.00    +0.024 A 
ATOM     12  C   UNL     1       2.069  -1.420   3.464  0.00  0.00    +0.045 A 
ATOM     13  C   UNL     1       0.694  -1.233   3.503  0.00  0.00    +0.024 A 
ATOM     14  C   UNL     1       0.029  -0.770   2.384  0.00  0.00    +0.005 A 
BRANCH   9  16
ATOM     15  C   UNL     1      -0.042   1.525   0.024  0.00  0.00    +0.009 C 
ATOM     16  C   UNL     1       0.002  -0.004   0.002  0.00  0.00    +0.032 C 
ENDBRANCH   9  16
ENDBRANCH   1  12
BRANCH   4  17
ATOM     17  C   UNL     1       2.935  -3.974   7.240  0.00  0.00    +0.065 C 
BRANCH  17  18
ATOM     18  C   UNL     1       3.983  -4.401   8.235  0.00  0.00    -0.039 C 
ATOM     19  C   UNL     1       3.925  -4.279   9.581  0.00  0.00    -0.001 A 
ATOM     20  C   UNL     1       2.909  -3.731  10.486  0.00  0.00    +0.010 A 
ATOM     21  C   UNL     1       3.140  -3.746  11.819  0.00  0.00    +0.001 A 
ATOM     22  C   UNL     1       4.324  -4.271  12.355  0.00  0.00    +0.002 A 
ATOM     23  C   UNL     1       5.305  -4.791  11.587  0.00  0.00    +0.026 A 
ATOM     24  C   UNL     1       5.167  -4.827  10.172  0.00  0.00    +0.043 A 
ATOM     25  N   UNL     1       5.961  -5.271   9.228  0.00  0.00    -0.380 N 
ATOM     26  C   UNL     1       5.310  -5.060   7.931  0.00  0.00    +0.144 C 
ATOM     27  H   UNL     1       6.832  -5.675   9.366  0.00  0.00    +0.160 HD
ENDBRANCH  17  18
ENDBRANCH   4  17
TORSDOF 4
