REMARK  Name = ZINC41805871
REMARK  7 active torsions:
REMARK  status: ('A' for Active; 'I' for Inactive)
REMARK    1  A    between atoms: C_1  and  C_2
REMARK    2  A    between atoms: C_2  and  C_3
REMARK    3  A    between atoms: C_2  and  N_4
REMARK    4  A    between atoms: C_5  and  C_7
REMARK    5  A    between atoms: C_7  and  N_8
REMARK    6  A    between atoms: N_8  and  C_9
REMARK    7  A    between atoms: C_9  and  C_19
REMARK                            x       y       z     vdW  Elec       q    Type
REMARK                         _______ _______ _______ _____ _____    ______ ____
ROOT
ATOM      1  C   UNL     1      -4.503  -3.994  -1.064  0.00  0.00    +0.062 C 
ATOM      2  C   UNL     1      -4.869  -5.427  -1.443  0.00  0.00    +0.004 C 
ATOM      3  C   UNL     1      -4.234  -6.375  -0.418  0.00  0.00    +0.004 C 
ATOM      4  C   UNL     1      -4.962  -6.200   0.914  0.00  0.00    +0.035 C 
ATOM      5  C   UNL     1      -5.028  -4.744   1.294  0.00  0.00    -0.045 A 
ATOM      6  C   UNL     1      -4.821  -3.731   0.385  0.00  0.00    -0.044 A 
ATOM      7  C   UNL     1      -4.903  -2.408   0.799  0.00  0.00    +0.003 A 
ATOM      8  C   UNL     1      -5.186  -2.101   2.114  0.00  0.00    +0.000 A 
ATOM      9  C   UNL     1      -5.390  -3.118   3.028  0.00  0.00    +0.000 A 
ATOM     10  C   UNL     1      -5.311  -4.433   2.618  0.00  0.00    +0.004 A 
ENDROOT
BRANCH   1  11
ATOM     11  N   UNL     1      -3.067  -3.784  -1.290  0.00  0.00    +0.398 N 
ATOM     12  H   UNL     1      -2.538  -4.372  -0.663  0.00  0.00    -0.083 HD
ATOM     13  H   UNL     1      -2.836  -2.817  -1.119  0.00  0.00    -0.083 HD
BRANCH  11  14
ATOM     14  C   UNL     1      -2.735  -4.127  -2.679  0.00  0.00    +0.017 C 
BRANCH  14  16
ATOM     15  N   UNL     1      -0.757  -4.035  -4.162  0.00  0.00    -0.315 N 
ATOM     16  C   UNL     1      -1.287  -3.802  -2.945  0.00  0.00    +0.196 C 
ATOM     17  O   UNL     1      -0.600  -3.330  -2.064  0.00  0.00    -0.278 OA
ATOM     18  H   UNL     1      -1.306  -4.412  -4.867  0.00  0.00    +0.149 HD
BRANCH  15  20
ATOM     19  C   UNL     1       1.168  -4.593  -5.564  0.00  0.00    +0.027 C 
ATOM     20  C   UNL     1       0.650  -3.718  -4.420  0.00  0.00    +0.067 C 
ATOM     21  C   UNL     1       0.778  -2.244  -4.808  0.00  0.00    +0.027 C 
ENDBRANCH  15  20
ENDBRANCH  14  16
ENDBRANCH  11  14
ENDBRANCH   1  11
BRANCH   1  22
ATOM     22  C   UNL     1      -5.286  -3.037  -1.926  0.00  0.00    +0.350 C 
ATOM     23  O   UNL     1      -4.706  -2.173  -2.560  0.00  0.00    -0.248 OA
ATOM     24  O   UNL     1      -6.500  -3.128  -1.989  0.00  0.00    -0.248 OA
ENDBRANCH   1  22
TORSDOF 5
