REMARK  Name = ZINC12643932
REMARK  12 active torsions:
REMARK  status: ('A' for Active; 'I' for Inactive)
REMARK    1  A    between atoms: C_1  and  C_2
REMARK    2  A    between atoms: C_5  and  N_11
REMARK    3  A    between atoms: C_6  and  N_8
REMARK    4  A    between atoms: C_12  and  C_14
REMARK    5  A    between atoms: C_14  and  C_16
REMARK    6  A    between atoms: C_14  and  O_22
REMARK    7  A    between atoms: O_22  and  C_23
REMARK    8  A    between atoms: C_23  and  C_25
REMARK    9  A    between atoms: C_25  and  N_26
REMARK   10  A    between atoms: N_26  and  S_27
REMARK   11  A    between atoms: S_27  and  C_30
REMARK   12  A    between atoms: C_31  and  C_32
REMARK                            x       y       z     vdW  Elec       q    Type
REMARK                         _______ _______ _______ _____ _____    ______ ____
ROOT
ATOM      1  C   UNL     1       5.202  -0.724   4.407  0.00  0.00    +0.292 C 
ENDROOT
BRANCH   1   2
ATOM      2  C   UNL     1       4.446  -0.887   5.701  0.00  0.00    +0.002 A 
ATOM      3  C   UNL     1       3.431  -1.820   5.795  0.00  0.00    +0.008 A 
ATOM      4  C   UNL     1       2.740  -1.973   6.983  0.00  0.00    +0.000 A 
ATOM      5  C   UNL     1       3.060  -1.186   8.074  0.00  0.00    +0.000 A 
ATOM      6  C   UNL     1       4.072  -0.249   7.978  0.00  0.00    +0.000 A 
ATOM      7  C   UNL     1       4.765  -0.100   6.791  0.00  0.00    +0.008 A 
ENDBRANCH   1   2
BRANCH   1   9
ATOM      8  N   UNL     1       7.213  -1.909   5.226  0.00  0.00    -0.280 N 
ATOM      9  C   UNL     1       6.244  -1.806   4.294  0.00  0.00    +0.263 C 
ATOM     10  O   UNL     1       6.212  -2.585   3.365  0.00  0.00    -0.271 OA
ATOM     11  H   UNL     1       7.287  -1.239   5.924  0.00  0.00    +0.155 HD
BRANCH   8  16
ATOM     12  C   UNL     1      10.854  -6.256   5.066  0.00  0.00    +0.044 C 
ATOM     13  C   UNL     1       9.887  -5.101   5.109  0.00  0.00    -0.048 A 
ATOM     14  C   UNL     1       8.632  -5.231   4.542  0.00  0.00    +0.005 A 
ATOM     15  C   UNL     1       7.743  -4.175   4.580  0.00  0.00    +0.026 A 
ATOM     16  C   UNL     1       8.111  -2.981   5.187  0.00  0.00    +0.064 A 
ATOM     17  C   UNL     1       9.373  -2.852   5.751  0.00  0.00    +0.148 A 
ATOM     18  C   UNL     1      10.256  -3.914   5.715  0.00  0.00    +0.038 A 
BRANCH  17  19
ATOM     19  N   UNL     1       9.771  -1.580   6.394  0.00  0.00    +0.058 N 
ATOM     20  O   UNL     1      10.908  -1.436   6.808  0.00  0.00    -0.126 OA
ATOM     21  O   UNL     1       8.962  -0.677   6.509  0.00  0.00    -0.126 OA
ENDBRANCH  17  19
ENDBRANCH   8  16
ENDBRANCH   1   9
BRANCH   1  22
ATOM     22  O   UNL     1       4.278  -0.824   3.291  0.00  0.00    -0.446 OA
BRANCH  22  23
ATOM     23  C   UNL     1       3.710   0.315   2.866  0.00  0.00    +0.324 C 
ATOM     24  O   UNL     1       3.976   1.362   3.409  0.00  0.00    -0.249 OA
BRANCH  23  25
ATOM     25  C   UNL     1       2.741   0.290   1.713  0.00  0.00    +0.226 C 
BRANCH  25  26
ATOM     26  N   UNL     1       2.264   1.649   1.445  0.00  0.00    -0.180 NA
ATOM     27  H   UNL     1       2.403   2.350   2.101  0.00  0.00    +0.149 HD
BRANCH  26  28
ATOM     28  S   UNL     1       1.490   1.989   0.021  0.00  0.00    +0.052 S 
ATOM     29  O   UNL     1       2.295   1.449  -1.018  0.00  0.00    -0.154 OA
ATOM     30  O   UNL     1       1.133   3.364   0.071  0.00  0.00    -0.154 OA
BRANCH  28  31
ATOM     31  C   UNL     1      -0.017   1.077   0.017  0.00  0.00    +0.153 C 
ATOM     32  C   UNL     1      -1.179   1.716   0.028  0.00  0.00    +0.028 C 
BRANCH  32  33
ATOM     33  C   UNL     1      -2.443   0.951   0.018  0.00  0.00    -0.024 A 
ATOM     34  C   UNL     1      -2.418  -0.444  -0.009  0.00  0.00    +0.008 A 
ATOM     35  C   UNL     1      -3.602  -1.152  -0.012  0.00  0.00    +0.001 A 
ATOM     36  C   UNL     1      -4.812  -0.482  -0.001  0.00  0.00    +0.000 A 
ATOM     37  C   UNL     1      -4.844   0.901   0.021  0.00  0.00    +0.001 A 
ATOM     38  C   UNL     1      -3.667   1.621   0.030  0.00  0.00    +0.008 A 
ENDBRANCH  32  33
ENDBRANCH  28  31
ENDBRANCH  26  28
ENDBRANCH  25  26
ENDBRANCH  23  25
ENDBRANCH  22  23
ENDBRANCH   1  22
TORSDOF 11
