REMARK  Name = ZINC38705108
REMARK  13 active torsions:
REMARK  status: ('A' for Active; 'I' for Inactive)
REMARK    1  A    between atoms: C_1  and  C_2
REMARK    2  A    between atoms: C_4  and  C_40
REMARK    3  A    between atoms: C_5  and  C_9
REMARK    4  A    between atoms: C_6  and  O_8
REMARK    5  A    between atoms: N_17  and  C_32
REMARK    6  A    between atoms: C_18  and  C_20
REMARK    7  A    between atoms: C_22  and  O_30
REMARK    8  A    between atoms: C_23  and  O_28
REMARK    9  A    between atoms: C_24  and  O_26
REMARK   10  A    between atoms: O_26  and  C_27
REMARK   11  A    between atoms: O_28  and  C_29
REMARK   12  A    between atoms: O_30  and  C_31
REMARK   13  A    between atoms: C_32  and  C_33
REMARK                            x       y       z     vdW  Elec       q    Type
REMARK                         _______ _______ _______ _____ _____    ______ ____
ROOT
ATOM      1  C   UNL     1      -0.895  -3.947  -0.089  0.00  0.00    +0.102 A 
ATOM      2  C   UNL     1      -0.467  -4.805   0.930  0.00  0.00    +0.035 A 
ATOM      3  C   UNL     1      -0.243  -6.027   0.324  0.00  0.00    +0.126 A 
ATOM      4  N   UNL     1      -0.538  -5.854  -0.998  0.00  0.00    -0.272 N 
ATOM      5  H   UNL     1      -0.475  -6.544  -1.677  0.00  0.00    +0.189 HD
ATOM      6  N   UNL     1      -0.918  -4.644  -1.208  0.00  0.00    -0.173 NA
ATOM      7  C   UNL     1       0.211  -6.978   1.345  0.00  0.00    +0.266 C 
ATOM      8  O   UNL     1       0.492  -8.142   1.134  0.00  0.00    -0.268 OA
ATOM      9  N   UNL     1       0.271  -6.380   2.549  0.00  0.00    -0.281 N 
ATOM     10  C   UNL     1      -0.145  -4.980   2.389  0.00  0.00    +0.142 C 
ENDROOT
BRANCH   1  15
ATOM     11  C   UNL     1      -2.316   1.607   0.496  0.00  0.00    +0.044 C 
ATOM     12  C   UNL     1      -1.946   0.154   0.346  0.00  0.00    -0.047 A 
ATOM     13  C   UNL     1      -1.051  -0.231  -0.637  0.00  0.00    +0.007 A 
ATOM     14  C   UNL     1      -0.707  -1.559  -0.782  0.00  0.00    -0.037 A 
ATOM     15  C   UNL     1      -1.261  -2.517   0.063  0.00  0.00    +0.047 A 
ATOM     16  C   UNL     1      -2.165  -2.126   1.055  0.00  0.00    +0.127 A 
ATOM     17  C   UNL     1      -2.498  -0.788   1.193  0.00  0.00    +0.049 A 
ATOM     18  C   UNL     1       0.268  -1.973  -1.854  0.00  0.00    +0.044 C 
BRANCH  16  19
ATOM     19  O   UNL     1      -2.711  -3.053   1.884  0.00  0.00    -0.506 OA
ATOM     20  H   UNL     1      -2.253  -3.142   2.731  0.00  0.00    +0.292 HD
ENDBRANCH  16  19
ENDBRANCH   1  15
BRANCH  10  21
ATOM     21  C   UNL     1       0.977  -4.056   2.787  0.00  0.00    -0.015 A 
ATOM     22  C   UNL     1       2.261  -4.298   2.337  0.00  0.00    +0.055 A 
ATOM     23  C   UNL     1       3.297  -3.451   2.702  0.00  0.00    +0.165 A 
ATOM     24  C   UNL     1       3.042  -2.357   3.520  0.00  0.00    +0.204 A 
ATOM     25  C   UNL     1       1.749  -2.117   3.970  0.00  0.00    +0.165 A 
ATOM     26  C   UNL     1       0.718  -2.966   3.596  0.00  0.00    +0.055 A 
BRANCH  25  27
ATOM     27  O   UNL     1       1.494  -1.047   4.770  0.00  0.00    -0.491 OA
ATOM     28  C   UNL     1       0.142  -0.862   5.195  0.00  0.00    +0.277 C 
ENDBRANCH  25  27
BRANCH  24  29
ATOM     29  O   UNL     1       4.055  -1.523   3.880  0.00  0.00    -0.488 OA
ATOM     30  C   UNL     1       4.314  -0.409   3.024  0.00  0.00    +0.277 C 
ENDBRANCH  24  29
BRANCH  23  31
ATOM     31  O   UNL     1       4.560  -3.690   2.260  0.00  0.00    -0.491 OA
ATOM     32  C   UNL     1       4.729  -4.754   1.321  0.00  0.00    +0.277 C 
ENDBRANCH  23  31
ENDBRANCH  10  21
BRANCH   9  33
ATOM     33  C   UNL     1       0.680  -7.015   3.804  0.00  0.00    +0.144 C 
BRANCH  33  34
ATOM     34  C   UNL     1       2.182  -6.985   3.916  0.00  0.00    -0.030 A 
ATOM     35  C   UNL     1       2.941  -7.961   3.296  0.00  0.00    +0.008 A 
ATOM     36  C   UNL     1       4.319  -7.934   3.398  0.00  0.00    +0.038 A 
ATOM     37  C   UNL     1       4.939  -6.929   4.121  0.00  0.00    +0.123 A 
ATOM     38  C   UNL     1       4.179  -5.952   4.741  0.00  0.00    +0.038 A 
ATOM     39  C   UNL     1       2.801  -5.979   4.633  0.00  0.00    +0.008 A 
ATOM     40  F   UNL     1       6.286  -6.902   4.221  0.00  0.00    -0.205 F 
ENDBRANCH  33  34
ENDBRANCH   9  33
TORSDOF 8
