REMARK  Name = ZINC01924457
REMARK  4 active torsions:
REMARK  status: ('A' for Active; 'I' for Inactive)
REMARK    1  A    between atoms: C_1  and  C_2
REMARK    2  A    between atoms: C_7  and  S_15
REMARK    3  A    between atoms: S_15  and  C_16
REMARK    4  A    between atoms: C_16  and  C_17
REMARK                            x       y       z     vdW  Elec       q    Type
REMARK                         _______ _______ _______ _____ _____    ______ ____
ROOT
ATOM      1  S   UNL     1       3.936  -4.843   6.216  0.00  0.00    -0.076 S 
ENDROOT
BRANCH   1   8
ATOM      2  C   UNL     1       6.288  -9.691  10.758  0.00  0.00    +0.044 C 
ATOM      3  C   UNL     1       5.682  -8.770   9.730  0.00  0.00    -0.038 A 
ATOM      4  C   UNL     1       4.694  -9.207   8.917  0.00  0.00    +0.052 A 
ATOM      5  C   UNL     1       4.129  -8.343   7.949  0.00  0.00    +0.162 A 
ATOM      6  N   UNL     1       3.185  -8.519   7.043  0.00  0.00    -0.129 NA
ATOM      7  N   UNL     1       3.007  -7.430   6.382  0.00  0.00    -0.122 NA
ATOM      8  C   UNL     1       3.821  -6.495   6.819  0.00  0.00    +0.197 A 
ATOM      9  N   UNL     1       4.563  -7.043   7.824  0.00  0.00    -0.270 N 
ATOM     10  C   UNL     1       5.566  -6.548   8.640  0.00  0.00    +0.058 A 
ATOM     11  C   UNL     1       6.149  -7.386   9.607  0.00  0.00    +0.002 A 
ATOM     12  C   UNL     1       7.162  -6.893  10.434  0.00  0.00    +0.010 A 
ATOM     13  C   UNL     1       7.582  -5.588  10.295  0.00  0.00    +0.001 A 
ATOM     14  C   UNL     1       7.005  -4.764   9.341  0.00  0.00    +0.002 A 
ATOM     15  C   UNL     1       6.003  -5.236   8.517  0.00  0.00    +0.027 A 
ENDBRANCH   1   8
BRANCH   1  16
ATOM     16  C   UNL     1       2.672  -4.893   4.921  0.00  0.00    +0.173 C 
BRANCH  16  17
ATOM     17  C   UNL     1       2.590  -3.548   4.247  0.00  0.00    +0.229 C 
ATOM     18  O   UNL     1       3.316  -2.644   4.606  0.00  0.00    -0.275 OA
ATOM     19  N   UNL     1       1.711  -3.349   3.245  0.00  0.00    -0.264 N 
ATOM     20  C   UNL     1       1.636  -2.108   2.623  0.00  0.00    +0.165 A 
ATOM     21  N   UNL     1       0.852  -1.722   1.637  0.00  0.00    -0.229 NA
ATOM     22  C   UNL     1       0.893  -0.488   1.140  0.00  0.00    +0.054 A 
ATOM     23  C   UNL     1       1.795   0.353   1.709  0.00  0.00    +0.014 A 
ATOM     24  S   UNL     1       2.553  -0.666   2.945  0.00  0.00    -0.057 S 
ATOM     25  C   UNL     1       2.063   1.778   1.361  0.00  0.00    +0.044 C 
ATOM     26  C   UNL     1       1.412   2.071  -0.000  0.00  0.00    +0.006 C 
ATOM     27  C   UNL     1      -0.019   1.525   0.010  0.00  0.00    +0.006 C 
ATOM     28  C   UNL     1       0.002  -0.004   0.002  0.00  0.00    +0.056 C 
ATOM     29  H   UNL     1       1.131  -4.071   2.958  0.00  0.00    +0.157 HD
ENDBRANCH  16  17
ENDBRANCH   1  16
TORSDOF 3
