REMARK  Name = ZINC21279800
REMARK  8 active torsions:
REMARK  status: ('A' for Active; 'I' for Inactive)
REMARK    1  A    between atoms: C_1  and  C_2
REMARK    2  A    between atoms: C_2  and  C_4
REMARK    3  A    between atoms: C_2  and  N_11
REMARK    4  A    between atoms: C_12  and  C_14
REMARK    5  A    between atoms: C_14  and  N_15
REMARK    6  A    between atoms: C_18  and  C_22
REMARK    7  A    between atoms: C_18  and  C_23
REMARK    8  A    between atoms: C_26  and  C_29
REMARK                            x       y       z     vdW  Elec       q    Type
REMARK                         _______ _______ _______ _____ _____    ______ ____
ROOT
ATOM      1  N   UNL     1       0.392  -0.183   0.880  0.00  0.00    -0.215 N 
ATOM      2  C   UNL     1       0.643  -0.803   2.050  0.00  0.00    +0.251 C 
ATOM      3  O   UNL     1       0.783  -0.286   3.137  0.00  0.00    -0.272 OA
ATOM      4  C   UNL     1       0.714  -2.281   1.722  0.00  0.00    +0.135 C 
ATOM      5  N   UNL     1       0.472  -2.327   0.270  0.00  0.00    -0.281 N 
ATOM      6  C   UNL     1       0.290  -1.055  -0.130  0.00  0.00    +0.310 C 
ATOM      7  O   UNL     1       0.063  -0.734  -1.280  0.00  0.00    -0.252 OA
ATOM      8  C   UNL     1      -0.373  -3.052   2.474  0.00  0.00    +0.047 C 
ATOM      9  H   UNL     1       0.470  -3.292  -0.257  0.00  0.00    +0.152 HD
ENDROOT
BRANCH   4  10
ATOM     10  C   UNL     1       2.079  -2.832   2.050  0.00  0.00    -0.015 A 
ATOM     11  C   UNL     1       2.819  -2.271   3.075  0.00  0.00    +0.007 A 
ATOM     12  C   UNL     1       4.067  -2.772   3.384  0.00  0.00    +0.019 A 
ATOM     13  C   UNL     1       4.586  -3.841   2.651  0.00  0.00    +0.052 A 
ATOM     14  C   UNL     1       3.836  -4.399   1.614  0.00  0.00    +0.019 A 
ATOM     15  C   UNL     1       2.587  -3.891   1.320  0.00  0.00    +0.007 A 
BRANCH  13  16
ATOM     16  C   UNL     1       5.883  -4.363   2.962  0.00  0.00    +0.099 C 
ATOM     17  N   UNL     1       6.912  -4.777   3.208  0.00  0.00    -0.191 NA
ENDBRANCH  13  16
ENDBRANCH   4  10
BRANCH   1  18
ATOM     18  C   UNL     1       0.241   1.267   0.733  0.00  0.00    +0.213 C 
BRANCH  18  20
ATOM     19  N   UNL     1       1.692   3.217   0.272  0.00  0.00    -0.307 N 
ATOM     20  C   UNL     1       1.586   1.885   0.446  0.00  0.00    +0.231 C 
ATOM     21  O   UNL     1       2.572   1.183   0.372  0.00  0.00    -0.274 OA
ATOM     22  H   UNL     1       0.797   3.854   0.339  0.00  0.00    +0.149 HD
BRANCH  19  24
ATOM     23  C   UNL     1       3.258   3.798  -1.514  0.00  0.00    +0.033 C 
ATOM     24  C   UNL     1       2.999   3.818  -0.006  0.00  0.00    +0.102 C 
BRANCH  24  25
ATOM     25  C   UNL     1       3.013   5.242   0.487  0.00  0.00    -0.009 A 
ATOM     26  C   UNL     1       1.833   5.957   0.566  0.00  0.00    +0.007 A 
ATOM     27  C   UNL     1       1.845   7.264   1.018  0.00  0.00    +0.000 A 
ATOM     28  C   UNL     1       3.038   7.855   1.393  0.00  0.00    +0.001 A 
ATOM     29  C   UNL     1       4.218   7.140   1.315  0.00  0.00    +0.020 A 
ATOM     30  C   UNL     1       4.205   5.831   0.867  0.00  0.00    +0.046 A 
ATOM     31 CL   UNL     1       5.686   4.930   0.776  0.00  0.00    -0.083 Cl
ENDBRANCH  24  25
ENDBRANCH  19  24
ENDBRANCH  18  20
ENDBRANCH   1  18
TORSDOF 6
