REMARK  Name = ZINC39659855
REMARK  6 active torsions:
REMARK  status: ('A' for Active; 'I' for Inactive)
REMARK    1  A    between atoms: C_1  and  C_2
REMARK    2  A    between atoms: C_2  and  C_3
REMARK    3  A    between atoms: C_3  and  C_5
REMARK    4  A    between atoms: C_3  and  C_11
REMARK    5  A    between atoms: C_15  and  C_24
REMARK    6  A    between atoms: N_26  and  C_27
REMARK                            x       y       z     vdW  Elec       q    Type
REMARK                         _______ _______ _______ _____ _____    ______ ____
ROOT
ATOM      1  C   UNL     1       0.818  -1.741   1.015  0.00  0.00    +0.223 C 
ATOM      2  O   UNL     1       0.270  -2.350   1.908  0.00  0.00    -0.275 OA
ATOM      3  N   UNL     1       1.486  -2.410   0.054  0.00  0.00    -0.300 N 
ATOM      4  C   UNL     1       2.217  -1.846  -1.105  0.00  0.00    +0.121 C 
ATOM      5  C   UNL     1       3.483  -2.723  -1.232  0.00  0.00    +0.100 C 
ATOM      6  C   UNL     1       3.106  -4.055  -0.562  0.00  0.00    -0.004 C 
ATOM      7  C   UNL     1       1.659  -3.877  -0.079  0.00  0.00    +0.115 C 
ATOM      8  C   UNL     1       4.022  -4.326   0.628  0.00  0.00    -0.010 C 
ATOM      9  C   UNL     1       3.665  -5.682   1.243  0.00  0.00    -0.082 C 
ATOM     10  N   UNL     1       3.818  -6.735   0.232  0.00  0.00    +0.379 N 
ATOM     11  C   UNL     1       2.868  -6.518  -0.865  0.00  0.00    -0.082 C 
ATOM     12  C   UNL     1       3.191  -5.197  -1.569  0.00  0.00    -0.010 C 
ATOM     13  H   UNL     1       4.759  -6.716  -0.131  0.00  0.00    -0.086 HD
ATOM     14  H   UNL     1       3.642  -7.634   0.655  0.00  0.00    -0.086 HD
ENDROOT
BRANCH   5  15
ATOM     15  C   UNL     1       4.641  -2.081  -0.514  0.00  0.00    +0.218 C 
ATOM     16  O   UNL     1       4.441  -1.383   0.457  0.00  0.00    -0.275 OA
ATOM     17  N   UNL     1       5.900  -2.283  -0.951  0.00  0.00    -0.312 N 
ATOM     18  H   UNL     1       6.061  -2.841  -1.728  0.00  0.00    +0.149 HD
BRANCH  17  19
ATOM     19  C   UNL     1       7.027  -1.658  -0.253  0.00  0.00    +0.073 C 
ATOM     20  C   UNL     1       7.228  -0.236  -0.780  0.00  0.00    +0.022 C 
ATOM     21  C   UNL     1       8.114   0.547   0.191  0.00  0.00    +0.002 C 
ATOM     22  C   UNL     1       7.663   0.274   1.627  0.00  0.00    +0.000 C 
ATOM     23  C   UNL     1       8.752  -0.506   2.365  0.00  0.00    +0.000 C 
ATOM     24  C   UNL     1       8.730  -1.966   1.910  0.00  0.00    +0.000 C 
ATOM     25  C   UNL     1       9.364  -2.078   0.522  0.00  0.00    +0.002 C 
ATOM     26  C   UNL     1       8.296  -2.477  -0.497  0.00  0.00    +0.022 C 
ENDBRANCH  17  19
ENDBRANCH   5  15
BRANCH   1  27
ATOM     27  C   UNL     1       0.753  -0.236   0.978  0.00  0.00    +0.105 C 
BRANCH  27  28
ATOM     28  C   UNL     1      -0.046   0.261   2.155  0.00  0.00    -0.036 A 
ATOM     29  C   UNL     1      -1.362  -0.131   2.313  0.00  0.00    +0.004 A 
ATOM     30  C   UNL     1      -2.095   0.324   3.393  0.00  0.00    +0.000 A 
ATOM     31  C   UNL     1      -1.512   1.172   4.316  0.00  0.00    +0.000 A 
ATOM     32  C   UNL     1      -0.195   1.563   4.159  0.00  0.00    +0.000 A 
ATOM     33  C   UNL     1       0.539   1.104   3.081  0.00  0.00    +0.004 A 
ENDBRANCH  27  28
BRANCH  27  35
ATOM     34  C   UNL     1       0.126   1.741  -0.416  0.00  0.00    +0.005 C 
ATOM     35  C   UNL     1       0.081   0.214  -0.321  0.00  0.00    +0.014 C 
ENDBRANCH  27  35
ENDBRANCH   1  27
TORSDOF 5
