REMARK  Name = ZINC00984994
REMARK  7 active torsions:
REMARK  status: ('A' for Active; 'I' for Inactive)
REMARK    1  A    between atoms: C_1  and  C_2
REMARK    2  A    between atoms: C_7  and  C_8
REMARK    3  A    between atoms: C_10  and  C_25
REMARK    4  A    between atoms: C_10  and  C_26
REMARK    5  A    between atoms: N_15  and  C_17
REMARK    6  A    between atoms: C_22  and  O_23
REMARK    7  A    between atoms: O_23  and  C_24
REMARK                            x       y       z     vdW  Elec       q    Type
REMARK                         _______ _______ _______ _____ _____    ______ ____
ROOT
ATOM      1  C   UNL     1      -2.305  -2.936  -0.612  0.00  0.00    +0.044 C 
ATOM      2  C   UNL     1      -1.066  -2.122  -0.339  0.00  0.00    -0.047 A 
ATOM      3  C   UNL     1      -1.142  -0.740  -0.298  0.00  0.00    +0.014 A 
ATOM      4  C   UNL     1       0.001  -0.003  -0.044  0.00  0.00    +0.007 A 
ATOM      5  C   UNL     1       1.229  -0.641   0.189  0.00  0.00    +0.036 A 
ATOM      6  C   UNL     1       1.289  -2.026   0.134  0.00  0.00    +0.027 A 
ATOM      7  C   UNL     1       0.145  -2.756  -0.128  0.00  0.00    -0.046 A 
ATOM      8  C   UNL     1       0.218  -4.260  -0.186  0.00  0.00    +0.044 C 
ATOM      9  N   UNL     1       2.373   0.104   0.488  0.00  0.00    -0.334 N 
ATOM     10  C   UNL     1       2.531   1.478  -0.018  0.00  0.00    +0.060 C 
ATOM     11  C   UNL     1       1.196   2.150   0.015  0.00  0.00    +0.040 A 
ATOM     12  C   UNL     1      -0.018   1.490  -0.010  0.00  0.00    +0.029 A 
ATOM     13  C   UNL     1      -1.134   2.323   0.004  0.00  0.00    +0.107 A 
ATOM     14  S   UNL     1      -2.717   1.675  -0.048  0.00  0.00    -0.031 S 
ATOM     15  N   UNL     1      -0.931   3.657   0.060  0.00  0.00    -0.269 N 
ATOM     16  S   UNL     1       0.773   3.809   0.081  0.00  0.00    -0.007 S 
ATOM     17  C   UNL     1       3.515   2.244   0.869  0.00  0.00    +0.037 C 
ATOM     18  C   UNL     1       3.053   1.440  -1.455  0.00  0.00    +0.037 C 
ATOM     19  H   UNL     1       3.070  -0.287   1.037  0.00  0.00    +0.147 HD
ENDROOT
BRANCH  15  20
ATOM     20  C   UNL     1      -1.889   4.676   0.094  0.00  0.00    +0.096 A 
ATOM     21  C   UNL     1      -2.934   4.678  -0.820  0.00  0.00    +0.030 A 
ATOM     22  C   UNL     1      -3.882   5.683  -0.781  0.00  0.00    +0.002 A 
ATOM     23  C   UNL     1      -3.788   6.693   0.159  0.00  0.00    +0.004 A 
ATOM     24  C   UNL     1      -2.747   6.700   1.069  0.00  0.00    +0.048 A 
ATOM     25  C   UNL     1      -1.795   5.694   1.041  0.00  0.00    +0.144 A 
BRANCH  25  26
ATOM     26  O   UNL     1      -0.770   5.700   1.935  0.00  0.00    -0.493 OA
ATOM     27  C   UNL     1      -0.737   6.774   2.876  0.00  0.00    +0.277 C 
ENDBRANCH  25  26
ENDBRANCH  15  20
TORSDOF 2
