REMARK  Name = ZINC33788188
REMARK  13 active torsions:
REMARK  status: ('A' for Active; 'I' for Inactive)
REMARK    1  A    between atoms: C_1  and  C_2
REMARK    2  A    between atoms: C_2  and  C_3
REMARK    3  A    between atoms: C_3  and  C_4
REMARK    4  A    between atoms: C_4  and  C_5
REMARK    5  A    between atoms: C_5  and  C_6
REMARK    6  A    between atoms: C_6  and  N_7
REMARK    7  A    between atoms: N_7  and  C_8
REMARK    8  A    between atoms: C_8  and  C_10
REMARK    9  A    between atoms: C_8  and  C_12
REMARK   10  A    between atoms: C_10  and  C_11
REMARK   11  A    between atoms: N_22  and  C_23
REMARK   12  A    between atoms: N_32  and  C_33
REMARK   13  A    between atoms: C_38  and  C_39
REMARK                            x       y       z     vdW  Elec       q    Type
REMARK                         _______ _______ _______ _____ _____    ______ ____
ROOT
ATOM      1  C   UNL     1       0.008   1.241   0.001  0.00  0.00    +0.144 C 
ENDROOT
BRANCH   1   2
ATOM      2  C   UNL     1      -0.450   1.816   1.316  0.00  0.00    +0.138 A 
ATOM      3  N   UNL     1      -0.320   3.093   1.509  0.00  0.00    -0.231 NA
ATOM      4  C   UNL     1      -0.710   3.681   2.668  0.00  0.00    +0.078 A 
ATOM      5  C   UNL     1      -0.570   5.055   2.876  0.00  0.00    +0.028 A 
ATOM      6  C   UNL     1      -0.980   5.609   4.067  0.00  0.00    +0.002 A 
ATOM      7  C   UNL     1      -1.533   4.819   5.067  0.00  0.00    +0.001 A 
ATOM      8  C   UNL     1      -1.681   3.462   4.886  0.00  0.00    +0.015 A 
ATOM      9  C   UNL     1      -1.272   2.880   3.687  0.00  0.00    +0.065 A 
ATOM     10  C   UNL     1      -1.407   1.438   3.437  0.00  0.00    +0.266 A 
ATOM     11  O   UNL     1      -1.883   0.693   4.274  0.00  0.00    -0.267 OA
ATOM     12  N   UNL     1      -0.985   0.971   2.239  0.00  0.00    -0.263 N 
BRANCH  12  13
ATOM     13  C   UNL     1      -1.095  -0.395   1.948  0.00  0.00    +0.051 A 
ATOM     14  C   UNL     1      -2.348  -0.979   1.813  0.00  0.00    +0.029 A 
ATOM     15  C   UNL     1      -2.454  -2.324   1.522  0.00  0.00    +0.040 A 
ATOM     16  C   UNL     1      -1.312  -3.094   1.375  0.00  0.00    +0.124 A 
ATOM     17  C   UNL     1      -0.062  -2.515   1.514  0.00  0.00    +0.040 A 
ATOM     18  C   UNL     1       0.049  -1.169   1.800  0.00  0.00    +0.029 A 
ATOM     19  F   UNL     1      -1.418  -4.412   1.096  0.00  0.00    -0.205 F 
ENDBRANCH  12  13
ENDBRANCH   1   2
BRANCH   1  20
ATOM     20  N   UNL     1      -0.830   1.767  -1.080  0.00  0.00    -0.275 N 
ATOM     21  C   UNL     1      -1.546   0.923  -1.849  0.00  0.00    +0.307 C 
ATOM     22  O   UNL     1      -1.498  -0.275  -1.645  0.00  0.00    -0.252 OA
ATOM     23  N   UNL     1      -2.317   1.406  -2.843  0.00  0.00    -0.269 N 
ATOM     24  H   UNL     1      -2.429   2.493  -2.973  0.00  0.00    +0.156 HD
BRANCH  23  25
ATOM     25  C   UNL     1      -2.975   0.526  -3.710  0.00  0.00    +0.038 A 
ATOM     26  C   UNL     1      -2.482  -0.758  -3.903  0.00  0.00    +0.023 A 
ATOM     27  C   UNL     1      -3.136  -1.626  -4.756  0.00  0.00    +0.002 A 
ATOM     28  C   UNL     1      -4.274  -1.214  -5.425  0.00  0.00    +0.000 A 
ATOM     29  C   UNL     1      -4.764   0.066  -5.238  0.00  0.00    +0.005 A 
ATOM     30  C   UNL     1      -4.117   0.937  -4.383  0.00  0.00    -0.029 A 
ATOM     31  C   UNL     1      -4.652   2.332  -4.181  0.00  0.00    +0.045 C 
ENDBRANCH  23  25
BRANCH  20  32
ATOM     32  C   UNL     1      -0.888   3.210  -1.326  0.00  0.00    +0.110 C 
BRANCH  32  33
ATOM     33  C   UNL     1       0.202   3.602  -2.326  0.00  0.00    +0.019 C 
BRANCH  33  34
ATOM     34  C   UNL     1       0.141   5.109  -2.582  0.00  0.00    +0.002 C 
BRANCH  34  35
ATOM     35  C   UNL     1       1.231   5.500  -3.582  0.00  0.00    -0.000 C 
BRANCH  35  37
ATOM     36  C   UNL     1       2.259   7.399  -4.838  0.00  0.00    +0.004 C 
ATOM     37  C   UNL     1       1.169   7.007  -3.839  0.00  0.00    -0.003 C 
ENDBRANCH  35  37
ENDBRANCH  34  35
ENDBRANCH  33  34
ENDBRANCH  32  33
ENDBRANCH  20  32
ENDBRANCH   1  20
BRANCH   1  38
ATOM     38  C   UNL     1       1.466   1.633  -0.247  0.00  0.00    +0.027 C 
ATOM     39  C   UNL     1       1.961   0.969  -1.533  0.00  0.00    +0.006 C 
ENDBRANCH   1  38
TORSDOF 10
