REMARK  Name = ZINC34912328
REMARK  8 active torsions:
REMARK  status: ('A' for Active; 'I' for Inactive)
REMARK    1  A    between atoms: C_1  and  C_2
REMARK    2  A    between atoms: C_2  and  C_3
REMARK    3  A    between atoms: C_2  and  C_4
REMARK    4  A    between atoms: C_2  and  C_5
REMARK    5  A    between atoms: C_8  and  C_11
REMARK    6  A    between atoms: C_16  and  N_19
REMARK    7  A    between atoms: C_22  and  C_25
REMARK    8  A    between atoms: N_27  and  C_28
REMARK                            x       y       z     vdW  Elec       q    Type
REMARK                         _______ _______ _______ _____ _____    ______ ____
ROOT
ATOM      1  N   UNL     1       7.014   0.942  -6.349  0.00  0.00    +0.382 N 
ATOM      2  C   UNL     1       7.824   0.451  -7.471  0.00  0.00    -0.078 C 
ATOM      3  C   UNL     1       8.491   1.632  -8.179  0.00  0.00    -0.006 C 
ATOM      4  C   UNL     1       9.389   2.375  -7.185  0.00  0.00    +0.071 C 
ATOM      5  C   UNL     1       8.548   2.818  -5.985  0.00  0.00    -0.006 C 
ATOM      6  C   UNL     1       7.879   1.593  -5.358  0.00  0.00    -0.078 C 
ATOM      7  H   UNL     1       6.337   1.607  -6.692  0.00  0.00    -0.081 HD
ENDROOT
BRANCH   1  13
ATOM      8  C   UNL     1       2.696  -1.860  -4.732  0.00  0.00    +0.247 C 
ATOM      9  O   UNL     1       2.099  -1.381  -3.788  0.00  0.00    -0.270 OA
ATOM     10  N   UNL     1       4.008  -1.604  -4.901  0.00  0.00    -0.298 N 
ATOM     11  C   UNL     1       4.762  -0.858  -3.883  0.00  0.00    +0.106 C 
ATOM     12  C   UNL     1       5.462   0.326  -4.558  0.00  0.00    +0.004 C 
ATOM     13  C   UNL     1       6.314  -0.186  -5.721  0.00  0.00    -0.066 C 
ATOM     14  C   UNL     1       5.414  -0.867  -6.754  0.00  0.00    +0.004 C 
ATOM     15  C   UNL     1       4.714  -2.069  -6.103  0.00  0.00    +0.106 C 
BRANCH   8  19
ATOM     16  C   UNL     1       0.646  -4.345  -7.501  0.00  0.00    -0.042 A 
ATOM     17  C   UNL     1       0.036  -3.200  -7.021  0.00  0.00    +0.005 A 
ATOM     18  C   UNL     1       0.696  -2.389  -6.122  0.00  0.00    +0.013 A 
ATOM     19  C   UNL     1       1.982  -2.725  -5.696  0.00  0.00    +0.037 A 
ATOM     20  C   UNL     1       2.592  -3.882  -6.184  0.00  0.00    +0.013 A 
ATOM     21  C   UNL     1       1.918  -4.688  -7.079  0.00  0.00    +0.005 A 
BRANCH  16  23
ATOM     22  C   UNL     1      -0.252  -6.625  -7.885  0.00  0.00    +0.015 C 
ATOM     23  C   UNL     1      -0.081  -5.227  -8.483  0.00  0.00    -0.013 C 
ATOM     24  C   UNL     1       0.727  -5.322  -9.779  0.00  0.00    +0.015 C 
ATOM     25  C   UNL     1      -1.457  -4.629  -8.784  0.00  0.00    +0.015 C 
ENDBRANCH  16  23
ENDBRANCH   8  19
ENDBRANCH   1  13
BRANCH   4  26
ATOM     26  C   UNL     1       9.988   3.585  -7.855  0.00  0.00    +0.216 C 
ATOM     27  O   UNL     1       9.724   3.830  -9.013  0.00  0.00    -0.276 OA
ATOM     28  N   UNL     1      10.817   4.394  -7.167  0.00  0.00    -0.308 N 
ATOM     29  H   UNL     1      11.029   4.198  -6.241  0.00  0.00    +0.149 HD
BRANCH  28  30
ATOM     30  C   UNL     1      11.400   5.571  -7.818  0.00  0.00    +0.103 C 
ATOM     31  C   UNL     1      12.712   5.932  -7.124  0.00  0.00    +0.027 C 
ATOM     32  C   UNL     1      13.192   7.282  -7.671  0.00  0.00    +0.007 C 
ATOM     33  C   UNL     1      12.250   8.370  -7.161  0.00  0.00    +0.035 C 
ATOM     34  C   UNL     1      10.816   8.003  -7.440  0.00  0.00    -0.042 A 
ATOM     35  C   UNL     1      10.425   6.716  -7.737  0.00  0.00    -0.024 A 
ATOM     36  C   UNL     1       9.085   6.444  -7.977  0.00  0.00    +0.006 A 
ATOM     37  C   UNL     1       8.144   7.451  -7.923  0.00  0.00    +0.000 A 
ATOM     38  C   UNL     1       8.537   8.743  -7.628  0.00  0.00    +0.000 A 
ATOM     39  C   UNL     1       9.867   9.015  -7.389  0.00  0.00    +0.004 A 
ENDBRANCH  28  30
ENDBRANCH   4  26
TORSDOF 5
