REMARK  Name = ZINC12880179
REMARK  8 active torsions:
REMARK  status: ('A' for Active; 'I' for Inactive)
REMARK    1  A    between atoms: C_1  and  C_2
REMARK    2  A    between atoms: C_4  and  C_32
REMARK    3  A    between atoms: C_6  and  N_8
REMARK    4  A    between atoms: N_8  and  C_9
REMARK    5  A    between atoms: C_9  and  C_10
REMARK    6  A    between atoms: N_12  and  C_13
REMARK    7  A    between atoms: C_18  and  C_20
REMARK    8  A    between atoms: C_20  and  C_31
REMARK                            x       y       z     vdW  Elec       q    Type
REMARK                         _______ _______ _______ _____ _____    ______ ____
ROOT
ATOM      1  N   UNL     1       0.556  -2.757   2.470  0.00  0.00    -0.261 N 
ATOM      2  C   UNL     1       0.053  -2.195   3.587  0.00  0.00    +0.244 C 
ATOM      3  O   UNL     1      -0.254  -1.022   3.589  0.00  0.00    -0.273 OA
ENDROOT
BRANCH   2   4
ATOM      4  C   UNL     1      -0.129  -3.025   4.832  0.00  0.00    +0.122 C 
ATOM      5  C   UNL     1       1.238  -3.299   5.472  0.00  0.00    +0.133 C 
ATOM      6  C   UNL     1       1.054  -4.329   6.561  0.00  0.00    +0.240 C 
ATOM      7  O   UNL     1       1.732  -4.274   7.569  0.00  0.00    -0.274 OA
ATOM      8  N   UNL     1       0.158  -5.288   6.418  0.00  0.00    -0.165 NA
ATOM      9  C   UNL     1      -0.613  -5.373   5.327  0.00  0.00    +0.119 C 
ATOM     10  N   UNL     1      -0.747  -4.310   4.482  0.00  0.00    -0.279 N 
ATOM     11  C   UNL     1      -1.455  -4.427   3.333  0.00  0.00    +0.077 C 
ATOM     12  C   UNL     1      -2.119  -5.572   3.042  0.00  0.00    +0.015 C 
ATOM     13  C   UNL     1      -2.064  -6.656   3.925  0.00  0.00    +0.004 C 
ATOM     14  C   UNL     1      -1.315  -6.558   5.063  0.00  0.00    +0.041 C 
ATOM     15  C   UNL     1      -1.024  -2.276   5.821  0.00  0.00    +0.042 C 
ENDBRANCH   2   4
BRANCH   1  21
ATOM     16  C   UNL     1      -0.670   1.270  -0.070  0.00  0.00    +0.044 C 
ATOM     17  C   UNL     1       0.001  -0.077   0.015  0.00  0.00    -0.048 A 
ATOM     18  C   UNL     1       0.648  -0.597  -1.091  0.00  0.00    +0.006 A 
ATOM     19  C   UNL     1       1.265  -1.832  -1.018  0.00  0.00    -0.048 A 
ATOM     20  C   UNL     1       1.237  -2.551   0.162  0.00  0.00    +0.027 A 
ATOM     21  C   UNL     1       0.587  -2.032   1.274  0.00  0.00    +0.037 A 
ATOM     22  C   UNL     1      -0.027  -0.788   1.198  0.00  0.00    +0.027 A 
ATOM     23  C   UNL     1       1.969  -2.395  -2.225  0.00  0.00    +0.044 C 
ENDBRANCH   1  21
BRANCH   1  24
ATOM     24  C   UNL     1       1.070  -4.129   2.508  0.00  0.00    +0.209 C 
BRANCH  24  25
ATOM     25  C   UNL     1       2.558  -4.101   2.750  0.00  0.00    +0.231 C 
ATOM     26  O   UNL     1       3.131  -3.040   2.878  0.00  0.00    -0.274 OA
ATOM     27  N   UNL     1       3.250  -5.255   2.825  0.00  0.00    -0.311 N 
ATOM     28  H   UNL     1       2.791  -6.103   2.722  0.00  0.00    +0.149 HD
BRANCH  27  29
ATOM     29  C   UNL     1       4.696  -5.228   3.060  0.00  0.00    +0.073 C 
ATOM     30  C   UNL     1       5.448  -5.116   1.718  0.00  0.00    +0.022 C 
ATOM     31  C   UNL     1       6.705  -6.000   1.912  0.00  0.00    +0.002 C 
ATOM     32  C   UNL     1       6.160  -7.191   2.739  0.00  0.00    +0.002 C 
ATOM     33  C   UNL     1       5.149  -6.547   3.709  0.00  0.00    +0.022 C 
ENDBRANCH  27  29
ENDBRANCH  24  25
ENDBRANCH   1  24
TORSDOF 5
