REMARK  Name = ZINC13815401
REMARK  11 active torsions:
REMARK  status: ('A' for Active; 'I' for Inactive)
REMARK    1  A    between atoms: C_1  and  C_2
REMARK    2  A    between atoms: C_2  and  O_3
REMARK    3  A    between atoms: O_3  and  C_4
REMARK    4  A    between atoms: C_9  and  C_10
REMARK    5  A    between atoms: C_18  and  O_38
REMARK    6  A    between atoms: C_21  and  C_22
REMARK    7  A    between atoms: C_21  and  N_75
REMARK    8  A    between atoms: N_24  and  C_25
REMARK    9  A    between atoms: C_26  and  C_34
REMARK   10  A    between atoms: C_34  and  O_36
REMARK   11  A    between atoms: O_36  and  C_37
REMARK                            x       y       z     vdW  Elec       q    Type
REMARK                         _______ _______ _______ _____ _____    ______ ____
ROOT
ATOM      1  C   UNL     1       6.138   8.845  -1.610  0.00  0.00    -0.028 C 
ATOM      2  C   UNL     1       5.509  10.145  -2.114  0.00  0.00    +0.011 C 
ATOM      3  C   UNL     1       6.604  11.131  -2.522  0.00  0.00    +0.005 C 
ATOM      4  C   UNL     1       5.957  12.423  -3.029  0.00  0.00    +0.000 C 
ATOM      5  C   UNL     1       5.099  13.037  -1.923  0.00  0.00    +0.003 C 
ATOM      6  C   UNL     1       4.009  12.045  -1.506  0.00  0.00    +0.035 C 
ATOM      7  C   UNL     1       4.665  10.762  -0.995  0.00  0.00    +0.066 C 
ATOM      8  C   UNL     1       3.591   9.760  -0.569  0.00  0.00    +0.016 C 
ATOM      9  C   UNL     1       4.267   8.464  -0.112  0.00  0.00    -0.075 C 
ATOM     10  N   UNL     1       5.056   7.909  -1.234  0.00  0.00    +0.390 N 
ATOM     11  H   UNL     1       4.436   7.774  -2.041  0.00  0.00    -0.080 HD
ENDROOT
BRANCH   1  17
ATOM     12  C   UNL     1       8.393   8.948  -0.519  0.00  0.00    +0.122 A 
ATOM     13  C   UNL     1       9.205   9.225   0.571  0.00  0.00    +0.046 A 
ATOM     14  C   UNL     1       8.646   9.680   1.750  0.00  0.00    +0.004 A 
ATOM     15  C   UNL     1       7.278   9.864   1.841  0.00  0.00    +0.000 A 
ATOM     16  C   UNL     1       6.468   9.594   0.755  0.00  0.00    +0.005 A 
ATOM     17  C   UNL     1       7.022   9.139  -0.426  0.00  0.00    -0.019 A 
BRANCH  12  18
ATOM     18  O   UNL     1       8.940   8.496  -1.678  0.00  0.00    -0.492 OA
BRANCH  18  20
ATOM     19  C   UNL     1      10.787   7.810  -3.078  0.00  0.00    +0.048 C 
ATOM     20  C   UNL     1      10.358   8.322  -1.701  0.00  0.00    +0.225 C 
ENDBRANCH  18  20
ENDBRANCH  12  18
ENDBRANCH   1  17
BRANCH   7  21
ATOM     21  O   UNL     1       5.503  11.067   0.122  0.00  0.00    -0.388 OA
ATOM     22  H   UNL     1       5.054  11.546   0.832  0.00  0.00    +0.210 HD
ENDBRANCH   7  21
BRANCH  10  23
ATOM     23  C   UNL     1       5.630   6.604  -0.847  0.00  0.00    +0.020 C 
BRANCH  23  24
ATOM     24  C   UNL     1       4.510   5.608  -0.692  0.00  0.00    +0.201 C 
ATOM     25  O   UNL     1       3.361   5.956  -0.866  0.00  0.00    -0.278 OA
ATOM     26  N   UNL     1       4.784   4.331  -0.361  0.00  0.00    -0.281 N 
ATOM     27  H   UNL     1       5.703   4.053  -0.222  0.00  0.00    +0.155 HD
BRANCH  26  28
ATOM     28  C   UNL     1       3.753   3.415  -0.218  0.00  0.00    +0.086 A 
ATOM     29  C   UNL     1       3.835   2.069   0.115  0.00  0.00    +0.091 A 
ATOM     30  C   UNL     1       2.590   1.323   0.200  0.00  0.00    -0.021 A 
ATOM     31  C   UNL     1       1.473   2.035  -0.060  0.00  0.00    -0.004 A 
ATOM     32  S   UNL     1       2.051   3.671  -0.412  0.00  0.00    -0.077 S 
ATOM     33  C   UNL     1       0.061   1.537  -0.048  0.00  0.00    +0.043 C 
ATOM     34  C   UNL     1       0.090   0.002  -0.063  0.00  0.00    +0.005 C 
ATOM     35  C   UNL     1       1.085  -0.483   0.996  0.00  0.00    +0.005 C 
ATOM     36  C   UNL     1       2.513  -0.157   0.555  0.00  0.00    +0.037 C 
BRANCH  29  37
ATOM     37  C   UNL     1       5.125   1.427   0.371  0.00  0.00    +0.342 C 
ATOM     38  O   UNL     1       5.740   0.911  -0.544  0.00  0.00    -0.245 OA
BRANCH  37  39
ATOM     39  O   UNL     1       5.632   1.406   1.620  0.00  0.00    -0.464 OA
ATOM     40  C   UNL     1       6.916   0.752   1.800  0.00  0.00    +0.280 C 
ENDBRANCH  37  39
ENDBRANCH  29  37
ENDBRANCH  26  28
ENDBRANCH  23  24
ENDBRANCH  10  23
TORSDOF 9
