REMARK  Name = ZINC64986684
REMARK  7 active torsions:
REMARK  status: ('A' for Active; 'I' for Inactive)
REMARK    1  A    between atoms: C_1  and  C_2
REMARK    2  A    between atoms: C_13  and  S_30
REMARK    3  A    between atoms: C_14  and  N_18
REMARK    4  A    between atoms: N_21  and  C_24
REMARK    5  A    between atoms: S_30  and  N_33
REMARK    6  A    between atoms: N_33  and  C_34
REMARK    7  A    between atoms: N_33  and  C_35
REMARK                            x       y       z     vdW  Elec       q    Type
REMARK                         _______ _______ _______ _____ _____    ______ ____
ROOT
ATOM      1  C   UNL     1      -0.025   1.454  -0.393  0.00  0.00    +0.044 C 
ATOM      2  C   UNL     1      -0.012  -0.050  -0.298  0.00  0.00    -0.048 A 
ATOM      3  C   UNL     1      -0.061  -0.814  -1.448  0.00  0.00    +0.007 A 
ATOM      4  C   UNL     1      -0.038  -2.193  -1.363  0.00  0.00    +0.048 A 
ATOM      5  C   UNL     1       0.029  -2.816  -0.124  0.00  0.00    +0.150 A 
ATOM      6  C   UNL     1       0.058  -2.050   1.034  0.00  0.00    +0.077 A 
ATOM      7  C   UNL     1       0.054  -0.662   0.938  0.00  0.00    +0.030 A 
ATOM      8  N   UNL     1       0.059  -2.638   2.299  0.00  0.00    -0.278 N 
ATOM      9  C   UNL     1       0.727  -3.725   2.656  0.00  0.00    +0.252 C 
ATOM     10  O   UNL     1       0.629  -4.090   3.812  0.00  0.00    -0.270 OA
ATOM     11  C   UNL     1       1.575  -4.521   1.764  0.00  0.00    +0.081 A 
ATOM     12  C   UNL     1       2.772  -5.066   2.247  0.00  0.00    +0.047 A 
ATOM     13  C   UNL     1       3.553  -5.836   1.435  0.00  0.00    +0.127 A 
ATOM     14  C   UNL     1       3.166  -6.089   0.120  0.00  0.00    +0.060 A 
ATOM     15  C   UNL     1       1.988  -5.546  -0.378  0.00  0.00    +0.072 A 
ATOM     16  C   UNL     1       1.198  -4.749   0.434  0.00  0.00    +0.142 A 
ATOM     17  O   UNL     1       0.085  -4.170  -0.072  0.00  0.00    -0.453 OA
ATOM     18  H   UNL     1      -0.481  -2.209   2.982  0.00  0.00    +0.155 HD
ENDROOT
BRANCH  14  19
ATOM     19  N   UNL     1       3.961  -6.888  -0.695  0.00  0.00    -0.325 N 
ATOM     20  C   UNL     1       3.679  -8.323  -0.841  0.00  0.00    +0.124 C 
ATOM     21  C   UNL     1       3.514  -8.641  -2.332  0.00  0.00    +0.124 C 
ATOM     22  N   UNL     1       4.650  -8.065  -3.064  0.00  0.00    -0.327 N 
ATOM     23  C   UNL     1       4.932  -6.630  -2.919  0.00  0.00    +0.124 C 
ATOM     24  C   UNL     1       5.094  -6.310  -1.432  0.00  0.00    +0.124 C 
BRANCH  22  25
ATOM     25  C   UNL     1       5.448  -8.866  -3.883  0.00  0.00    +0.030 A 
ATOM     26  C   UNL     1       5.099 -10.191  -4.114  0.00  0.00    +0.023 A 
ATOM     27  C   UNL     1       5.890 -10.981  -4.924  0.00  0.00    +0.002 A 
ATOM     28  C   UNL     1       7.029 -10.455  -5.506  0.00  0.00    +0.000 A 
ATOM     29  C   UNL     1       7.379  -9.136  -5.279  0.00  0.00    +0.002 A 
ATOM     30  C   UNL     1       6.590  -8.339  -4.474  0.00  0.00    +0.023 A 
ENDBRANCH  22  25
ENDBRANCH  14  19
BRANCH  13  31
ATOM     31  S   UNL     1       5.059  -6.513   2.051  0.00  0.00    +0.062 S 
ATOM     32  O   UNL     1       5.026  -7.904   1.766  0.00  0.00    -0.153 OA
ATOM     33  O   UNL     1       6.103  -5.665   1.592  0.00  0.00    -0.153 OA
BRANCH  31  34
ATOM     34  N   UNL     1       5.022  -6.367   3.700  0.00  0.00    -0.183 NA
ATOM     35  C   UNL     1       4.360  -7.391   4.512  0.00  0.00    +0.131 C 
ATOM     36  C   UNL     1       5.651  -5.213   4.348  0.00  0.00    +0.131 C 
ENDBRANCH  31  34
ENDBRANCH  13  31
TORSDOF 4
