REMARK  Name = ZINC13916432
REMARK  15 active torsions:
REMARK  status: ('A' for Active; 'I' for Inactive)
REMARK    1  A    between atoms: C_1  and  C_2
REMARK    2  A    between atoms: C_2  and  C_3
REMARK    3  A    between atoms: C_3  and  C_4
REMARK    4  A    between atoms: C_11  and  C_13
REMARK    5  A    between atoms: C_15  and  S_23
REMARK    6  A    between atoms: C_18  and  O_19
REMARK    7  A    between atoms: O_19  and  C_20
REMARK    8  A    between atoms: C_20  and  C_21
REMARK    9  A    between atoms: C_21  and  C_22
REMARK   10  A    between atoms: S_23  and  N_26
REMARK   11  A    between atoms: N_26  and  C_27
REMARK   12  A    between atoms: C_27  and  C_28
REMARK   13  A    between atoms: C_28  and  C_29
REMARK   14  A    between atoms: C_34  and  N_72
REMARK   15  A    between atoms: N_35  and  C_37
REMARK                            x       y       z     vdW  Elec       q    Type
REMARK                         _______ _______ _______ _____ _____    ______ ____
ROOT
ATOM      1  C   UNL     1       3.599   2.574  -0.603  0.00  0.00    +0.061 A 
ATOM      2  C   UNL     1       3.711   3.961  -0.493  0.00  0.00    +0.043 A 
ATOM      3  C   UNL     1       4.950   4.540  -0.324  0.00  0.00    +0.106 A 
ATOM      4  C   UNL     1       6.087   3.751  -0.261  0.00  0.00    +0.032 A 
ATOM      5  C   UNL     1       5.990   2.377  -0.368  0.00  0.00    +0.048 A 
ATOM      6  C   UNL     1       4.750   1.778  -0.533  0.00  0.00    +0.131 A 
ENDROOT
BRANCH   1  14
ATOM      7  C   UNL     1       0.622  -1.321  -1.187  0.00  0.00    +0.089 A 
ATOM      8  C   UNL     1       1.008   0.027  -1.052  0.00  0.00    +0.119 A 
ATOM      9  C   UNL     1      -0.162   0.796  -1.120  0.00  0.00    +0.151 A 
ATOM     10  C   UNL     1      -0.061   2.202  -1.010  0.00  0.00    +0.278 A 
ATOM     11  O   UNL     1      -1.054   2.905  -1.069  0.00  0.00    -0.265 OA
ATOM     12  N   UNL     1       1.165   2.747  -0.843  0.00  0.00    -0.305 N 
ATOM     13  H   UNL     1       1.258   3.709  -0.766  0.00  0.00    +0.170 HD
ATOM     14  C   UNL     1       2.274   1.948  -0.785  0.00  0.00    +0.145 A 
ATOM     15  N   UNL     1       2.196   0.643  -0.885  0.00  0.00    -0.225 NA
ATOM     16  N   UNL     1      -1.202  -0.076  -1.289  0.00  0.00    -0.260 N 
ATOM     17  N   UNL     1      -0.675  -1.373  -1.325  0.00  0.00    -0.174 NA
ATOM     18  C   UNL     1      -2.616   0.284  -1.411  0.00  0.00    +0.173 C 
BRANCH   7  19
ATOM     19  C   UNL     1       1.553  -2.506  -1.173  0.00  0.00    +0.059 C 
BRANCH  19  21
ATOM     20  C   UNL     1       2.663  -4.210   0.278  0.00  0.00    +0.004 C 
ATOM     21  C   UNL     1       1.718  -3.007   0.264  0.00  0.00    +0.003 C 
ENDBRANCH  19  21
ENDBRANCH   7  19
ENDBRANCH   1  14
BRANCH   3  22
ATOM     22  S   UNL     1       5.090   6.291  -0.186  0.00  0.00    +0.058 S 
ATOM     23  O   UNL     1       6.414   6.625  -0.579  0.00  0.00    -0.153 OA
ATOM     24  O   UNL     1       3.944   6.841  -0.822  0.00  0.00    -0.153 OA
BRANCH  22  25
ATOM     25  N   UNL     1       4.965   6.667   1.422  0.00  0.00    -0.190 NA
ATOM     26  H   UNL     1       4.211   7.187   1.742  0.00  0.00    +0.148 HD
BRANCH  25  27
ATOM     27  C   UNL     1       5.993   6.213   2.363  0.00  0.00    +0.104 C 
BRANCH  27  28
ATOM     28  C   UNL     1       5.857   6.984   3.677  0.00  0.00    +0.002 C 
BRANCH  28  29
ATOM     29  C   UNL     1       7.015   6.614   4.607  0.00  0.00    -0.068 C 
ATOM     30  C   UNL     1       6.908   7.398   5.939  0.00  0.00    -0.017 C 
ATOM     31  C   UNL     1       7.699   6.477   6.907  0.00  0.00    -0.020 C 
ATOM     32  C   UNL     1       7.355   5.061   6.401  0.00  0.00    -0.079 C 
ATOM     33  C   UNL     1       7.753   4.353   4.114  0.00  0.00    -0.096 C 
ATOM     34  N   UNL     1       6.912   5.196   5.004  0.00  0.00    +0.380 N 
ATOM     35  H   UNL     1       5.934   4.892   4.927  0.00  0.00    -0.082 HD
ENDBRANCH  28  29
ENDBRANCH  27  28
ENDBRANCH  25  27
ENDBRANCH  22  25
ENDBRANCH   3  22
BRANCH   6  36
ATOM     36  O   UNL     1       4.653   0.428  -0.633  0.00  0.00    -0.491 OA
BRANCH  36  37
ATOM     37  C   UNL     1       5.869  -0.317  -0.553  0.00  0.00    +0.229 C 
BRANCH  37  38
ATOM     38  C   UNL     1       5.561  -1.810  -0.685  0.00  0.00    +0.038 C 
ATOM     39  C   UNL     1       6.864  -2.609  -0.600  0.00  0.00    +0.007 C 
ENDBRANCH  37  38
ENDBRANCH  36  37
ENDBRANCH   6  36
TORSDOF 11
