REMARK  Name = ZINC05412750
REMARK  5 active torsions:
REMARK  status: ('A' for Active; 'I' for Inactive)
REMARK    1  A    between atoms: C_1  and  C_2
REMARK    2  A    between atoms: C_8  and  N_10
REMARK    3  A    between atoms: C_11  and  C_13
REMARK    4  A    between atoms: N_15  and  C_16
REMARK    5  A    between atoms: N_20  and  C_21
REMARK                            x       y       z     vdW  Elec       q    Type
REMARK                         _______ _______ _______ _____ _____    ______ ____
ROOT
ATOM      1  C   UNL     1       0.979   3.944   3.971  0.00  0.00    +0.304 C 
ATOM      2  O   UNL     1       0.373   3.109   4.611  0.00  0.00    -0.265 OA
ATOM      3  N   UNL     1       1.127   5.191   4.459  0.00  0.00    -0.262 N 
ATOM      4  H   UNL     1       1.664   5.840   3.978  0.00  0.00    +0.157 HD
ENDROOT
BRANCH   3   5
ATOM      5  C   UNL     1       0.508   5.549   5.653  0.00  0.00    +0.133 A 
ATOM      6  C   UNL     1      -0.646   5.001   6.168  0.00  0.00    +0.026 A 
ATOM      7  C   UNL     1      -0.918   5.636   7.367  0.00  0.00    +0.079 A 
ATOM      8  N   UNL     1       0.028   6.539   7.585  0.00  0.00    -0.168 NA
ATOM      9  N   UNL     1       0.935   6.497   6.525  0.00  0.00    -0.218 N 
ATOM     10  C   UNL     1      -2.168   5.181   8.118  0.00  0.00    +0.127 C 
ATOM     11  S   UNL     1      -3.071   4.247   6.815  0.00  0.00    -0.150 S 
ATOM     12  C   UNL     1      -1.625   3.915   5.727  0.00  0.00    +0.110 C 
BRANCH   9  13
ATOM     13  C   UNL     1       2.081   7.292   6.385  0.00  0.00    +0.068 A 
ATOM     14  C   UNL     1       3.250   6.744   5.873  0.00  0.00    +0.029 A 
ATOM     15  C   UNL     1       4.376   7.531   5.731  0.00  0.00    +0.022 A 
ATOM     16  C   UNL     1       4.343   8.862   6.109  0.00  0.00    +0.041 A 
ATOM     17  C   UNL     1       3.181   9.409   6.625  0.00  0.00    +0.022 A 
ATOM     18  C   UNL     1       2.051   8.627   6.763  0.00  0.00    +0.029 A 
ATOM     19 CL   UNL     1       5.761   9.848   5.935  0.00  0.00    -0.084 Cl
ENDBRANCH   9  13
ENDBRANCH   3   5
BRANCH   1  21
ATOM     20  N   UNL     1       1.412   2.341   2.154  0.00  0.00    -0.304 N 
ATOM     21  C   UNL     1       1.560   3.588   2.642  0.00  0.00    +0.300 C 
ATOM     22  O   UNL     1       2.166   4.423   2.002  0.00  0.00    -0.265 OA
ATOM     23  H   UNL     1       0.928   1.674   2.666  0.00  0.00    +0.149 HD
BRANCH  20  30
ATOM     24  C   UNL     1       3.221   0.093   1.901  0.00  0.00    +0.009 C 
ATOM     25  C   UNL     1       2.241   0.485   0.793  0.00  0.00    +0.006 C 
ATOM     26  C   UNL     1       0.922  -0.266   0.991  0.00  0.00    +0.005 C 
ATOM     27  C   UNL     1      -0.058   0.126  -0.116  0.00  0.00    +0.000 C 
ATOM     28  C   UNL     1      -0.317   1.633  -0.059  0.00  0.00    +0.002 C 
ATOM     29  C   UNL     1       1.002   2.384  -0.257  0.00  0.00    +0.022 C 
ATOM     30  C   UNL     1       1.982   1.992   0.851  0.00  0.00    +0.076 C 
ENDBRANCH  20  30
ENDBRANCH   1  21
TORSDOF 4
