REMARK  Name = ZINC14040276
REMARK  15 active torsions:
REMARK  status: ('A' for Active; 'I' for Inactive)
REMARK    1  A    between atoms: C_1  and  C_2
REMARK    2  A    between atoms: C_2  and  C_4
REMARK    3  A    between atoms: C_2  and  O_23
REMARK    4  A    between atoms: N_6  and  N_7
REMARK    5  A    between atoms: C_8  and  C_10
REMARK    6  A    between atoms: C_10  and  O_11
REMARK    7  A    between atoms: O_11  and  C_12
REMARK    8  A    between atoms: C_15  and  C_19
REMARK    9  A    between atoms: C_19  and  C_20
REMARK   10  A    between atoms: C_19  and  C_21
REMARK   11  A    between atoms: C_19  and  C_22
REMARK   12  A    between atoms: O_23  and  C_24
REMARK   13  A    between atoms: C_27  and  C_30
REMARK   14  A    between atoms: C_30  and  C_31
REMARK   15  A    between atoms: C_30  and  C_32
REMARK                            x       y       z     vdW  Elec       q    Type
REMARK                         _______ _______ _______ _____ _____    ______ ____
ROOT
ATOM      1  N   UNL     1       1.187  -0.305   3.568  0.00  0.00    -0.231 N 
ATOM      2  C   UNL     1       0.715  -0.055   4.806  0.00  0.00    +0.267 C 
ATOM      3  O   UNL     1      -0.401   0.398   4.949  0.00  0.00    -0.271 OA
ATOM      4  H   UNL     1       2.080  -0.667   3.454  0.00  0.00    +0.173 HD
ENDROOT
BRANCH   1   7
ATOM      5  C   UNL     1       0.861  -0.294   1.210  0.00  0.00    +0.270 C 
ATOM      6  O   UNL     1       1.977  -0.746   1.067  0.00  0.00    -0.270 OA
ATOM      7  N   UNL     1       0.389  -0.043   2.448  0.00  0.00    -0.231 N 
ATOM      8  H   UNL     1      -0.504   0.319   2.562  0.00  0.00    +0.173 HD
BRANCH   5  10
ATOM      9  C   UNL     1      -0.252   1.493  -0.100  0.00  0.00    +0.062 C 
ATOM     10  C   UNL     1       0.002  -0.012   0.005  0.00  0.00    +0.257 C 
BRANCH  10  11
ATOM     11  O   UNL     1       0.671  -0.465  -1.174  0.00  0.00    -0.480 OA
BRANCH  11  12
ATOM     12  C   UNL     1      -0.106  -0.775  -2.244  0.00  0.00    +0.122 A 
ATOM     13  C   UNL     1       0.464  -1.331  -3.380  0.00  0.00    +0.046 A 
ATOM     14  C   UNL     1      -0.328  -1.646  -4.467  0.00  0.00    +0.007 A 
ATOM     15  C   UNL     1      -1.689  -1.406  -4.424  0.00  0.00    -0.045 A 
ATOM     16  C   UNL     1      -2.260  -0.851  -3.294  0.00  0.00    +0.007 A 
ATOM     17  C   UNL     1      -1.473  -0.541  -2.202  0.00  0.00    +0.046 A 
BRANCH  15  18
ATOM     18  C   UNL     1      -2.551  -1.750  -5.611  0.00  0.00    +0.013 C 
ATOM     19  C   UNL     1      -3.611  -2.771  -5.193  0.00  0.00    +0.012 C 
ATOM     20  C   UNL     1      -3.238  -0.483  -6.126  0.00  0.00    +0.012 C 
ENDBRANCH  15  18
ENDBRANCH  11  12
ENDBRANCH  10  11
ENDBRANCH   5  10
ENDBRANCH   1   7
BRANCH   2  21
ATOM     21  C   UNL     1       1.574  -0.337   6.011  0.00  0.00    +0.326 C 
BRANCH  21  22
ATOM     22  O   UNL     1       0.858   0.009   7.198  0.00  0.00    -0.482 OA
BRANCH  22  23
ATOM     23  C   UNL     1       1.495  -0.186   8.383  0.00  0.00    +0.135 A 
ATOM     24  C   UNL     1       2.786  -0.694   8.402  0.00  0.00    +0.047 A 
ATOM     25  C   UNL     1       3.432  -0.890   9.607  0.00  0.00    +0.008 A 
ATOM     26  C   UNL     1       2.793  -0.582  10.794  0.00  0.00    -0.041 A 
ATOM     27  C   UNL     1       1.506  -0.076  10.778  0.00  0.00    +0.023 A 
ATOM     28  C   UNL     1       0.858   0.129   9.575  0.00  0.00    +0.060 A 
ATOM     29 BR   UNL     1      -0.899   0.829   9.554  0.00  0.00    -0.047 Br
BRANCH  26  30
ATOM     30  C   UNL     1       3.500  -0.799  12.107  0.00  0.00    -0.013 C 
ATOM     31  C   UNL     1       4.777   0.043  12.144  0.00  0.00    +0.015 C 
ATOM     32  C   UNL     1       2.580  -0.381  13.257  0.00  0.00    +0.015 C 
ATOM     33  C   UNL     1       3.861  -2.278  12.254  0.00  0.00    +0.015 C 
ENDBRANCH  26  30
ENDBRANCH  22  23
ENDBRANCH  21  22
ENDBRANCH   2  21
TORSDOF 9
