REMARK  Name = ZINC39367236
REMARK  7 active torsions:
REMARK  status: ('A' for Active; 'I' for Inactive)
REMARK    1  A    between atoms: C_1  and  C_2
REMARK    2  A    between atoms: C_4  and  C_20
REMARK    3  A    between atoms: C_9  and  C_13
REMARK    4  A    between atoms: C_9  and  C_14
REMARK    5  A    between atoms: C_23  and  N_26
REMARK    6  A    between atoms: N_26  and  C_27
REMARK    7  A    between atoms: N_26  and  C_28
REMARK                            x       y       z     vdW  Elec       q    Type
REMARK                         _______ _______ _______ _____ _____    ______ ____
ROOT
ATOM      1  C   UNL     1      -0.001   1.473   0.006  0.00  0.00    +0.067 C 
ATOM      2  C   UNL     1       0.004  -0.034   0.006  0.00  0.00    +0.064 C 
ATOM      3  C   UNL     1      -1.070  -0.786   0.009  0.00  0.00    +0.008 C 
ATOM      4  C   UNL     1      -2.536  -0.506   0.164  0.00  0.00    +0.085 C 
ATOM      5  C   UNL     1      -3.087  -1.543   1.131  0.00  0.00    +0.023 C 
ATOM      6  C   UNL     1      -2.371  -2.619   1.518  0.00  0.00    +0.014 C 
ATOM      7  C   UNL     1      -2.983  -3.642   2.453  0.00  0.00    +0.057 C 
ATOM      8  C   UNL     1      -3.955  -2.951   3.409  0.00  0.00    -0.023 C 
ATOM      9  C   UNL     1      -5.045  -2.267   2.576  0.00  0.00    +0.086 C 
ATOM     10  C   UNL     1      -4.390  -1.322   1.608  0.00  0.00    +0.162 C 
ATOM     11  O   UNL     1      -5.002  -0.343   1.229  0.00  0.00    -0.292 OA
ATOM     12  C   UNL     1      -3.207  -1.905   4.238  0.00  0.00    +0.011 C 
ATOM     13  C   UNL     1      -4.591  -3.988   4.338  0.00  0.00    +0.011 C 
ATOM     14  N   UNL     1      -1.079  -2.867   1.128  0.00  0.00    -0.321 N 
ATOM     15  C   UNL     1      -0.549  -2.222  -0.077  0.00  0.00    +0.241 C 
ATOM     16  N   UNL     1       0.902  -2.024  -0.015  0.00  0.00    -0.160 NA
ATOM     17  N   UNL     1       1.120  -0.806  -0.003  0.00  0.00    -0.157 NA
ATOM     18  H   UNL     1      -0.519  -3.465   1.647  0.00  0.00    +0.148 HD
ENDROOT
BRANCH   4  19
ATOM     19  C   UNL     1      -3.226  -0.626  -1.170  0.00  0.00    -0.035 A 
ATOM     20  C   UNL     1      -3.197  -1.826  -1.856  0.00  0.00    +0.006 A 
ATOM     21  C   UNL     1      -3.829  -1.939  -3.079  0.00  0.00    +0.023 A 
ATOM     22  C   UNL     1      -4.494  -0.846  -3.619  0.00  0.00    +0.029 A 
ATOM     23  C   UNL     1      -4.521   0.358  -2.927  0.00  0.00    +0.023 A 
ATOM     24  C   UNL     1      -3.892   0.463  -1.702  0.00  0.00    +0.006 A 
BRANCH  22  25
ATOM     25  N   UNL     1      -5.134  -0.956  -4.856  0.00  0.00    -0.336 N 
ATOM     26  C   UNL     1      -5.000  -2.185  -5.643  0.00  0.00    +0.129 C 
ATOM     27  C   UNL     1      -5.939   0.156  -5.366  0.00  0.00    +0.129 C 
ENDBRANCH  22  25
ENDBRANCH   4  19
TORSDOF 2
