REMARK  Name = ZINC67049609
REMARK  8 active torsions:
REMARK  status: ('A' for Active; 'I' for Inactive)
REMARK    1  A    between atoms: C_1  and  C_2
REMARK    2  A    between atoms: C_2  and  C_4
REMARK    3  A    between atoms: C_2  and  N_20
REMARK    4  A    between atoms: N_6  and  C_7
REMARK    5  A    between atoms: C_10  and  N_13
REMARK    6  A    between atoms: N_13  and  C_14
REMARK    7  A    between atoms: C_14  and  C_15
REMARK    8  A    between atoms: N_23  and  C_24
REMARK                            x       y       z     vdW  Elec       q    Type
REMARK                         _______ _______ _______ _____ _____    ______ ____
ROOT
ATOM      1  C   UNL     1       2.514  -0.232   0.216  0.00  0.00    +0.237 C 
ATOM      2  O   UNL     1       3.726  -0.271   0.241  0.00  0.00    -0.273 OA
ATOM      3  N   UNL     1       1.806  -0.599   1.303  0.00  0.00    -0.284 N 
ATOM      4  H   UNL     1       0.840  -0.504   1.307  0.00  0.00    +0.155 HD
ENDROOT
BRANCH   3   5
ATOM      5  C   UNL     1       2.464  -1.119   2.425  0.00  0.00    +0.034 A 
ATOM      6  C   UNL     1       1.869  -2.125   3.175  0.00  0.00    +0.025 A 
ATOM      7  C   UNL     1       2.518  -2.638   4.281  0.00  0.00    +0.025 A 
ATOM      8  C   UNL     1       3.765  -2.146   4.644  0.00  0.00    +0.027 A 
ATOM      9  C   UNL     1       4.360  -1.139   3.894  0.00  0.00    +0.025 A 
ATOM     10  C   UNL     1       3.713  -0.631   2.785  0.00  0.00    +0.025 A 
BRANCH   8  11
ATOM     11  N   UNL     1       4.422  -2.665   5.764  0.00  0.00    -0.344 N 
ATOM     12  H   UNL     1       4.007  -3.368   6.288  0.00  0.00    +0.146 HD
BRANCH  11  13
ATOM     13  C   UNL     1       5.738  -2.146   6.147  0.00  0.00    +0.105 C 
BRANCH  13  14
ATOM     14  C   UNL     1       6.231  -2.878   7.397  0.00  0.00    +0.006 C 
ATOM     15  C   UNL     1       5.353  -2.504   8.609  0.00  0.00    +0.005 C 
ATOM     16  C   UNL     1       6.349  -2.435   9.793  0.00  0.00    +0.000 C 
ATOM     17  C   UNL     1       7.606  -1.804   9.146  0.00  0.00    +0.000 C 
ATOM     18  C   UNL     1       7.663  -2.433   7.739  0.00  0.00    +0.005 C 
ENDBRANCH  13  14
ENDBRANCH  11  13
ENDBRANCH   8  11
ENDBRANCH   3   5
BRANCH   1  20
ATOM     19  C   UNL     1       0.893  -0.893  -1.540  0.00  0.00    +0.038 C 
ATOM     20  C   UNL     1       1.800   0.228  -1.028  0.00  0.00    +0.158 C 
BRANCH  20  21
ATOM     21  N   UNL     1       2.784   0.569  -2.058  0.00  0.00    -0.288 N 
ATOM     22  C   UNL     1       2.466   1.446  -3.031  0.00  0.00    +0.304 C 
ATOM     23  O   UNL     1       1.361   1.954  -3.054  0.00  0.00    -0.252 OA
ATOM     24  N   UNL     1       3.371   1.759  -3.979  0.00  0.00    -0.269 N 
ATOM     25  H   UNL     1       3.665   0.163  -2.040  0.00  0.00    +0.151 HD
ATOM     26  H   UNL     1       4.225   1.299  -4.005  0.00  0.00    +0.156 HD
BRANCH  24  27
ATOM     27  C   UNL     1       3.080   2.748  -4.925  0.00  0.00    +0.035 A 
ATOM     28  C   UNL     1       3.571   2.639  -6.219  0.00  0.00    +0.023 A 
ATOM     29  C   UNL     1       3.282   3.617  -7.151  0.00  0.00    +0.002 A 
ATOM     30  C   UNL     1       2.504   4.704  -6.796  0.00  0.00    +0.000 A 
ATOM     31  C   UNL     1       2.014   4.816  -5.508  0.00  0.00    +0.002 A 
ATOM     32  C   UNL     1       2.295   3.838  -4.573  0.00  0.00    +0.023 A 
ENDBRANCH  24  27
ENDBRANCH  20  21
ENDBRANCH   1  20
TORSDOF 7
