REMARK  Name = ZINC67101771
REMARK  6 active torsions:
REMARK  status: ('A' for Active; 'I' for Inactive)
REMARK    1  A    between atoms: C_4  and  C_7
REMARK    2  A    between atoms: C_7  and  C_8
REMARK    3  A    between atoms: C_8  and  C_9
REMARK    4  A    between atoms: N_11  and  N_12
REMARK    5  A    between atoms: N_15  and  C_16
REMARK    6  A    between atoms: C_16  and  C_17
REMARK                            x       y       z     vdW  Elec       q    Type
REMARK                         _______ _______ _______ _____ _____    ______ ____
ROOT
ATOM      1  N   UNL     1       4.590  -4.240  -5.040  0.00  0.00    -0.218 N 
ATOM      2  C   UNL     1       4.819  -5.557  -5.213  0.00  0.00    +0.316 C 
ATOM      3  O   UNL     1       5.388  -5.949  -6.213  0.00  0.00    -0.251 OA
ATOM      4  N   UNL     1       4.416  -6.439  -4.277  0.00  0.00    -0.298 N 
ATOM      5  H   UNL     1       4.880  -3.605  -5.714  0.00  0.00    +0.174 HD
ATOM      6  H   UNL     1       3.962  -6.126  -3.479  0.00  0.00    +0.150 HD
ENDROOT
BRANCH   1   9
ATOM      7  C   UNL     1       3.706  -2.471  -3.715  0.00  0.00    +0.229 C 
ATOM      8  O   UNL     1       4.068  -1.677  -4.557  0.00  0.00    -0.274 OA
ATOM      9  N   UNL     1       3.934  -3.788  -3.887  0.00  0.00    -0.233 N 
ATOM     10  H   UNL     1       3.645  -4.423  -3.214  0.00  0.00    +0.173 HD
BRANCH   7  11
ATOM     11  C   UNL     1       3.001  -1.985  -2.475  0.00  0.00    +0.097 C 
BRANCH  11  12
ATOM     12  C   UNL     1       2.870  -0.461  -2.526  0.00  0.00    +0.013 C 
BRANCH  12  16
ATOM     13  C   UNL     1      -0.019   1.526   0.010  0.00  0.00    +0.000 C 
ATOM     14  C   UNL     1       1.417   2.055  -0.000  0.00  0.00    +0.000 C 
ATOM     15  C   UNL     1       2.133   1.562  -1.259  0.00  0.00    +0.003 C 
ATOM     16  C   UNL     1       2.154   0.032  -1.268  0.00  0.00    -0.011 C 
ATOM     17  C   UNL     1       0.718  -0.497  -1.257  0.00  0.00    +0.003 C 
ATOM     18  C   UNL     1       0.002  -0.004   0.002  0.00  0.00    +0.000 C 
ENDBRANCH  12  16
ENDBRANCH  11  12
ENDBRANCH   7  11
ENDBRANCH   1   9
BRANCH   4  19
ATOM     19  C   UNL     1       4.664  -7.870  -4.465  0.00  0.00    +0.109 C 
BRANCH  19  20
ATOM     20  C   UNL     1       4.112  -8.645  -3.267  0.00  0.00    +0.010 C 
ATOM     21  C   UNL     1       4.267 -10.152  -3.512  0.00  0.00    +0.009 C 
ATOM     22  C   UNL     1       3.549 -10.901  -2.387  0.00  0.00    +0.027 C 
ATOM     23  C   UNL     1       3.969 -10.356  -1.053  0.00  0.00    -0.031 C 
ATOM     24  C   UNL     1       4.552  -9.212  -0.888  0.00  0.00    -0.031 C 
ATOM     25  C   UNL     1       4.896  -8.272  -2.007  0.00  0.00    +0.032 C 
ENDBRANCH  19  20
ENDBRANCH   4  19
TORSDOF 6
