REMARK  Name = ZINC56939982
REMARK  8 active torsions:
REMARK  status: ('A' for Active; 'I' for Inactive)
REMARK    1  A    between atoms: C_1  and  C_2
REMARK    2  A    between atoms: N_12  and  C_13
REMARK    3  A    between atoms: C_13  and  C_15
REMARK    4  A    between atoms: N_17  and  C_18
REMARK    5  A    between atoms: C_18  and  C_19
REMARK    6  A    between atoms: C_19  and  C_21
REMARK    7  A    between atoms: C_19  and  N_32
REMARK    8  A    between atoms: N_30  and  C_31
REMARK                            x       y       z     vdW  Elec       q    Type
REMARK                         _______ _______ _______ _____ _____    ______ ____
ROOT
ATOM      1  C   UNL     1       1.754  -4.330  -6.358  0.00  0.00    +0.301 C 
ATOM      2  O   UNL     1       0.910  -4.490  -5.500  0.00  0.00    -0.265 OA
ATOM      3  N   UNL     1       1.583  -3.384  -7.303  0.00  0.00    -0.309 N 
ATOM      4  H   UNL     1       2.257  -3.256  -7.988  0.00  0.00    +0.149 HD
ENDROOT
BRANCH   1   5
ATOM      5  C   UNL     1       2.979  -5.181  -6.368  0.00  0.00    +0.323 C 
ATOM      6  O   UNL     1       3.825  -5.020  -7.229  0.00  0.00    -0.263 OA
BRANCH   5  18
ATOM      7  C   UNL     1       3.645  -9.438  -8.945  0.00  0.00    +0.063 C 
ATOM      8  C   UNL     1       3.668  -9.053  -7.488  0.00  0.00    +0.015 A 
ATOM      9  C   UNL     1       3.397  -7.770  -7.150  0.00  0.00    +0.046 A 
ATOM     10  C   UNL     1       3.411  -7.378  -5.795  0.00  0.00    +0.068 A 
ATOM     11  C   UNL     1       3.724  -8.404  -4.789  0.00  0.00    +0.021 A 
ATOM     12  C   UNL     1       3.759  -8.104  -3.426  0.00  0.00    +0.012 A 
ATOM     13  C   UNL     1       4.054  -9.087  -2.524  0.00  0.00    +0.001 A 
ATOM     14  C   UNL     1       4.321 -10.382  -2.952  0.00  0.00    +0.002 A 
ATOM     15  C   UNL     1       4.292 -10.700  -4.292  0.00  0.00    +0.026 A 
ATOM     16  C   UNL     1       3.993  -9.714  -5.229  0.00  0.00    +0.048 A 
ATOM     17  N   UNL     1       3.951  -9.999  -6.573  0.00  0.00    -0.358 N 
ATOM     18  N   UNL     1       3.147  -6.114  -5.437  0.00  0.00    -0.172 NA
ATOM     19  H   UNL     1       4.133 -10.905  -6.870  0.00  0.00    +0.166 HD
ENDBRANCH   5  18
ENDBRANCH   1   5
BRANCH   3  20
ATOM     20  C   UNL     1       0.380  -2.548  -7.293  0.00  0.00    +0.094 C 
BRANCH  20  21
ATOM     21  C   UNL     1       0.371  -1.652  -8.534  0.00  0.00    -0.020 C 
BRANCH  21  22
ATOM     22  C   UNL     1       0.242  -2.506  -9.769  0.00  0.00    -0.059 A 
ATOM     23  C   UNL     1      -0.999  -2.982 -10.152  0.00  0.00    +0.004 A 
ATOM     24  C   UNL     1      -1.116  -3.765 -11.283  0.00  0.00    +0.023 A 
ATOM     25  C   UNL     1       0.011  -4.074 -12.036  0.00  0.00    +0.033 A 
ATOM     26  C   UNL     1       1.254  -3.594 -11.653  0.00  0.00    -0.026 A 
ATOM     27  C   UNL     1       1.363  -2.807 -10.519  0.00  0.00    +0.007 A 
ATOM     28  C   UNL     1       2.495  -3.900 -12.449  0.00  0.00    +0.038 C 
ATOM     29  C   UNL     1       2.280  -5.135 -13.323  0.00  0.00    +0.024 C 
ATOM     30  C   UNL     1       0.986  -4.953 -14.129  0.00  0.00    +0.105 C 
ATOM     31  N   UNL     1      -0.129  -4.873 -13.175  0.00  0.00    -0.333 N 
ATOM     32  C   UNL     1      -1.367  -5.619 -13.414  0.00  0.00    +0.129 C 
ENDBRANCH  21  22
BRANCH  21  33
ATOM     33  N   UNL     1      -0.764  -0.724  -8.459  0.00  0.00    +0.385 N 
ATOM     34  C   UNL     1      -0.571   0.233  -7.340  0.00  0.00    -0.078 C 
ATOM     35  C   UNL     1      -1.482   1.424  -7.730  0.00  0.00    -0.020 C 
ATOM     36  C   UNL     1      -1.314   1.500  -9.265  0.00  0.00    -0.020 C 
ATOM     37  C   UNL     1      -0.832   0.099  -9.686  0.00  0.00    -0.078 C 
ATOM     38  H   UNL     1      -1.625  -1.236  -8.336  0.00  0.00    -0.081 HD
ENDBRANCH  21  33
ENDBRANCH  20  21
ENDBRANCH   3  20
TORSDOF 6
