REMARK  Name = ZINC36504448
REMARK  12 active torsions:
REMARK  status: ('A' for Active; 'I' for Inactive)
REMARK    1  A    between atoms: C_1  and  N_2
REMARK    2  A    between atoms: N_2  and  C_3
REMARK    3  A    between atoms: N_2  and  C_4
REMARK    4  A    between atoms: C_7  and  C_10
REMARK    5  A    between atoms: C_10  and  C_12
REMARK    6  A    between atoms: C_10  and  N_21
REMARK    7  A    between atoms: N_14  and  C_15
REMARK    8  A    between atoms: N_21  and  C_22
REMARK    9  A    between atoms: C_22  and  C_23
REMARK   10  A    between atoms: C_28  and  C_30
REMARK   11  A    between atoms: C_30  and  N_31
REMARK   12  A    between atoms: C_32  and  C_34
REMARK                            x       y       z     vdW  Elec       q    Type
REMARK                         _______ _______ _______ _____ _____    ______ ____
ROOT
ATOM      1  C   UNL     1       0.301  -2.013  -4.957  0.00  0.00    +0.193 C 
ENDROOT
BRANCH   1   5
ATOM      2  C   UNL     1      -0.267   2.221  -4.811  0.00  0.00    +0.029 A 
ATOM      3  C   UNL     1       0.062   1.522  -3.656  0.00  0.00    +0.023 A 
ATOM      4  C   UNL     1       0.244   0.154  -3.707  0.00  0.00    +0.008 A 
ATOM      5  C   UNL     1       0.100  -0.520  -4.905  0.00  0.00    -0.018 A 
ATOM      6  C   UNL     1      -0.227   0.172  -6.057  0.00  0.00    +0.008 A 
ATOM      7  C   UNL     1      -0.416   1.539  -6.012  0.00  0.00    +0.023 A 
BRANCH   2   9
ATOM      8  C   UNL     1      -0.805   4.338  -5.981  0.00  0.00    +0.129 C 
ATOM      9  N   UNL     1      -0.452   3.604  -4.763  0.00  0.00    -0.336 N 
ATOM     10  C   UNL     1      -0.294   4.321  -3.495  0.00  0.00    +0.129 C 
ENDBRANCH   2   9
ENDBRANCH   1   5
BRANCH   1  11
ATOM     11  C   UNL     1       1.612  -2.321  -5.633  0.00  0.00    +0.238 C 
ATOM     12  O   UNL     1       1.634  -2.607  -6.812  0.00  0.00    -0.273 OA
ATOM     13  N   UNL     1       2.760  -2.277  -4.929  0.00  0.00    -0.311 N 
ATOM     14  H   UNL     1       2.743  -2.048  -3.987  0.00  0.00    +0.149 HD
BRANCH  13  15
ATOM     15  C   UNL     1       4.035  -2.576  -5.587  0.00  0.00    +0.073 C 
ATOM     16  C   UNL     1       4.265  -4.089  -5.589  0.00  0.00    +0.022 C 
ATOM     17  C   UNL     1       5.596  -4.401  -6.276  0.00  0.00    +0.002 C 
ATOM     18  C   UNL     1       6.734  -3.713  -5.520  0.00  0.00    +0.000 C 
ATOM     19  C   UNL     1       6.504  -2.200  -5.517  0.00  0.00    +0.002 C 
ATOM     20  C   UNL     1       5.173  -1.888  -4.830  0.00  0.00    +0.022 C 
ENDBRANCH  13  15
ENDBRANCH   1  11
BRANCH   1  21
ATOM     21  N   UNL     1      -0.794  -2.627  -5.712  0.00  0.00    -0.277 N 
ATOM     22  C   UNL     1      -1.704  -3.393  -5.077  0.00  0.00    +0.234 C 
ATOM     23  O   UNL     1      -1.615  -3.574  -3.881  0.00  0.00    -0.274 OA
BRANCH  21  24
ATOM     24  C   UNL     1      -0.900  -2.409  -7.157  0.00  0.00    +0.183 C 
BRANCH  24  25
ATOM     25  C   UNL     1      -0.687  -3.714  -7.879  0.00  0.00    +0.122 A 
ATOM     26  C   UNL     1      -1.636  -4.430  -8.508  0.00  0.00    +0.046 A 
ATOM     27  C   UNL     1      -1.000  -5.573  -9.043  0.00  0.00    +0.041 A 
ATOM     28  C   UNL     1       0.300  -5.488  -8.709  0.00  0.00    +0.195 A 
ATOM     29  O   UNL     1       0.485  -4.357  -8.009  0.00  0.00    -0.466 OA
ENDBRANCH  24  25
ENDBRANCH  21  24
BRANCH  22  30
ATOM     30  C   UNL     1      -2.830  -4.025  -5.854  0.00  0.00    +0.200 C 
BRANCH  30  31
ATOM     31  N   UNL     1      -3.675  -4.802  -4.944  0.00  0.00    -0.303 N 
ATOM     32  C   UNL     1      -4.751  -5.459  -5.419  0.00  0.00    +0.244 C 
ATOM     33  O   UNL     1      -5.020  -5.407  -6.604  0.00  0.00    -0.270 OA
ATOM     34  H   UNL     1      -3.460  -4.843  -3.999  0.00  0.00    +0.150 HD
BRANCH  32  35
ATOM     35  C   UNL     1      -5.604  -6.243  -4.501  0.00  0.00    +0.037 A 
ATOM     36  C   UNL     1      -5.301  -6.300  -3.139  0.00  0.00    +0.013 A 
ATOM     37  C   UNL     1      -6.101  -7.032  -2.288  0.00  0.00    +0.001 A 
ATOM     38  C   UNL     1      -7.202  -7.711  -2.780  0.00  0.00    +0.000 A 
ATOM     39  C   UNL     1      -7.508  -7.659  -4.129  0.00  0.00    +0.001 A 
ATOM     40  C   UNL     1      -6.719  -6.925  -4.990  0.00  0.00    +0.013 A 
ENDBRANCH  32  35
ENDBRANCH  30  31
ENDBRANCH  22  30
ENDBRANCH   1  21
TORSDOF 10
