REMARK  Name = ZINC08791949
REMARK  7 active torsions:
REMARK  status: ('A' for Active; 'I' for Inactive)
REMARK    1  A    between atoms: C_1  and  S_2
REMARK    2  A    between atoms: S_2  and  C_3
REMARK    3  A    between atoms: C_3  and  C_4
REMARK    4  A    between atoms: C_4  and  C_5
REMARK    5  A    between atoms: C_5  and  C_7
REMARK    6  A    between atoms: C_5  and  N_23
REMARK    7  A    between atoms: C_24  and  C_26
REMARK                            x       y       z     vdW  Elec       q    Type
REMARK                         _______ _______ _______ _____ _____    ______ ____
ROOT
ATOM      1  C   UNL     1       7.441  -3.328   3.445  0.00  0.00    +0.236 C 
ATOM      2  O   UNL     1       6.771  -4.297   3.158  0.00  0.00    -0.274 OA
ATOM      3  N   UNL     1       8.720  -3.486   3.840  0.00  0.00    -0.300 N 
ATOM      4  C   UNL     1       9.508  -2.336   4.303  0.00  0.00    +0.107 C 
ATOM      5  C   UNL     1      10.807  -2.269   3.502  0.00  0.00    +0.013 C 
ATOM      6  C   UNL     1      11.533  -3.611   3.597  0.00  0.00    -0.020 C 
ATOM      7  C   UNL     1      10.657  -4.717   3.010  0.00  0.00    +0.013 C 
ATOM      8  C   UNL     1       9.354  -4.811   3.811  0.00  0.00    +0.107 C 
ATOM      9  C   UNL     1      12.835  -3.538   2.840  0.00  0.00    +0.051 A 
ATOM     10  C   UNL     1      14.037  -3.401   3.446  0.00  0.00    +0.035 A 
ATOM     11  N   UNL     1      14.978  -3.373   2.467  0.00  0.00    -0.348 N 
ATOM     12  H   UNL     1      15.966  -3.282   2.593  0.00  0.00    +0.166 HD
ATOM     13  C   UNL     1      14.325  -3.491   1.287  0.00  0.00    +0.196 A 
ATOM     14  N   UNL     1      13.042  -3.588   1.524  0.00  0.00    -0.242 NA
ATOM     15  C   UNL     1      14.209  -3.305   4.940  0.00  0.00    +0.036 C 
ATOM     16  C   UNL     1      12.837  -2.991   5.553  0.00  0.00    -0.075 C 
ATOM     17  N   UNL     1      11.823  -3.922   5.014  0.00  0.00    +0.387 N 
ATOM     18  H   UNL     1      12.177  -4.883   5.083  0.00  0.00    -0.085 HD
ATOM     19  H   UNL     1      10.959  -3.835   5.562  0.00  0.00    -0.085 HD
ENDROOT
BRANCH   1  20
ATOM     20  C   UNL     1       6.844  -1.947   3.361  0.00  0.00    +0.160 C 
BRANCH  20  21
ATOM     21  N   UNL     1       5.596  -2.001   2.596  0.00  0.00    -0.300 N 
ATOM     22  C   UNL     1       5.147  -0.900   1.961  0.00  0.00    +0.245 C 
ATOM     23  O   UNL     1       5.778   0.137   2.023  0.00  0.00    -0.270 OA
ATOM     24  H   UNL     1       5.092  -2.828   2.547  0.00  0.00    +0.150 HD
BRANCH  22  25
ATOM     25  C   UNL     1       3.889  -0.954   1.190  0.00  0.00    +0.040 A 
ATOM     26  C   UNL     1       3.163  -2.145   1.118  0.00  0.00    +0.017 A 
ATOM     27  C   UNL     1       1.989  -2.194   0.398  0.00  0.00    +0.050 A 
ATOM     28  C   UNL     1       1.524  -1.062  -0.258  0.00  0.00    +0.166 A 
ATOM     29  C   UNL     1       2.245   0.131  -0.189  0.00  0.00    +0.167 A 
ATOM     30  C   UNL     1       3.422   0.186   0.531  0.00  0.00    +0.062 A 
ATOM     31  O   UNL     1       1.582   1.082  -0.911  0.00  0.00    -0.453 OA
ATOM     32  C   UNL     1       0.246   0.574  -1.080  0.00  0.00    +0.466 C 
ATOM     33  O   UNL     1       0.413  -0.855  -1.021  0.00  0.00    -0.453 OA
ENDBRANCH  22  25
ENDBRANCH  20  21
BRANCH  20  34
ATOM     34  C   UNL     1       6.556  -1.429   4.772  0.00  0.00    +0.042 C 
BRANCH  34  35
ATOM     35  C   UNL     1       6.077   0.022   4.695  0.00  0.00    +0.071 C 
BRANCH  35  37
ATOM     36  C   UNL     1       5.186   2.345   6.104  0.00  0.00    +0.084 C 
ATOM     37  S   UNL     1       5.736   0.636   6.367  0.00  0.00    -0.164 S 
ENDBRANCH  35  37
ENDBRANCH  34  35
ENDBRANCH  20  34
ENDBRANCH   1  20
TORSDOF 6
