REMARK  Name = ZINC58244115
REMARK  9 active torsions:
REMARK  status: ('A' for Active; 'I' for Inactive)
REMARK    1  A    between atoms: C_1  and  C_2
REMARK    2  A    between atoms: C_2  and  N_3
REMARK    3  A    between atoms: N_3  and  C_4
REMARK    4  A    between atoms: C_4  and  C_6
REMARK    5  A    between atoms: C_4  and  C_7
REMARK    6  A    between atoms: C_14  and  C_16
REMARK    7  A    between atoms: C_16  and  C_17
REMARK    8  A    between atoms: C_17  and  C_19
REMARK    9  A    between atoms: C_17  and  N_24
REMARK                            x       y       z     vdW  Elec       q    Type
REMARK                         _______ _______ _______ _____ _____    ______ ____
ROOT
ATOM      1  N   UNL     1      -1.415  -0.558   0.175  0.00  0.00    -0.295 N 
ATOM      2  C   UNL     1      -2.056  -0.621   1.359  0.00  0.00    +0.218 C 
ATOM      3  O   UNL     1      -3.228  -0.930   1.399  0.00  0.00    -0.276 OA
ENDROOT
BRANCH   1   5
ATOM      4  C   UNL     1       0.122   1.337   0.019  0.00  0.00    +0.024 C 
ATOM      5  C   UNL     1       0.000  -0.184   0.128  0.00  0.00    +0.105 C 
ENDBRANCH   1   5
BRANCH   1   6
ATOM      6  C   UNL     1      -2.134  -0.864  -1.064  0.00  0.00    +0.103 C 
ATOM      7  C   UNL     1      -1.166  -0.791  -2.246  0.00  0.00    +0.033 C 
BRANCH   6   8
ATOM      8  C   UNL     1      -3.244   0.136  -1.261  0.00  0.00    -0.027 A 
ATOM      9  C   UNL     1      -3.042   1.464  -0.935  0.00  0.00    +0.008 A 
ATOM     10  C   UNL     1      -4.059   2.383  -1.116  0.00  0.00    +0.038 A 
ATOM     11  C   UNL     1      -5.280   1.972  -1.624  0.00  0.00    +0.123 A 
ATOM     12  C   UNL     1      -5.480   0.642  -1.950  0.00  0.00    +0.038 A 
ATOM     13  C   UNL     1      -4.460  -0.274  -1.774  0.00  0.00    +0.008 A 
ATOM     14  F   UNL     1      -6.275   2.869  -1.801  0.00  0.00    -0.205 F 
ENDBRANCH   6   8
ENDBRANCH   1   6
BRANCH   2  15
ATOM     15  C   UNL     1      -1.317  -0.306   2.634  0.00  0.00    +0.123 C 
BRANCH  15  16
ATOM     16  C   UNL     1      -2.268  -0.451   3.824  0.00  0.00    +0.120 C 
BRANCH  16  17
ATOM     17  N   UNL     1      -2.681  -1.851   3.951  0.00  0.00    -0.292 N 
ATOM     18  C   UNL     1      -3.847  -2.157   4.553  0.00  0.00    +0.298 C 
ATOM     19  O   UNL     1      -4.556  -1.271   4.991  0.00  0.00    -0.253 OA
ATOM     20  N   UNL     1      -4.228  -3.444   4.670  0.00  0.00    -0.313 N 
ATOM     21  H   UNL     1      -2.115  -2.557   3.602  0.00  0.00    +0.151 HD
ATOM     22  H   UNL     1      -3.662  -4.151   4.321  0.00  0.00    +0.146 HD
ATOM     23  H   UNL     1      -5.067  -3.665   5.104  0.00  0.00    +0.146 HD
ENDBRANCH  16  17
BRANCH  16  24
ATOM     24  C   UNL     1      -1.564  -0.018   5.085  0.00  0.00    +0.010 A 
ATOM     25  C   UNL     1      -1.653   1.159   5.751  0.00  0.00    +0.013 A 
ATOM     26  C   UNL     1      -0.907   1.336   6.901  0.00  0.00    +0.008 A 
ATOM     27  C   UNL     1      -0.108   0.328   7.328  0.00  0.00    +0.045 A 
ATOM     28  S   UNL     1      -0.403  -0.926   6.092  0.00  0.00    -0.100 S 
ENDBRANCH  16  24
ENDBRANCH  15  16
ENDBRANCH   2  15
TORSDOF 7
