REMARK  Name = ZINC14545239
REMARK  9 active torsions:
REMARK  status: ('A' for Active; 'I' for Inactive)
REMARK    1  A    between atoms: C_1  and  C_2
REMARK    2  A    between atoms: C_2  and  O_3
REMARK    3  A    between atoms: O_3  and  C_4
REMARK    4  A    between atoms: C_9  and  C_10
REMARK    5  A    between atoms: C_21  and  S_26
REMARK    6  A    between atoms: S_26  and  N_29
REMARK    7  A    between atoms: N_29  and  C_30
REMARK    8  A    between atoms: C_33  and  C_37
REMARK    9  A    between atoms: C_34  and  C_36
REMARK                            x       y       z     vdW  Elec       q    Type
REMARK                         _______ _______ _______ _____ _____    ______ ____
ROOT
ATOM      1  C   UNL     1       1.336  -1.705   0.477  0.00  0.00    +0.108 C 
ATOM      2  C   UNL     1       0.918  -0.352   1.022  0.00  0.00    +0.029 C 
ATOM      3  C   UNL     1      -0.495   0.035   0.526  0.00  0.00    +0.033 C 
ATOM      4  C   UNL     1      -0.457   1.553   0.545  0.00  0.00    -0.030 C 
ATOM      5  C   UNL     1       0.780   1.980   0.497  0.00  0.00    -0.023 C 
ATOM      6  C   UNL     1       1.746   0.805   0.434  0.00  0.00    +0.049 C 
ATOM      7  C   UNL     1       2.108   0.575  -1.009  0.00  0.00    -0.018 A 
ATOM      8  C   UNL     1       2.705   1.617  -1.706  0.00  0.00    +0.034 A 
ATOM      9  C   UNL     1       3.056   1.461  -3.032  0.00  0.00    +0.109 A 
ATOM     10  C   UNL     1       2.815   0.264  -3.682  0.00  0.00    +0.030 A 
ATOM     11  C   UNL     1       2.222  -0.778  -2.998  0.00  0.00    +0.025 A 
ATOM     12  C   UNL     1       1.870  -0.622  -1.662  0.00  0.00    +0.031 A 
ATOM     13  N   UNL     1       1.274  -1.691  -0.985  0.00  0.00    -0.336 N 
ATOM     14  H   UNL     1       0.823  -2.401  -1.467  0.00  0.00    +0.147 HD
ENDROOT
BRANCH   1  20
ATOM     15  C   UNL     1       3.036  -2.419   2.176  0.00  0.00    +0.125 A 
ATOM     16  C   UNL     1       4.346  -2.684   2.549  0.00  0.00    +0.046 A 
ATOM     17  C   UNL     1       5.369  -2.524   1.634  0.00  0.00    +0.004 A 
ATOM     18  C   UNL     1       5.088  -2.100   0.348  0.00  0.00    +0.001 A 
ATOM     19  C   UNL     1       3.783  -1.840  -0.027  0.00  0.00    +0.009 A 
ATOM     20  C   UNL     1       2.757  -1.994   0.886  0.00  0.00    +0.015 A 
BRANCH  15  21
ATOM     21  O   UNL     1       2.028  -2.575   3.074  0.00  0.00    -0.492 OA
BRANCH  21  23
ATOM     22  C   UNL     1       1.132  -3.134   5.248  0.00  0.00    +0.048 C 
ATOM     23  C   UNL     1       2.390  -3.016   4.385  0.00  0.00    +0.225 C 
ENDBRANCH  21  23
ENDBRANCH  15  21
ENDBRANCH   1  20
BRANCH   9  24
ATOM     24  S   UNL     1       3.814   2.794  -3.900  0.00  0.00    +0.072 S 
ATOM     25  O   UNL     1       4.523   3.558  -2.934  0.00  0.00    -0.150 OA
ATOM     26  O   UNL     1       4.449   2.228  -5.039  0.00  0.00    -0.150 OA
BRANCH  24  27
ATOM     27  N   UNL     1       2.598   3.763  -4.469  0.00  0.00    -0.216 N 
ATOM     28  H   UNL     1       2.467   3.866  -5.425  0.00  0.00    +0.174 HD
BRANCH  27  29
ATOM     29  C   UNL     1       1.759   4.430  -3.574  0.00  0.00    +0.048 A 
ATOM     30  C   UNL     1       0.461   3.980  -3.368  0.00  0.00    +0.025 A 
ATOM     31  C   UNL     1      -0.364   4.639  -2.478  0.00  0.00    +0.005 A 
ATOM     32  C   UNL     1       0.098   5.753  -1.800  0.00  0.00    -0.047 A 
ATOM     33  C   UNL     1       1.388   6.206  -2.006  0.00  0.00    -0.046 A 
ATOM     34  C   UNL     1       2.220   5.548  -2.891  0.00  0.00    +0.028 A 
ATOM     35  C   UNL     1       1.887   7.420  -1.264  0.00  0.00    +0.044 C 
ATOM     36  C   UNL     1      -0.807   6.474  -0.834  0.00  0.00    +0.044 C 
ENDBRANCH  27  29
ENDBRANCH  24  27
ENDBRANCH   9  24
TORSDOF 6
