REMARK  Name = ZINC36561214
REMARK  15 active torsions:
REMARK  status: ('A' for Active; 'I' for Inactive)
REMARK    1  A    between atoms: C_1  and  C_2
REMARK    2  A    between atoms: C_2  and  C_3
REMARK    3  A    between atoms: C_3  and  N_4
REMARK    4  A    between atoms: N_4  and  C_5
REMARK    5  A    between atoms: C_5  and  C_7
REMARK    6  A    between atoms: C_5  and  C_14
REMARK    7  A    between atoms: C_12  and  O_13
REMARK    8  A    between atoms: N_16  and  C_17
REMARK    9  A    between atoms: C_17  and  S_18
REMARK   10  A    between atoms: S_18  and  C_21
REMARK   11  A    between atoms: C_24  and  C_27
REMARK   12  A    between atoms: C_28  and  C_30
REMARK   13  A    between atoms: C_30  and  C_32
REMARK   14  A    between atoms: C_30  and  O_38
REMARK   15  A    between atoms: O_38  and  C_39
REMARK                            x       y       z     vdW  Elec       q    Type
REMARK                         _______ _______ _______ _____ _____    ______ ____
ROOT
ATOM      1  C   UNL     1      -1.726  -2.688   1.421  0.00  0.00    +0.196 C 
ENDROOT
BRANCH   1   2
ATOM      2  C   UNL     1      -2.978  -2.044   1.959  0.00  0.00    +0.023 A 
ATOM      3  C   UNL     1      -2.886  -1.005   2.865  0.00  0.00    +0.009 A 
ATOM      4  C   UNL     1      -4.034  -0.414   3.359  0.00  0.00    +0.001 A 
ATOM      5  C   UNL     1      -5.276  -0.861   2.948  0.00  0.00    +0.004 A 
ATOM      6  C   UNL     1      -5.373  -1.899   2.042  0.00  0.00    +0.046 A 
ATOM      7  C   UNL     1      -4.223  -2.490   1.541  0.00  0.00    +0.122 A 
BRANCH   7   8
ATOM      8  O   UNL     1      -4.315  -3.509   0.645  0.00  0.00    -0.506 OA
ATOM      9  H   UNL     1      -4.433  -4.379   1.050  0.00  0.00    +0.292 HD
ENDBRANCH   7   8
ENDBRANCH   1   2
BRANCH   1  10
ATOM     10  C   UNL     1      -0.554  -2.311   2.290  0.00  0.00    +0.239 C 
ATOM     11  O   UNL     1       0.224  -1.456   1.922  0.00  0.00    -0.273 OA
ATOM     12  N   UNL     1      -0.369  -2.924   3.476  0.00  0.00    -0.294 N 
ATOM     13  H   UNL     1      -0.932  -3.673   3.728  0.00  0.00    +0.150 HD
BRANCH  12  14
ATOM     14  C   UNL     1       0.682  -2.460   4.385  0.00  0.00    +0.278 C 
BRANCH  14  15
ATOM     15  S   UNL     1      -0.026  -1.299   5.585  0.00  0.00    +0.013 S 
ATOM     16  O   UNL     1       0.969  -0.888   6.513  0.00  0.00    -0.168 OA
ATOM     17  O   UNL     1      -0.836  -0.340   4.919  0.00  0.00    -0.168 OA
BRANCH  15  18
ATOM     18  C   UNL     1      -1.156  -2.262   6.534  0.00  0.00    +0.090 A 
ATOM     19  C   UNL     1      -2.473  -2.378   6.130  0.00  0.00    +0.027 A 
ATOM     20  C   UNL     1      -3.360  -3.134   6.874  0.00  0.00    +0.005 A 
ATOM     21  C   UNL     1      -2.930  -3.772   8.022  0.00  0.00    -0.050 A 
ATOM     22  C   UNL     1      -1.613  -3.657   8.425  0.00  0.00    +0.005 A 
ATOM     23  C   UNL     1      -0.725  -2.905   7.679  0.00  0.00    +0.027 A 
ATOM     24  C   UNL     1      -3.897  -4.595   8.834  0.00  0.00    +0.044 C 
ENDBRANCH  15  18
ENDBRANCH  14  15
ENDBRANCH  12  14
ENDBRANCH   1  10
BRANCH   1  25
ATOM     25  N   UNL     1      -1.488  -2.225   0.052  0.00  0.00    -0.283 N 
ATOM     26  C   UNL     1      -1.438  -0.905  -0.214  0.00  0.00    +0.250 C 
ATOM     27  O   UNL     1      -1.603  -0.100   0.678  0.00  0.00    -0.272 OA
BRANCH  25  28
ATOM     28  C   UNL     1      -1.304  -3.197  -1.029  0.00  0.00    +0.109 C 
BRANCH  28  30
ATOM     29  C   UNL     1       0.316  -4.766  -2.104  0.00  0.00    +0.005 C 
ATOM     30  C   UNL     1       0.142  -3.697  -1.024  0.00  0.00    +0.016 C 
ENDBRANCH  28  30
ENDBRANCH  25  28
BRANCH  26  31
ATOM     31  C   UNL     1      -1.179  -0.428  -1.620  0.00  0.00    +0.233 C 
BRANCH  31  32
ATOM     32  C   UNL     1       0.262  -0.685  -1.979  0.00  0.00    -0.010 A 
ATOM     33  C   UNL     1       1.266   0.053  -1.380  0.00  0.00    +0.006 A 
ATOM     34  C   UNL     1       2.587  -0.182  -1.710  0.00  0.00    +0.000 A 
ATOM     35  C   UNL     1       2.905  -1.156  -2.638  0.00  0.00    +0.000 A 
ATOM     36  C   UNL     1       1.902  -1.894  -3.237  0.00  0.00    +0.000 A 
ATOM     37  C   UNL     1       0.580  -1.661  -2.904  0.00  0.00    +0.006 A 
ENDBRANCH  31  32
BRANCH  31  38
ATOM     38  O   UNL     1      -1.449   0.973  -1.706  0.00  0.00    -0.366 OA
ATOM     39  C   UNL     1      -2.799   1.284  -2.057  0.00  0.00    +0.195 C 
ENDBRANCH  31  38
ENDBRANCH  26  31
ENDBRANCH   1  25
TORSDOF 12
