REMARK  Name = ZINC05620266
REMARK  12 active torsions:
REMARK  status: ('A' for Active; 'I' for Inactive)
REMARK    1  A    between atoms: C_1  and  C_2
REMARK    2  A    between atoms: C_4  and  C_29
REMARK    3  A    between atoms: C_5  and  N_9
REMARK    4  A    between atoms: C_6  and  C_8
REMARK    5  A    between atoms: C_10  and  C_12
REMARK    6  A    between atoms: C_12  and  C_14
REMARK    7  A    between atoms: C_12  and  O_15
REMARK    8  A    between atoms: O_15  and  C_16
REMARK    9  A    between atoms: C_16  and  C_18
REMARK   10  A    between atoms: C_20  and  N_26
REMARK   11  A    between atoms: C_23  and  N_24
REMARK   12  A    between atoms: N_24  and  C_25
REMARK                            x       y       z     vdW  Elec       q    Type
REMARK                         _______ _______ _______ _____ _____    ______ ____
ROOT
ATOM      1  C   UNL     1       4.217   5.789   0.493  0.00  0.00    +0.259 C 
ATOM      2  C   UNL     1       3.706   6.136  -0.907  0.00  0.00    +0.062 C 
ENDROOT
BRANCH   1   4
ATOM      3  N   UNL     1       4.658   8.144   1.108  0.00  0.00    -0.282 N 
ATOM      4  C   UNL     1       4.044   6.980   1.400  0.00  0.00    +0.258 C 
ATOM      5  O   UNL     1       3.353   6.891   2.392  0.00  0.00    -0.271 OA
ATOM      6  H   UNL     1       5.144   8.240   0.274  0.00  0.00    +0.155 HD
BRANCH   3  11
ATOM      7  C   UNL     1       4.400  12.480   4.757  0.00  0.00    +0.044 C 
ATOM      8  C   UNL     1       4.469  11.328   3.788  0.00  0.00    -0.050 A 
ATOM      9  C   UNL     1       3.303  10.763   3.304  0.00  0.00    +0.008 A 
ATOM     10  C   UNL     1       3.362   9.708   2.415  0.00  0.00    -0.029 A 
ATOM     11  C   UNL     1       4.595   9.213   2.008  0.00  0.00    +0.039 A 
ATOM     12  C   UNL     1       5.763   9.779   2.501  0.00  0.00    -0.029 A 
ATOM     13  C   UNL     1       5.697  10.838   3.385  0.00  0.00    +0.008 A 
ATOM     14  C   UNL     1       7.103   9.242   2.066  0.00  0.00    +0.045 C 
ATOM     15  C   UNL     1       2.091   9.093   1.888  0.00  0.00    +0.045 C 
ENDBRANCH   3  11
ENDBRANCH   1   4
BRANCH   1  16
ATOM     16  O   UNL     1       3.462   4.666   1.019  0.00  0.00    -0.449 OA
BRANCH  16  17
ATOM     17  C   UNL     1       3.940   3.433   0.762  0.00  0.00    +0.342 C 
ATOM     18  O   UNL     1       4.960   3.299   0.115  0.00  0.00    -0.245 OA
BRANCH  17  19
ATOM     19  C   UNL     1       3.226   2.246   1.265  0.00  0.00    +0.082 A 
ATOM     20  C   UNL     1       1.991   2.387   1.905  0.00  0.00    +0.049 A 
ATOM     21  C   UNL     1       1.329   1.274   2.373  0.00  0.00    +0.127 A 
ATOM     22  C   UNL     1       1.878   0.012   2.208  0.00  0.00    +0.034 A 
ATOM     23  C   UNL     1       3.098  -0.144   1.584  0.00  0.00    +0.026 A 
ATOM     24  C   UNL     1       3.782   0.967   1.105  0.00  0.00    +0.041 A 
BRANCH  24  25
ATOM     25  N   UNL     1       5.008   0.813   0.471  0.00  0.00    -0.346 N 
ATOM     26  C   UNL     1       5.645  -0.505   0.421  0.00  0.00    +0.125 C 
ATOM     27  H   UNL     1       5.442   1.577   0.062  0.00  0.00    +0.146 HD
ENDBRANCH  24  25
BRANCH  21  28
ATOM     28  N   UNL     1       0.021   1.426   3.049  0.00  0.00    +0.056 N 
ATOM     29  O   UNL     1      -0.466   2.533   3.191  0.00  0.00    -0.126 OA
ATOM     30  O   UNL     1      -0.567   0.443   3.465  0.00  0.00    -0.126 OA
ENDBRANCH  21  28
ENDBRANCH  17  19
ENDBRANCH  16  17
ENDBRANCH   1  16
TORSDOF 7
