REMARK  Name = ZINC40369675
REMARK  6 active torsions:
REMARK  status: ('A' for Active; 'I' for Inactive)
REMARK    1  A    between atoms: C_1  and  C_2
REMARK    2  A    between atoms: C_3  and  C_7
REMARK    3  A    between atoms: N_9  and  C_10
REMARK    4  A    between atoms: C_10  and  C_12
REMARK    5  A    between atoms: C_10  and  C_18
REMARK    6  A    between atoms: N_19  and  O_20
REMARK                            x       y       z     vdW  Elec       q    Type
REMARK                         _______ _______ _______ _____ _____    ______ ____
ROOT
ATOM      1  C   UNL     1      -0.014  -0.661  -4.963  0.00  0.00    +0.143 C 
ENDROOT
BRANCH   1   2
ATOM      2  C   UNL     1       0.605  -1.724  -5.872  0.00  0.00    +0.017 C 
ATOM      3  C   UNL     1       2.049  -1.988  -5.437  0.00  0.00    +0.006 C 
ATOM      4  C   UNL     1       2.668  -3.052  -6.345  0.00  0.00    +0.000 C 
ATOM      5  C   UNL     1       2.654  -2.557  -7.793  0.00  0.00    +0.000 C 
ATOM      6  C   UNL     1       1.211  -2.293  -8.228  0.00  0.00    +0.000 C 
ATOM      7  C   UNL     1       0.591  -1.230  -7.319  0.00  0.00    +0.006 C 
ENDBRANCH   1   2
BRANCH   1   8
ATOM      8  C   UNL     1      -1.436  -0.401  -5.391  0.00  0.00    +0.152 C 
ATOM      9  N   UNL     1      -2.390  -1.153  -4.953  0.00  0.00    -0.075 NA
ATOM     10  N   UNL     1      -1.717   0.639  -6.249  0.00  0.00    -0.342 N 
ATOM     11  H   UNL     1      -1.001   1.204  -6.578  0.00  0.00    +0.144 HD
ATOM     12  H   UNL     1      -2.632   0.806  -6.525  0.00  0.00    +0.144 HD
BRANCH   9  13
ATOM     13  O   UNL     1      -3.726  -0.909  -5.355  0.00  0.00    -0.408 OA
ATOM     14  H   UNL     1      -4.369  -1.523  -4.976  0.00  0.00    +0.328 HD
ENDBRANCH   9  13
ENDBRANCH   1   8
BRANCH   1  17
ATOM     15  C   UNL     1      -0.008  -0.248  -2.562  0.00  0.00    +0.253 C 
ATOM     16  O   UNL     1      -0.025   0.946  -2.797  0.00  0.00    -0.270 OA
ATOM     17  N   UNL     1      -0.001  -1.134  -3.577  0.00  0.00    -0.301 N 
ATOM     18  H   UNL     1       0.013  -2.086  -3.389  0.00  0.00    +0.150 HD
BRANCH  15  21
ATOM     19  C   UNL     1      -0.018   1.503   0.010  0.00  0.00    +0.067 C 
ATOM     20  C   UNL     1       0.002  -0.004   0.002  0.00  0.00    +0.058 A 
ATOM     21  C   UNL     1       0.006  -0.722  -1.174  0.00  0.00    +0.096 A 
ATOM     22  S   UNL     1       0.032  -2.390  -0.537  0.00  0.00    -0.071 S 
ATOM     23  C   UNL     1       0.035  -2.012   1.103  0.00  0.00    +0.156 A 
ATOM     24  N   UNL     1       0.022  -0.699   1.113  0.00  0.00    -0.252 NA
ENDBRANCH  15  21
ENDBRANCH   1  17
TORSDOF 5
