REMARK  Name = ZINC21244487
REMARK  9 active torsions:
REMARK  status: ('A' for Active; 'I' for Inactive)
REMARK    1  A    between atoms: C_1  and  C_2
REMARK    2  A    between atoms: C_2  and  C_3
REMARK    3  A    between atoms: C_3  and  N_4
REMARK    4  A    between atoms: C_8  and  S_9
REMARK    5  A    between atoms: S_9  and  C_10
REMARK    6  A    between atoms: C_10  and  C_11
REMARK    7  A    between atoms: C_17  and  C_23
REMARK    8  A    between atoms: C_18  and  C_22
REMARK    9  A    between atoms: C_26  and  C_29
REMARK                            x       y       z     vdW  Elec       q    Type
REMARK                         _______ _______ _______ _____ _____    ______ ____
ROOT
ATOM      1  C   UNL     1      -1.471  -3.408  -5.232  0.00  0.00    +0.121 A 
ATOM      2  N   UNL     1      -1.476  -4.405  -6.154  0.00  0.00    -0.310 N 
ATOM      3  H   UNL     1      -1.462  -5.328  -5.856  0.00  0.00    +0.170 HD
ATOM      4  C   UNL     1      -1.500  -4.138  -7.473  0.00  0.00    +0.260 A 
ATOM      5  O   UNL     1      -1.505  -5.044  -8.288  0.00  0.00    -0.267 OA
ATOM      6  C   UNL     1      -1.520  -2.773  -7.904  0.00  0.00    +0.080 A 
ATOM      7  C   UNL     1      -1.548  -2.233  -9.258  0.00  0.00    +0.007 A 
ATOM      8  C   UNL     1      -1.563  -0.888  -9.423  0.00  0.00    -0.003 A 
ATOM      9  S   UNL     1      -1.542  -0.267  -7.753  0.00  0.00    -0.073 S 
ATOM     10  C   UNL     1      -1.512  -1.812  -6.880  0.00  0.00    +0.116 A 
ATOM     11  N   UNL     1      -1.494  -2.154  -5.594  0.00  0.00    -0.226 NA
ATOM     12  C   UNL     1      -1.592  -0.106 -10.711  0.00  0.00    +0.052 C 
ENDROOT
BRANCH   7  13
ATOM     13  C   UNL     1      -1.558  -3.139 -10.432  0.00  0.00    -0.016 A 
ATOM     14  C   UNL     1      -0.463  -3.963 -10.689  0.00  0.00    +0.009 A 
ATOM     15  C   UNL     1      -0.478  -4.804 -11.783  0.00  0.00    +0.004 A 
ATOM     16  C   UNL     1      -1.577  -4.830 -12.623  0.00  0.00    -0.050 A 
ATOM     17  C   UNL     1      -2.666  -4.015 -12.373  0.00  0.00    +0.004 A 
ATOM     18  C   UNL     1      -2.664  -3.173 -11.279  0.00  0.00    +0.009 A 
ATOM     19  C   UNL     1      -1.587  -5.751 -13.816  0.00  0.00    +0.044 C 
ENDBRANCH   7  13
BRANCH   1  20
ATOM     20  C   UNL     1      -1.444  -3.755  -3.766  0.00  0.00    +0.151 C 
BRANCH  20  21
ATOM     21  S   UNL     1      -1.451  -2.231  -2.783  0.00  0.00    -0.078 S 
BRANCH  21  26
ATOM     22  N   UNL     1      -1.413  -1.998   0.005  0.00  0.00    -0.271 N 
ATOM     23  C   UNL     1      -1.393  -2.793   1.093  0.00  0.00    +0.345 A 
ATOM     24  N   UNL     1      -1.379  -4.072   0.664  0.00  0.00    -0.226 N 
ATOM     25  N   UNL     1      -1.392  -4.044  -0.738  0.00  0.00    -0.145 NA
ATOM     26  C   UNL     1      -1.419  -2.798  -1.115  0.00  0.00    +0.192 A 
ATOM     27  O   UNL     1      -1.387  -2.424   2.254  0.00  0.00    -0.245 OA
ATOM     28  H   UNL     1      -1.363  -4.865   1.222  0.00  0.00    +0.194 HD
BRANCH  22  29
ATOM     29  C   UNL     1      -1.433  -0.534   0.013  0.00  0.00    +0.129 C 
BRANCH  29  31
ATOM     30  C   UNL     1      -0.019   1.526   0.010  0.00  0.00    +0.005 C 
ATOM     31  C   UNL     1       0.002  -0.004   0.002  0.00  0.00    +0.018 C 
ENDBRANCH  29  31
ENDBRANCH  22  29
ENDBRANCH  21  26
ENDBRANCH  20  21
ENDBRANCH   1  20
TORSDOF 6
