REMARK  Name = ZINC40371525
REMARK  4 active torsions:
REMARK  status: ('A' for Active; 'I' for Inactive)
REMARK    1  A    between atoms: C_5  and  C_9
REMARK    2  A    between atoms: C_5  and  N_13
REMARK    3  A    between atoms: N_10  and  O_11
REMARK    4  A    between atoms: C_14  and  C_16
REMARK                            x       y       z     vdW  Elec       q    Type
REMARK                         _______ _______ _______ _____ _____    ______ ____
ROOT
ATOM      1  C   UNL     1      -0.691   0.833   0.017  0.00  0.00    +0.000 C 
ATOM      2  C   UNL     1       0.472   1.833   0.088  0.00  0.00    +0.000 C 
ATOM      3  C   UNL     1       1.589   1.356  -0.856  0.00  0.00    +0.002 C 
ATOM      4  C   UNL     1       1.334   1.653  -2.346  0.00  0.00    +0.033 C 
ATOM      5  C   UNL     1       0.323   0.631  -2.900  0.00  0.00    +0.093 C 
ATOM      6  C   UNL     1       0.648  -0.762  -2.356  0.00  0.00    +0.033 C 
ATOM      7  C   UNL     1      -0.403  -1.242  -1.358  0.00  0.00    +0.002 C 
ATOM      8  C   UNL     1      -0.164  -0.600   0.013  0.00  0.00    +0.000 C 
ENDROOT
BRANCH   5   9
ATOM      9  C   UNL     1       0.626   0.556  -4.405  0.00  0.00    +0.155 C 
ATOM     10  N   UNL     1       1.745   0.058  -4.814  0.00  0.00    -0.075 NA
ATOM     11  N   UNL     1      -0.296   1.020  -5.317  0.00  0.00    -0.342 N 
ATOM     12  H   UNL     1      -1.080   1.503  -5.011  0.00  0.00    +0.144 HD
ATOM     13  H   UNL     1      -0.161   0.864  -6.265  0.00  0.00    +0.144 HD
BRANCH  10  14
ATOM     14  O   UNL     1       2.716  -0.369  -3.875  0.00  0.00    -0.408 OA
ATOM     15  H   UNL     1       3.520  -0.727  -4.276  0.00  0.00    +0.328 HD
ENDBRANCH  10  14
ENDBRANCH   5   9
BRANCH   5  16
ATOM     16  N   UNL     1      -1.049   1.052  -2.793  0.00  0.00    -0.301 N 
ATOM     17  C   UNL     1      -2.030   0.295  -3.323  0.00  0.00    +0.243 C 
ATOM     18  O   UNL     1      -1.769  -0.792  -3.794  0.00  0.00    -0.273 OA
ATOM     19  H   UNL     1      -1.267   1.881  -2.339  0.00  0.00    +0.150 HD
BRANCH  17  20
ATOM     20  C   UNL     1      -3.450   0.799  -3.330  0.00  0.00    +0.204 C 
ATOM     21  C   UNL     1      -3.967   0.929  -1.882  0.00  0.00    +0.043 C 
ATOM     22  C   UNL     1      -5.435   0.438  -2.011  0.00  0.00    +0.031 C 
ATOM     23  C   UNL     1      -5.286  -0.649  -3.105  0.00  0.00    +0.161 C 
ATOM     24  O   UNL     1      -4.294  -0.136  -4.011  0.00  0.00    -0.367 OA
ENDBRANCH  17  20
ENDBRANCH   5  16
TORSDOF 4
