REMARK  Name = ZINC10040794
REMARK  14 active torsions:
REMARK  status: ('A' for Active; 'I' for Inactive)
REMARK    1  A    between atoms: C_1  and  C_2
REMARK    2  A    between atoms: C_2  and  C_3
REMARK    3  A    between atoms: C_2  and  C_4
REMARK    4  A    between atoms: C_4  and  C_6
REMARK    5  A    between atoms: C_4  and  N_23
REMARK    6  A    between atoms: N_8  and  N_9
REMARK    7  A    between atoms: C_10  and  C_11
REMARK    8  A    between atoms: C_13  and  O_21
REMARK    9  A    between atoms: C_14  and  O_19
REMARK   10  A    between atoms: C_15  and  O_17
REMARK   11  A    between atoms: O_17  and  C_18
REMARK   12  A    between atoms: O_19  and  C_20
REMARK   13  A    between atoms: O_21  and  C_22
REMARK   14  A    between atoms: C_24  and  C_26
REMARK                            x       y       z     vdW  Elec       q    Type
REMARK                         _______ _______ _______ _____ _____    ______ ____
ROOT
ATOM      1  C   UNL     1       2.881   4.117   2.353  0.00  0.00    +0.253 C 
ATOM      2  O   UNL     1       2.796   4.545   3.486  0.00  0.00    -0.272 OA
ATOM      3  N   UNL     1       3.554   2.975   2.113  0.00  0.00    -0.205 N 
ATOM      4  H   UNL     1       4.095   2.574   2.812  0.00  0.00    +0.177 HD
ENDROOT
BRANCH   3   5
ATOM      5  N   UNL     1       3.473   2.365   0.854  0.00  0.00    -0.188 NA
ATOM      6  C   UNL     1       4.131   1.272   0.619  0.00  0.00    +0.138 C 
BRANCH   6   7
ATOM      7  C   UNL     1       5.013   0.704   1.656  0.00  0.00    +0.002 A 
ATOM      8  C   UNL     1       6.315   1.186   1.808  0.00  0.00    +0.059 A 
ATOM      9  C   UNL     1       7.138   0.655   2.785  0.00  0.00    +0.166 A 
ATOM     10  C   UNL     1       6.673  -0.365   3.609  0.00  0.00    +0.204 A 
ATOM     11  C   UNL     1       5.378  -0.851   3.456  0.00  0.00    +0.166 A 
ATOM     12  C   UNL     1       4.549  -0.320   2.485  0.00  0.00    +0.059 A 
BRANCH  11  13
ATOM     13  O   UNL     1       4.928  -1.849   4.263  0.00  0.00    -0.491 OA
ATOM     14  C   UNL     1       3.588  -2.300   4.051  0.00  0.00    +0.277 C 
ENDBRANCH  11  13
BRANCH  10  15
ATOM     15  O   UNL     1       7.486  -0.888   4.565  0.00  0.00    -0.488 OA
ATOM     16  C   UNL     1       8.297  -2.003   4.189  0.00  0.00    +0.277 C 
ENDBRANCH  10  15
BRANCH   9  17
ATOM     17  O   UNL     1       8.404   1.127   2.936  0.00  0.00    -0.491 OA
ATOM     18  C   UNL     1       8.782   2.243   2.127  0.00  0.00    +0.277 C 
ENDBRANCH   9  17
ENDBRANCH   6   7
ENDBRANCH   3   5
BRANCH   1  19
ATOM     19  C   UNL     1       2.234   4.864   1.216  0.00  0.00    +0.163 C 
BRANCH  19  20
ATOM     20  N   UNL     1       1.155   5.707   1.736  0.00  0.00    -0.300 N 
ATOM     21  C   UNL     1       0.132   6.065   0.935  0.00  0.00    +0.245 C 
ATOM     22  O   UNL     1       0.105   5.688  -0.221  0.00  0.00    -0.270 OA
ATOM     23  H   UNL     1       1.176   6.008   2.658  0.00  0.00    +0.150 HD
BRANCH  21  24
ATOM     24  C   UNL     1      -0.956   6.915   1.460  0.00  0.00    +0.038 A 
ATOM     25  C   UNL     1      -0.931   7.345   2.788  0.00  0.00    +0.014 A 
ATOM     26  C   UNL     1      -1.946   8.143   3.272  0.00  0.00    +0.022 A 
ATOM     27  C   UNL     1      -2.996   8.509   2.446  0.00  0.00    +0.059 A 
ATOM     28  C   UNL     1      -3.030   8.082   1.128  0.00  0.00    +0.060 A 
ATOM     29  C   UNL     1      -2.016   7.287   0.632  0.00  0.00    +0.034 A 
ATOM     30 CL   UNL     1      -4.350   8.546   0.100  0.00  0.00    -0.082 Cl
ATOM     31 CL   UNL     1      -4.274   9.508   3.064  0.00  0.00    -0.082 Cl
ENDBRANCH  21  24
ENDBRANCH  19  20
BRANCH  19  33
ATOM     32  C   UNL     1       4.200   4.863  -0.325  0.00  0.00    +0.009 C 
ATOM     33  C   UNL     1       3.277   5.741   0.522  0.00  0.00    +0.012 C 
ATOM     34  C   UNL     1       2.572   6.758  -0.379  0.00  0.00    +0.009 C 
ENDBRANCH  19  33
ENDBRANCH   1  19
TORSDOF 9
