REMARK  Name = ZINC22853017
REMARK  5 active torsions:
REMARK  status: ('A' for Active; 'I' for Inactive)
REMARK    1  A    between atoms: C_1  and  C_2
REMARK    2  A    between atoms: C_2  and  C_3
REMARK    3  A    between atoms: C_9  and  C_11
REMARK    4  A    between atoms: C_11  and  C_13
REMARK    5  A    between atoms: C_11  and  N_18
REMARK                            x       y       z     vdW  Elec       q    Type
REMARK                         _______ _______ _______ _____ _____    ______ ____
ROOT
ATOM      1  C   UNL     1      -1.054   5.133   0.037  0.00  0.00    +0.012 C 
ENDROOT
BRANCH   1   8
ATOM      2  C   UNL     1      -1.974   7.046   5.610  0.00  0.00    +0.152 A 
ATOM      3  N   UNL     1      -2.875   6.218   5.084  0.00  0.00    -0.205 NA
ATOM      4  C   UNL     1      -2.516   5.905   3.869  0.00  0.00    +0.199 A 
ATOM      5  N   UNL     1      -1.347   6.532   3.562  0.00  0.00    -0.170 N 
ATOM      6  N   UNL     1      -1.031   7.268   4.734  0.00  0.00    -0.146 NA
ATOM      7  C   UNL     1      -0.821   6.307   2.313  0.00  0.00    +0.282 A 
ATOM      8  C   UNL     1      -1.450   5.508   1.442  0.00  0.00    +0.051 A 
ATOM      9  S   UNL     1      -2.878   4.997   2.385  0.00  0.00    -0.050 S 
ATOM     10  O   UNL     1       0.347   6.905   1.956  0.00  0.00    -0.265 OA
BRANCH   2  12
ATOM     11  C   UNL     1      -1.313   6.704   7.975  0.00  0.00    +0.012 C 
ATOM     12  C   UNL     1      -2.033   7.633   6.996  0.00  0.00    +0.075 C 
ENDBRANCH   2  12
ENDBRANCH   1   8
BRANCH   1  13
ATOM     13  N   UNL     1      -2.227   5.218  -0.842  0.00  0.00    +0.388 N 
ATOM     14  C   UNL     1      -2.818   6.581  -0.811  0.00  0.00    -0.078 C 
ATOM     15  C   UNL     1      -3.646   6.638  -2.119  0.00  0.00    -0.020 C 
ATOM     16  C   UNL     1      -2.763   5.859  -3.122  0.00  0.00    -0.020 C 
ATOM     17  C   UNL     1      -1.853   4.973  -2.251  0.00  0.00    -0.078 C 
ATOM     18  H   UNL     1      -2.932   4.458  -0.474  0.00  0.00    -0.080 HD
ENDBRANCH   1  13
BRANCH   1  19
ATOM     19  C   UNL     1      -0.518   3.725   0.025  0.00  0.00    -0.019 A 
ATOM     20  C   UNL     1       0.770   3.301   0.012  0.00  0.00    +0.010 A 
ATOM     21  C   UNL     1       1.029   1.944   0.003  0.00  0.00    +0.008 A 
ATOM     22  C   UNL     1      -0.013   1.076   0.008  0.00  0.00    +0.045 A 
ATOM     23  S   UNL     1      -1.415   2.181   0.019  0.00  0.00    -0.103 S 
ENDBRANCH   1  19
TORSDOF 4
