REMARK  Name = ZINC39596083
REMARK  8 active torsions:
REMARK  status: ('A' for Active; 'I' for Inactive)
REMARK    1  A    between atoms: C_1  and  C_2
REMARK    2  A    between atoms: C_4  and  C_9
REMARK    3  A    between atoms: C_13  and  C_22
REMARK    4  A    between atoms: N_24  and  C_25
REMARK    5  A    between atoms: C_25  and  C_26
REMARK    6  A    between atoms: C_26  and  C_28
REMARK    7  A    between atoms: C_26  and  O_29
REMARK    8  A    between atoms: O_29  and  C_30
REMARK                            x       y       z     vdW  Elec       q    Type
REMARK                         _______ _______ _______ _____ _____    ______ ____
ROOT
ATOM      1  C   UNL     1      -1.192  -2.337  -3.274  0.00  0.00    +0.247 C 
ATOM      2  O   UNL     1      -1.527  -1.866  -4.344  0.00  0.00    -0.270 OA
ATOM      3  N   UNL     1      -0.845  -3.637  -3.189  0.00  0.00    -0.296 N 
ATOM      4  C   UNL     1      -0.537  -4.417  -1.967  0.00  0.00    +0.121 C 
ATOM      5  C   UNL     1      -1.179  -5.800  -2.214  0.00  0.00    +0.100 C 
ATOM      6  C   UNL     1      -1.272  -5.921  -3.744  0.00  0.00    -0.004 C 
ATOM      7  C   UNL     1      -0.692  -4.611  -4.296  0.00  0.00    +0.115 C 
ATOM      8  C   UNL     1      -2.728  -6.069  -4.175  0.00  0.00    -0.010 C 
ATOM      9  C   UNL     1      -2.791  -6.245  -5.695  0.00  0.00    -0.082 C 
ATOM     10  N   UNL     1      -2.022  -7.434  -6.083  0.00  0.00    +0.379 N 
ATOM     11  C   UNL     1      -0.605  -7.245  -5.749  0.00  0.00    -0.082 C 
ATOM     12  C   UNL     1      -0.450  -7.111  -4.232  0.00  0.00    -0.010 C 
ATOM     13  H   UNL     1      -2.378  -8.239  -5.591  0.00  0.00    -0.086 HD
ATOM     14  H   UNL     1      -2.115  -7.582  -7.077  0.00  0.00    -0.086 HD
ENDROOT
BRANCH   1  18
ATOM     15  C   UNL     1      -2.701   1.750  -0.845  0.00  0.00    +0.047 C 
ATOM     16  C   UNL     1      -1.889   0.481  -0.895  0.00  0.00    -0.015 A 
ATOM     17  C   UNL     1      -1.918  -0.310  -2.023  0.00  0.00    +0.019 A 
ATOM     18  C   UNL     1      -1.165  -1.485  -2.068  0.00  0.00    +0.037 A 
ATOM     19  C   UNL     1      -0.386  -1.852  -0.968  0.00  0.00    +0.016 A 
ATOM     20  C   UNL     1      -0.365  -1.053   0.155  0.00  0.00    +0.039 A 
ATOM     21  C   UNL     1      -1.111   0.115   0.192  0.00  0.00    +0.126 A 
ATOM     22  F   UNL     1      -1.082   0.897   1.294  0.00  0.00    -0.205 F 
ENDBRANCH   1  18
BRANCH   5  23
ATOM     23  C   UNL     1      -2.552  -5.859  -1.596  0.00  0.00    +0.218 C 
ATOM     24  O   UNL     1      -3.219  -4.851  -1.502  0.00  0.00    -0.275 OA
ATOM     25  N   UNL     1      -3.039  -7.034  -1.148  0.00  0.00    -0.312 N 
ATOM     26  H   UNL     1      -2.505  -7.840  -1.223  0.00  0.00    +0.149 HD
BRANCH  25  27
ATOM     27  C   UNL     1      -4.373  -7.091  -0.547  0.00  0.00    +0.148 C 
BRANCH  27  28
ATOM     28  C   UNL     1      -4.681  -8.530  -0.125  0.00  0.00    +0.187 C 
ATOM     29  C   UNL     1      -6.075  -8.590   0.502  0.00  0.00    +0.053 C 
BRANCH  28  30
ATOM     30  O   UNL     1      -4.638  -9.382  -1.271  0.00  0.00    -0.488 OA
BRANCH  30  31
ATOM     31  C   UNL     1      -4.363 -10.695  -1.054  0.00  0.00    +0.121 A 
ATOM     32  C   UNL     1      -4.186 -11.554  -2.128  0.00  0.00    +0.048 A 
ATOM     33  C   UNL     1      -3.906 -12.889  -1.906  0.00  0.00    +0.042 A 
ATOM     34  C   UNL     1      -3.804 -13.369  -0.611  0.00  0.00    +0.124 A 
ATOM     35  C   UNL     1      -3.981 -12.513   0.462  0.00  0.00    +0.042 A 
ATOM     36  C   UNL     1      -4.254 -11.176   0.242  0.00  0.00    +0.048 A 
ATOM     37  F   UNL     1      -3.531 -14.675  -0.395  0.00  0.00    -0.205 F 
ENDBRANCH  30  31
ENDBRANCH  28  30
ENDBRANCH  27  28
ENDBRANCH  25  27
ENDBRANCH   5  23
TORSDOF 6
