REMARK  Name = ZINC59401644
REMARK  14 active torsions:
REMARK  status: ('A' for Active; 'I' for Inactive)
REMARK    1  A    between atoms: C_1  and  C_2
REMARK    2  A    between atoms: C_2  and  C_3
REMARK    3  A    between atoms: C_8  and  N_9
REMARK    4  A    between atoms: N_9  and  C_10
REMARK    5  A    between atoms: N_9  and  S_28
REMARK    6  A    between atoms: C_10  and  C_11
REMARK    7  A    between atoms: N_13  and  N_14
REMARK    8  A    between atoms: C_15  and  C_16
REMARK    9  A    between atoms: C_20  and  O_22
REMARK   10  A    between atoms: O_22  and  C_23
REMARK   11  A    between atoms: C_23  and  C_24
REMARK   12  A    between atoms: C_24  and  O_26
REMARK   13  A    between atoms: O_26  and  C_27
REMARK   14  A    between atoms: S_28  and  C_31
REMARK                            x       y       z     vdW  Elec       q    Type
REMARK                         _______ _______ _______ _____ _____    ______ ____
ROOT
ATOM      1  C   UNL     1      -0.015  -0.175   3.818  0.00  0.00    +0.228 C 
ENDROOT
BRANCH   1   2
ATOM      2  C   UNL     1      -0.431   0.877   4.813  0.00  0.00    +0.251 C 
ATOM      3  O   UNL     1      -1.442   1.521   4.629  0.00  0.00    -0.272 OA
ATOM      4  N   UNL     1       0.322   1.102   5.909  0.00  0.00    -0.206 N 
ATOM      5  H   UNL     1       1.130   0.587   6.056  0.00  0.00    +0.177 HD
BRANCH   4   6
ATOM      6  N   UNL     1      -0.065   2.081   6.834  0.00  0.00    -0.188 NA
ATOM      7  C   UNL     1       0.659   2.298   7.889  0.00  0.00    +0.138 C 
BRANCH   7   8
ATOM      8  C   UNL     1       0.253   3.328   8.863  0.00  0.00    -0.002 A 
ATOM      9  C   UNL     1      -0.915   4.067   8.656  0.00  0.00    +0.010 A 
ATOM     10  C   UNL     1      -1.291   5.029   9.570  0.00  0.00    +0.004 A 
ATOM     11  C   UNL     1      -0.517   5.266  10.691  0.00  0.00    +0.046 A 
ATOM     12  C   UNL     1       0.645   4.536  10.906  0.00  0.00    +0.122 A 
ATOM     13  C   UNL     1       1.030   3.563   9.999  0.00  0.00    +0.055 A 
BRANCH  12  14
ATOM     14  O   UNL     1       1.401   4.774  12.009  0.00  0.00    -0.481 OA
BRANCH  14  15
ATOM     15  C   UNL     1       0.941   5.787  12.906  0.00  0.00    +0.349 C 
BRANCH  15  16
ATOM     16  C   UNL     1       1.900   5.908  14.062  0.00  0.00    +0.345 C 
ATOM     17  O   UNL     1       2.878   5.199  14.113  0.00  0.00    -0.247 OA
BRANCH  16  18
ATOM     18  O   UNL     1       1.669   6.803  15.035  0.00  0.00    -0.466 OA
ATOM     19  C   UNL     1       2.620   6.863  16.100  0.00  0.00    +0.280 C 
ENDBRANCH  16  18
ENDBRANCH  15  16
ENDBRANCH  14  15
ENDBRANCH  12  14
ENDBRANCH   7   8
ENDBRANCH   4   6
ENDBRANCH   1   2
BRANCH   1  20
ATOM     20  N   UNL     1      -0.893  -0.113   2.646  0.00  0.00    -0.194 N 
BRANCH  20  26
ATOM     21  C   UNL     1       0.492   0.591   0.799  0.00  0.00    -0.025 A 
ATOM     22  C   UNL     1       0.759   1.478  -0.225  0.00  0.00    +0.005 A 
ATOM     23  C   UNL     1      -0.071   2.563  -0.436  0.00  0.00    +0.000 A 
ATOM     24  C   UNL     1      -1.172   2.764   0.377  0.00  0.00    +0.002 A 
ATOM     25  C   UNL     1      -1.446   1.880   1.402  0.00  0.00    +0.025 A 
ATOM     26  C   UNL     1      -0.616   0.786   1.613  0.00  0.00    +0.055 A 
BRANCH  21  28
ATOM     27  C   UNL     1       2.496  -0.607  -0.036  0.00  0.00    +0.009 C 
ATOM     28  C   UNL     1       1.398  -0.591   1.029  0.00  0.00    +0.033 C 
ENDBRANCH  21  28
ENDBRANCH  20  26
BRANCH  20  29
ATOM     29  S   UNL     1      -2.213  -1.108   2.547  0.00  0.00    +0.075 S 
ATOM     30  O   UNL     1      -3.252  -0.346   1.948  0.00  0.00    -0.150 OA
ATOM     31  O   UNL     1      -1.755  -2.336   1.997  0.00  0.00    -0.150 OA
BRANCH  29  32
ATOM     32  C   UNL     1      -2.729  -1.455   4.195  0.00  0.00    +0.109 A 
ATOM     33  C   UNL     1      -2.254  -2.579   4.846  0.00  0.00    +0.029 A 
ATOM     34  C   UNL     1      -2.659  -2.851   6.139  0.00  0.00    +0.002 A 
ATOM     35  C   UNL     1      -3.538  -2.000   6.782  0.00  0.00    +0.000 A 
ATOM     36  C   UNL     1      -4.013  -0.876   6.131  0.00  0.00    +0.002 A 
ATOM     37  C   UNL     1      -3.604  -0.602   4.840  0.00  0.00    +0.029 A 
ENDBRANCH  29  32
ENDBRANCH  20  29
ENDBRANCH   1  20
TORSDOF 12
