REMARK  Name = ZINC00946751
REMARK  9 active torsions:
REMARK  status: ('A' for Active; 'I' for Inactive)
REMARK    1  A    between atoms: C_1  and  C_2
REMARK    2  A    between atoms: C_2  and  C_3
REMARK    3  A    between atoms: C_2  and  C_4
REMARK    4  A    between atoms: C_4  and  C_5
REMARK    5  A    between atoms: C_8  and  C_11
REMARK    6  A    between atoms: C_13  and  C_17
REMARK    7  A    between atoms: N_19  and  N_20
REMARK    8  A    between atoms: C_21  and  C_22
REMARK    9  A    between atoms: C_27  and  O_28
REMARK                            x       y       z     vdW  Elec       q    Type
REMARK                         _______ _______ _______ _____ _____    ______ ____
ROOT
ATOM      1  C   UNL     1       6.369   9.661  -0.006  0.00  0.00    +0.093 A 
ATOM      2  C   UNL     1       4.981   9.430  -0.001  0.00  0.00    +0.062 A 
ATOM      3  C   UNL     1       4.841   8.055  -0.001  0.00  0.00    +0.122 A 
ATOM      4  N   UNL     1       6.105   7.537  -0.015  0.00  0.00    -0.272 N 
ATOM      5  H   UNL     1       6.326   6.561  -0.023  0.00  0.00    +0.189 HD
ATOM      6  N   UNL     1       6.967   8.488  -0.018  0.00  0.00    -0.173 NA
ENDROOT
BRANCH   1  10
ATOM      7  C   UNL     1       8.284  13.458  -0.006  0.00  0.00    -0.047 A 
ATOM      8  C   UNL     1       9.044  12.303  -0.018  0.00  0.00    +0.004 A 
ATOM      9  C   UNL     1       8.428  11.068  -0.018  0.00  0.00    +0.010 A 
ATOM     10  C   UNL     1       7.037  10.986  -0.006  0.00  0.00    +0.002 A 
ATOM     11  C   UNL     1       6.276  12.153   0.001  0.00  0.00    +0.010 A 
ATOM     12  C   UNL     1       6.903  13.383   0.006  0.00  0.00    +0.004 A 
BRANCH   7  13
ATOM     13  C   UNL     1       8.962  14.804  -0.006  0.00  0.00    +0.038 C 
BRANCH  13  15
ATOM     14  C   UNL     1       9.753  16.684  -1.450  0.00  0.00    +0.007 C 
ATOM     15  C   UNL     1       9.179  15.266  -1.449  0.00  0.00    -0.013 C 
ATOM     16  C   UNL     1      10.157  14.319  -2.146  0.00  0.00    +0.007 C 
ENDBRANCH  13  15
ENDBRANCH   7  13
ENDBRANCH   1  10
BRANCH   3  17
ATOM     17  C   UNL     1       3.579   7.299   0.007  0.00  0.00    +0.281 C 
ATOM     18  O   UNL     1       2.515   7.890   0.019  0.00  0.00    -0.267 OA
ATOM     19  N   UNL     1       3.600   5.951  -0.000  0.00  0.00    -0.202 N 
ATOM     20  H   UNL     1       4.448   5.480  -0.010  0.00  0.00    +0.178 HD
BRANCH  19  21
ATOM     21  N   UNL     1       2.399   5.231   0.007  0.00  0.00    -0.187 NA
ATOM     22  C   UNL     1       2.420   3.933   0.000  0.00  0.00    +0.142 C 
BRANCH  22  23
ATOM     23  C   UNL     1       1.156   3.175   0.008  0.00  0.00    +0.036 A 
ATOM     24  C   UNL     1       1.174   1.779   0.000  0.00  0.00    +0.013 A 
ATOM     25  C   UNL     1      -0.013   1.076   0.008  0.00  0.00    +0.001 A 
ATOM     26  C   UNL     1      -1.222   1.749   0.017  0.00  0.00    +0.004 A 
ATOM     27  C   UNL     1      -1.254   3.131   0.030  0.00  0.00    +0.046 A 
ATOM     28  C   UNL     1      -0.071   3.852   0.022  0.00  0.00    +0.125 A 
BRANCH  28  29
ATOM     29  O   UNL     1      -0.101   5.210   0.030  0.00  0.00    -0.506 OA
ATOM     30  H   UNL     1      -0.118   5.608  -0.851  0.00  0.00    +0.292 HD
ENDBRANCH  28  29
ENDBRANCH  22  23
ENDBRANCH  19  21
ENDBRANCH   3  17
TORSDOF 7
