REMARK  Name = ZINC34975685
REMARK  10 active torsions:
REMARK  status: ('A' for Active; 'I' for Inactive)
REMARK    1  A    between atoms: C_1  and  C_2
REMARK    2  A    between atoms: C_5  and  C_11
REMARK    3  A    between atoms: C_7  and  N_8
REMARK    4  A    between atoms: N_13  and  C_14
REMARK    5  A    between atoms: C_14  and  C_16
REMARK    6  A    between atoms: C_14  and  C_19
REMARK    7  A    between atoms: C_16  and  C_17
REMARK    8  A    between atoms: C_16  and  C_18
REMARK    9  A    between atoms: C_25  and  C_28
REMARK   10  A    between atoms: C_29  and  C_31
REMARK                            x       y       z     vdW  Elec       q    Type
REMARK                         _______ _______ _______ _____ _____    ______ ____
ROOT
ATOM      1  C   UNL     1       3.057  -5.723  -3.166  0.00  0.00    +0.162 C 
ENDROOT
BRANCH   1   2
ATOM      2  C   UNL     1       1.973  -6.194  -4.101  0.00  0.00    +0.236 C 
ATOM      3  O   UNL     1       1.522  -5.439  -4.936  0.00  0.00    -0.274 OA
ATOM      4  N   UNL     1       1.504  -7.454  -4.010  0.00  0.00    -0.297 N 
ATOM      5  C   UNL     1       1.975  -8.352  -2.946  0.00  0.00    +0.127 C 
ATOM      6  C   UNL     1       2.521  -9.632  -3.590  0.00  0.00    +0.127 C 
ATOM      7  N   UNL     1       1.530 -10.133  -4.552  0.00  0.00    -0.292 N 
ATOM      8  C   UNL     1       1.059  -9.236  -5.617  0.00  0.00    +0.091 C 
ATOM      9  C   UNL     1       0.509  -7.954  -4.969  0.00  0.00    +0.130 C 
ATOM     10  C   UNL     1      -0.048  -9.925  -6.417  0.00  0.00    +0.029 C 
ATOM     11  C   UNL     1       1.062 -11.394  -4.461  0.00  0.00    +0.247 C 
ATOM     12  O   UNL     1       0.333 -11.836  -5.328  0.00  0.00    -0.270 OA
BRANCH  11  13
ATOM     13  C   UNL     1       1.433 -12.238  -3.306  0.00  0.00    +0.037 A 
ATOM     14  C   UNL     1       1.640 -11.660  -2.052  0.00  0.00    +0.013 A 
ATOM     15  C   UNL     1       1.986 -12.454  -0.978  0.00  0.00    +0.001 A 
ATOM     16  C   UNL     1       2.128 -13.821  -1.142  0.00  0.00    +0.000 A 
ATOM     17  C   UNL     1       1.926 -14.400  -2.382  0.00  0.00    +0.001 A 
ATOM     18  C   UNL     1       1.573 -13.618  -3.463  0.00  0.00    +0.013 A 
ENDBRANCH  11  13
ENDBRANCH   1   2
BRANCH   1  21
ATOM     19  C   UNL     1       3.353  -3.776  -1.733  0.00  0.00    +0.245 C 
ATOM     20  O   UNL     1       3.948  -4.483  -0.944  0.00  0.00    -0.270 OA
ATOM     21  N   UNL     1       2.867  -4.300  -2.875  0.00  0.00    -0.300 N 
ATOM     22  H   UNL     1       2.392  -3.736  -3.505  0.00  0.00    +0.150 HD
BRANCH  19  27
ATOM     23  C   UNL     1       2.604   1.814  -0.588  0.00  0.00    +0.046 C 
ATOM     24  C   UNL     1       2.801   0.350  -0.888  0.00  0.00    -0.020 A 
ATOM     25  C   UNL     1       2.302  -0.185  -2.062  0.00  0.00    +0.006 A 
ATOM     26  C   UNL     1       2.478  -1.524  -2.343  0.00  0.00    +0.013 A 
ATOM     27  C   UNL     1       3.161  -2.339  -1.439  0.00  0.00    +0.039 A 
ATOM     28  C   UNL     1       3.662  -1.793  -0.257  0.00  0.00    +0.046 A 
ATOM     29  C   UNL     1       3.484  -0.451   0.009  0.00  0.00    +0.130 A 
BRANCH  29  30
ATOM     30  N   UNL     1       4.020   0.132   1.260  0.00  0.00    +0.057 N 
ATOM     31  O   UNL     1       4.422   1.272   1.272  0.00  0.00    -0.126 OA
ATOM     32  O   UNL     1       4.055  -0.532   2.270  0.00  0.00    -0.126 OA
ENDBRANCH  29  30
ENDBRANCH  19  27
ENDBRANCH   1  21
BRANCH   1  33
ATOM     33  C   UNL     1       4.423  -5.932  -3.823  0.00  0.00    +0.012 C 
ATOM     34  C   UNL     1       5.528  -5.550  -2.836  0.00  0.00    +0.009 C 
ATOM     35  C   UNL     1       4.580  -7.401  -4.220  0.00  0.00    +0.009 C 
ENDBRANCH   1  33
TORSDOF 6
