REMARK  Name = ZINC19642729
REMARK  7 active torsions:
REMARK  status: ('A' for Active; 'I' for Inactive)
REMARK    1  A    between atoms: C_1  and  C_2
REMARK    2  A    between atoms: C_2  and  C_3
REMARK    3  A    between atoms: C_3  and  C_5
REMARK    4  A    between atoms: C_3  and  N_6
REMARK    5  A    between atoms: C_7  and  C_9
REMARK    6  A    between atoms: C_14  and  C_27
REMARK    7  A    between atoms: C_17  and  C_20
REMARK                            x       y       z     vdW  Elec       q    Type
REMARK                         _______ _______ _______ _____ _____    ______ ____
ROOT
ATOM      1  C   UNL     1       1.116   1.926   0.002  0.00  0.00    +0.149 A 
ATOM      2  C   UNL     1      -0.013   1.076   0.008  0.00  0.00    +0.078 A 
ATOM      3  C   UNL     1      -1.111   1.857   0.017  0.00  0.00    +0.119 A 
ATOM      4  N   UNL     1      -0.705   3.161   0.028  0.00  0.00    -0.238 N 
ATOM      5  N   UNL     1       0.690   3.177   0.013  0.00  0.00    -0.164 NA
ATOM      6  C   UNL     1      -1.627   4.300   0.047  0.00  0.00    +0.215 C 
ATOM      7  C   UNL     1      -2.997   3.820   0.539  0.00  0.00    +0.063 C 
ATOM      8  C   UNL     1      -3.426   2.574  -0.244  0.00  0.00    +0.104 C 
ATOM      9  N   UNL     1      -2.460   1.492   0.030  0.00  0.00    -0.322 N 
ATOM     10  H   UNL     1      -2.819   0.471   0.228  0.00  0.00    +0.148 HD
ENDROOT
BRANCH   8  11
ATOM     11  C   UNL     1      -4.802   2.147   0.197  0.00  0.00    -0.027 A 
ATOM     12  C   UNL     1      -4.960   1.419   1.361  0.00  0.00    +0.006 A 
ATOM     13  C   UNL     1      -6.222   1.031   1.769  0.00  0.00    +0.015 A 
ATOM     14  C   UNL     1      -7.327   1.364   1.007  0.00  0.00    +0.018 A 
ATOM     15  C   UNL     1      -7.169   2.089  -0.161  0.00  0.00    +0.015 A 
ATOM     16  C   UNL     1      -5.906   2.480  -0.565  0.00  0.00    +0.006 A 
ATOM     17 BR   UNL     1      -9.054   0.828   1.560  0.00  0.00    -0.050 Br
ENDBRANCH   8  11
BRANCH   1  19
ATOM     18  N   UNL     1       3.515   2.410  -0.020  0.00  0.00    -0.307 N 
ATOM     19  C   UNL     1       2.528   1.492  -0.015  0.00  0.00    +0.264 C 
ATOM     20  O   UNL     1       2.800   0.307  -0.025  0.00  0.00    -0.268 OA
ATOM     21  H   UNL     1       3.269   3.482  -0.010  0.00  0.00    +0.149 HD
BRANCH  18  22
ATOM     22  C   UNL     1       4.916   1.980  -0.037  0.00  0.00    +0.070 C 
ATOM     23  C   UNL     1       5.351   1.719  -1.480  0.00  0.00    +0.028 C 
BRANCH  22  25
ATOM     24  C   UNL     1       5.441   3.250   2.050  0.00  0.00    +0.005 C 
ATOM     25  C   UNL     1       5.793   3.076   0.571  0.00  0.00    +0.018 C 
ENDBRANCH  22  25
ENDBRANCH  18  22
ENDBRANCH   1  19
BRANCH   6  26
ATOM     26  C   UNL     1      -1.092   5.378   0.992  0.00  0.00    +0.412 C 
ATOM     27  F   UNL     1       0.165   5.804   0.549  0.00  0.00    -0.168 F 
ATOM     28  F   UNL     1      -1.974   6.463   1.009  0.00  0.00    -0.168 F 
ATOM     29  F   UNL     1      -0.977   4.850   2.283  0.00  0.00    -0.168 F 
ENDBRANCH   6  26
TORSDOF 5
