REMARK  Name = ZINC04996410
REMARK  8 active torsions:
REMARK  status: ('A' for Active; 'I' for Inactive)
REMARK    1  A    between atoms: C_1  and  C_2
REMARK    2  A    between atoms: C_2  and  C_3
REMARK    3  A    between atoms: C_6  and  N_9
REMARK    4  A    between atoms: C_19  and  S_20
REMARK    5  A    between atoms: S_20  and  C_21
REMARK    6  A    between atoms: C_21  and  C_23
REMARK    7  A    between atoms: C_21  and  C_24
REMARK    8  A    between atoms: N_29  and  C_30
REMARK                            x       y       z     vdW  Elec       q    Type
REMARK                         _______ _______ _______ _____ _____    ______ ____
ROOT
ATOM      1  N   UNL     1      -6.334   1.113  -1.184  0.00  0.00    -0.255 N 
ATOM      2  C   UNL     1      -6.991   0.098  -1.792  0.00  0.00    +0.267 A 
ATOM      3  O   UNL     1      -7.730   0.302  -2.738  0.00  0.00    -0.267 OA
ATOM      4  C   UNL     1      -6.784  -1.258  -1.267  0.00  0.00    +0.065 A 
ATOM      5  C   UNL     1      -7.420  -2.368  -1.821  0.00  0.00    +0.015 A 
ATOM      6  C   UNL     1      -7.192  -3.609  -1.293  0.00  0.00    +0.001 A 
ATOM      7  C   UNL     1      -6.336  -3.773  -0.211  0.00  0.00    +0.002 A 
ATOM      8  C   UNL     1      -5.700  -2.703   0.352  0.00  0.00    +0.028 A 
ATOM      9  C   UNL     1      -5.912  -1.422  -0.166  0.00  0.00    +0.079 A 
ATOM     10  N   UNL     1      -5.303  -0.334   0.361  0.00  0.00    -0.223 NA
ATOM     11  C   UNL     1      -5.504   0.866  -0.125  0.00  0.00    +0.177 A 
ENDROOT
BRANCH   1  15
ATOM     12  C   UNL     1      -6.833   5.017  -2.554  0.00  0.00    -0.047 A 
ATOM     13  C   UNL     1      -7.669   4.518  -1.572  0.00  0.00    +0.005 A 
ATOM     14  C   UNL     1      -7.506   3.225  -1.115  0.00  0.00    +0.026 A 
ATOM     15  C   UNL     1      -6.502   2.425  -1.645  0.00  0.00    +0.052 A 
ATOM     16  C   UNL     1      -5.662   2.930  -2.627  0.00  0.00    +0.026 A 
ATOM     17  C   UNL     1      -5.833   4.222  -3.083  0.00  0.00    +0.005 A 
BRANCH  12  19
ATOM     18  C   UNL     1      -6.164   7.379  -2.204  0.00  0.00    +0.009 C 
ATOM     19  C   UNL     1      -7.014   6.428  -3.050  0.00  0.00    +0.032 C 
ENDBRANCH  12  19
ENDBRANCH   1  15
BRANCH  11  20
ATOM     20  S   UNL     1      -4.670   2.226   0.623  0.00  0.00    -0.075 S 
BRANCH  20  21
ATOM     21  C   UNL     1      -3.754   1.358   1.920  0.00  0.00    +0.137 C 
ATOM     22  C   UNL     1      -4.739   0.749   2.920  0.00  0.00    +0.029 C 
BRANCH  21  23
ATOM     23  C   UNL     1      -2.851   2.330   2.634  0.00  0.00    +0.233 C 
ATOM     24  O   UNL     1      -3.122   3.512   2.647  0.00  0.00    -0.274 OA
ATOM     25  N   UNL     1      -1.742   1.887   3.259  0.00  0.00    -0.239 N 
ATOM     26  C   UNL     1      -0.932   2.757   3.893  0.00  0.00    +0.306 C 
ATOM     27  O   UNL     1      -1.203   3.942   3.905  0.00  0.00    -0.252 OA
ATOM     28  N   UNL     1       0.180   2.314   4.513  0.00  0.00    -0.302 N 
ATOM     29  C   UNL     1       1.061   3.260   5.202  0.00  0.00    +0.129 C 
ATOM     30  H   UNL     1      -1.526   0.941   3.249  0.00  0.00    +0.159 HD
ATOM     31  H   UNL     1       0.397   1.368   4.503  0.00  0.00    +0.150 HD
ENDBRANCH  21  23
ENDBRANCH  20  21
ENDBRANCH  11  20
TORSDOF 5
