REMARK  Name = ZINC40811546
REMARK  7 active torsions:
REMARK  status: ('A' for Active; 'I' for Inactive)
REMARK    1  A    between atoms: C_1  and  C_2
REMARK    2  A    between atoms: C_7  and  C_8
REMARK    3  A    between atoms: N_10  and  N_11
REMARK    4  A    between atoms: C_18  and  C_25
REMARK    5  A    between atoms: C_19  and  C_21
REMARK    6  A    between atoms: C_21  and  O_23
REMARK    7  A    between atoms: O_23  and  C_24
REMARK                            x       y       z     vdW  Elec       q    Type
REMARK                         _______ _______ _______ _____ _____    ______ ____
ROOT
ATOM      1  N   UNL     1       0.573   0.035   4.838  0.00  0.00    -0.184 NA
ATOM      2  C   UNL     1       0.787  -0.618   5.939  0.00  0.00    +0.070 C 
ATOM      3  C   UNL     1       0.937  -2.132   5.975  0.00  0.00    +0.058 C 
ATOM      4  C   UNL     1       0.164  -2.662   7.187  0.00  0.00    +0.014 C 
ATOM      5  C   UNL     1       0.785  -2.151   8.490  0.00  0.00    +0.075 C 
ATOM      6  C   UNL     1       0.906  -0.649   8.432  0.00  0.00    +0.115 A 
ATOM      7  C   UNL     1       0.911   0.057   7.251  0.00  0.00    +0.042 A 
ATOM      8  C   UNL     1       1.040   1.413   7.570  0.00  0.00    +0.011 A 
ATOM      9  C   UNL     1       1.118   1.479   8.935  0.00  0.00    +0.215 A 
ATOM     10  O   UNL     1       1.028   0.221   9.431  0.00  0.00    -0.452 OA
ATOM     11  C   UNL     1       1.087   2.570   6.605  0.00  0.00    +0.048 C 
ENDROOT
BRANCH   1  14
ATOM     12  C   UNL     1       0.242   0.021   2.481  0.00  0.00    +0.264 C 
ATOM     13  O   UNL     1       0.135   1.232   2.502  0.00  0.00    -0.268 OA
ATOM     14  N   UNL     1       0.465  -0.657   3.624  0.00  0.00    -0.203 N 
ATOM     15  H   UNL     1       0.550  -1.623   3.607  0.00  0.00    +0.178 HD
BRANCH  12  22
ATOM     16  C   UNL     1      -0.512   1.452   0.082  0.00  0.00    +0.044 C 
ATOM     17  C   UNL     1      -0.235  -0.028   0.036  0.00  0.00    -0.038 A 
ATOM     18  C   UNL     1      -0.334  -0.714  -1.157  0.00  0.00    +0.004 A 
ATOM     19  C   UNL     1      -0.080  -2.073  -1.200  0.00  0.00    +0.000 A 
ATOM     20  C   UNL     1       0.275  -2.754  -0.049  0.00  0.00    +0.001 A 
ATOM     21  C   UNL     1       0.378  -2.081   1.150  0.00  0.00    +0.013 A 
ATOM     22  C   UNL     1       0.128  -0.708   1.200  0.00  0.00    +0.041 A 
ENDBRANCH  12  22
ENDBRANCH   1  14
BRANCH   9  23
ATOM     23  C   UNL     1       1.262   2.704   9.726  0.00  0.00    +0.375 C 
ATOM     24  O   UNL     1       1.322   3.784   9.170  0.00  0.00    -0.241 OA
BRANCH  23  25
ATOM     25  O   UNL     1       1.326   2.634  11.072  0.00  0.00    -0.462 OA
ATOM     26  C   UNL     1       1.466   3.867  11.779  0.00  0.00    +0.280 C 
ENDBRANCH  23  25
ENDBRANCH   9  23
TORSDOF 4
