REMARK  Name = ZINC23147526
REMARK  7 active torsions:
REMARK  status: ('A' for Active; 'I' for Inactive)
REMARK    1  A    between atoms: C_1  and  C_2
REMARK    2  A    between atoms: C_2  and  C_4
REMARK    3  A    between atoms: C_2  and  N_15
REMARK    4  A    between atoms: N_6  and  C_7
REMARK    5  A    between atoms: C_7  and  C_13
REMARK    6  A    between atoms: C_18  and  N_21
REMARK    7  A    between atoms: C_22  and  C_24
REMARK                            x       y       z     vdW  Elec       q    Type
REMARK                         _______ _______ _______ _____ _____    ______ ____
ROOT
ATOM      1  N   UNL     1       4.246   1.598   2.183  0.00  0.00    +0.387 N 
ATOM      2  C   UNL     1       4.093   0.138   2.204  0.00  0.00    -0.076 C 
ATOM      3  C   UNL     1       4.632  -0.414   3.526  0.00  0.00    +0.004 C 
ATOM      4  C   UNL     1       6.109  -0.034   3.668  0.00  0.00    +0.070 C 
ATOM      5  C   UNL     1       6.246   1.489   3.594  0.00  0.00    +0.004 C 
ATOM      6  C   UNL     1       5.660   1.986   2.270  0.00  0.00    -0.076 C 
ATOM      7  H   UNL     1       3.733   2.002   3.069  0.00  0.00    -0.081 HD
ENDROOT
BRANCH   4   8
ATOM      8  N   UNL     1       6.615  -0.509   4.958  0.00  0.00    -0.309 N 
ATOM      9  C   UNL     1       7.069  -1.773   5.080  0.00  0.00    +0.244 C 
ATOM     10  O   UNL     1       7.058  -2.518   4.119  0.00  0.00    -0.270 OA
ATOM     11  H   UNL     1       6.625   0.165   5.827  0.00  0.00    +0.149 HD
BRANCH   9  12
ATOM     12  C   UNL     1       7.579  -2.252   6.380  0.00  0.00    +0.037 A 
ATOM     13  C   UNL     1       7.598  -1.396   7.484  0.00  0.00    +0.016 A 
ATOM     14  C   UNL     1       8.070  -1.851   8.697  0.00  0.00    +0.039 A 
ATOM     15  C   UNL     1       8.536  -3.151   8.819  0.00  0.00    +0.123 A 
ATOM     16  C   UNL     1       8.525  -4.003   7.726  0.00  0.00    +0.039 A 
ATOM     17  C   UNL     1       8.050  -3.561   6.509  0.00  0.00    +0.016 A 
ATOM     18  F   UNL     1       9.002  -3.589  10.009  0.00  0.00    -0.205 F 
ENDBRANCH   9  12
ENDBRANCH   4   8
BRANCH   1  20
ATOM     19  C   UNL     1       2.195   1.624   0.846  0.00  0.00    -0.004 C 
ATOM     20  C   UNL     1       3.614   2.177   0.990  0.00  0.00    +0.016 C 
BRANCH  20  21
ATOM     21  C   UNL     1       4.421   1.815  -0.231  0.00  0.00    +0.200 C 
ATOM     22  O   UNL     1       5.073   0.793  -0.245  0.00  0.00    -0.278 OA
ATOM     23  N   UNL     1       4.417   2.628  -1.306  0.00  0.00    -0.299 N 
ATOM     24  H   UNL     1       3.825   3.555  -1.292  0.00  0.00    +0.150 HD
BRANCH  23  25
ATOM     25  C   UNL     1       5.201   2.276  -2.492  0.00  0.00    +0.121 C 
ATOM     26  C   UNL     1       4.718   0.933  -3.043  0.00  0.00    +0.041 C 
ATOM     27  C   UNL     1       5.537   0.566  -4.282  0.00  0.00    +0.003 C 
ATOM     28  C   UNL     1       5.360   1.647  -5.349  0.00  0.00    +0.000 C 
ATOM     29  C   UNL     1       5.843   2.991  -4.799  0.00  0.00    +0.003 C 
ATOM     30  C   UNL     1       5.024   3.358  -3.559  0.00  0.00    +0.041 C 
BRANCH  25  31
ATOM     31  C   UNL     1       6.624   2.175  -2.128  0.00  0.00    +0.088 C 
ATOM     32  N   UNL     1       7.721   2.096  -1.847  0.00  0.00    -0.194 NA
ENDBRANCH  25  31
ENDBRANCH  23  25
ENDBRANCH  20  21
ENDBRANCH   1  20
TORSDOF 6
