REMARK  Name = ZINC59890578
REMARK  10 active torsions:
REMARK  status: ('A' for Active; 'I' for Inactive)
REMARK    1  A    between atoms: C_1  and  C_2
REMARK    2  A    between atoms: C_5  and  C_16
REMARK    3  A    between atoms: C_7  and  N_8
REMARK    4  A    between atoms: C_9  and  C_11
REMARK    5  A    between atoms: N_18  and  C_19
REMARK    6  A    between atoms: C_19  and  C_20
REMARK    7  A    between atoms: C_20  and  N_28
REMARK    8  A    between atoms: C_24  and  C_27
REMARK    9  A    between atoms: N_28  and  C_29
REMARK   10  A    between atoms: N_28  and  C_30
REMARK                            x       y       z     vdW  Elec       q    Type
REMARK                         _______ _______ _______ _____ _____    ______ ____
ROOT
ATOM      1  C   UNL     1      -0.043   0.846  -0.645  0.00  0.00    +0.045 C 
ATOM      2  C   UNL     1      -0.100  -0.651  -0.478  0.00  0.00    -0.029 A 
ATOM      3  C   UNL     1      -0.200  -1.465  -1.591  0.00  0.00    +0.006 A 
ATOM      4  C   UNL     1      -0.253  -2.836  -1.447  0.00  0.00    +0.013 A 
ATOM      5  C   UNL     1      -0.203  -3.406  -0.173  0.00  0.00    +0.038 A 
ATOM      6  C   UNL     1      -0.101  -2.585   0.949  0.00  0.00    +0.036 A 
ATOM      7  C   UNL     1      -0.044  -1.209   0.793  0.00  0.00    +0.037 A 
ENDROOT
BRANCH   7   8
ATOM      8  N   UNL     1       0.064  -0.382   1.916  0.00  0.00    -0.279 N 
ATOM      9  C   UNL     1      -0.549  -0.724   3.067  0.00  0.00    +0.284 C 
ATOM     10  O   UNL     1      -1.131  -1.790   3.152  0.00  0.00    -0.266 OA
ATOM     11  H   UNL     1       0.579   0.439   1.866  0.00  0.00    +0.155 HD
BRANCH   9  12
ATOM     12  C   UNL     1      -0.514   0.187   4.215  0.00  0.00    +0.189 A 
ATOM     13  C   UNL     1      -1.085  -0.037   5.435  0.00  0.00    +0.054 A 
ATOM     14  C   UNL     1      -0.805   1.089   6.224  0.00  0.00    +0.042 A 
ATOM     15  C   UNL     1      -0.085   1.940   5.462  0.00  0.00    +0.196 A 
ATOM     16  O   UNL     1       0.093   1.391   4.253  0.00  0.00    -0.458 OA
ENDBRANCH   9  12
ENDBRANCH   7   8
BRANCH   5  17
ATOM     17  C   UNL     1      -0.260  -4.875  -0.016  0.00  0.00    +0.244 C 
ATOM     18  O   UNL     1      -0.217  -5.370   1.094  0.00  0.00    -0.270 OA
ATOM     19  N   UNL     1      -0.359  -5.666  -1.102  0.00  0.00    -0.313 N 
ATOM     20  H   UNL     1      -0.393  -5.272  -1.988  0.00  0.00    +0.149 HD
BRANCH  19  21
ATOM     21  C   UNL     1      -0.415  -7.122  -0.946  0.00  0.00    +0.092 C 
BRANCH  21  22
ATOM     22  C   UNL     1      -0.399  -7.784  -2.325  0.00  0.00    -0.050 C 
ATOM     23  C   UNL     1      -0.474  -9.303  -2.163  0.00  0.00    -0.010 C 
ATOM     24  C   UNL     1       0.727  -9.789  -1.350  0.00  0.00    -0.001 C 
ATOM     25  C   UNL     1       2.020  -9.418  -2.080  0.00  0.00    +0.003 C 
ATOM     26  C   UNL     1       2.095  -7.898  -2.242  0.00  0.00    -0.015 C 
ATOM     27  C   UNL     1       0.893  -7.412  -3.055  0.00  0.00    -0.007 C 
ATOM     28  C   UNL     1       3.388  -7.527  -2.972  0.00  0.00    +0.007 C 
BRANCH  22  29
ATOM     29  N   UNL     1      -1.553  -7.317  -3.106  0.00  0.00    +0.381 N 
ATOM     30  C   UNL     1      -1.602  -8.037  -4.385  0.00  0.00    -0.096 C 
ATOM     31  C   UNL     1      -2.789  -7.572  -2.353  0.00  0.00    -0.096 C 
ATOM     32  H   UNL     1      -1.464  -6.327  -3.280  0.00  0.00    -0.082 HD
ENDBRANCH  22  29
ENDBRANCH  21  22
ENDBRANCH  19  21
ENDBRANCH   5  17
TORSDOF 6
