REMARK  Name = ZINC51225932
REMARK  4 active torsions:
REMARK  status: ('A' for Active; 'I' for Inactive)
REMARK    1  A    between atoms: C_8  and  C_11
REMARK    2  A    between atoms: C_11  and  N_12
REMARK    3  A    between atoms: C_13  and  C_15
REMARK    4  A    between atoms: C_15  and  N_16
REMARK                            x       y       z     vdW  Elec       q    Type
REMARK                         _______ _______ _______ _____ _____    ______ ____
ROOT
ATOM      1  N   UNL     1       5.190  -3.209  -0.119  0.00  0.00    -0.311 N 
ATOM      2  C   UNL     1       6.078  -4.097   0.371  0.00  0.00    +0.227 C 
ATOM      3  O   UNL     1       5.713  -4.952   1.150  0.00  0.00    -0.274 OA
ATOM      4  H   UNL     1       5.482  -2.526  -0.742  0.00  0.00    +0.149 HD
ENDROOT
BRANCH   1   5
ATOM      5  C   UNL     1       3.785  -3.278   0.288  0.00  0.00    +0.149 C 
BRANCH   5  13
ATOM      6  C   UNL     1      -0.091   1.305   0.106  0.00  0.00    +0.000 A 
ATOM      7  C   UNL     1       1.092   2.020   0.111  0.00  0.00    +0.004 A 
ATOM      8  C   UNL     1       2.304   1.362   0.092  0.00  0.00    +0.046 A 
ATOM      9  C   UNL     1       2.346  -0.030   0.067  0.00  0.00    +0.124 A 
ATOM     10  C   UNL     1       1.151  -0.737   0.054  0.00  0.00    -0.002 A 
ATOM     11  C   UNL     1      -0.058  -0.078   0.077  0.00  0.00    +0.007 A 
ATOM     12  C   UNL     1       1.506  -2.210   0.003  0.00  0.00    +0.085 C 
ATOM     13  C   UNL     1       2.997  -2.166  -0.408  0.00  0.00    +0.195 C 
ATOM     14  O   UNL     1       3.417  -0.872   0.058  0.00  0.00    -0.487 OA
ENDBRANCH   5  13
ENDBRANCH   1   5
BRANCH   2  15
ATOM     15  C   UNL     1       7.524  -4.027  -0.048  0.00  0.00    +0.180 C 
BRANCH  15  16
ATOM     16  N   UNL     1       8.280  -5.095   0.620  0.00  0.00    -0.291 NA
ATOM     17  C   UNL     1       8.319  -4.881   2.073  0.00  0.00    +0.104 C 
ATOM     18  C   UNL     1       8.955  -6.101   2.748  0.00  0.00    +0.122 C 
ATOM     19  N   UNL     1      10.261  -6.354   2.121  0.00  0.00    -0.314 N 
ATOM     20  C   UNL     1      10.323  -6.443   0.654  0.00  0.00    +0.122 C 
ATOM     21  C   UNL     1       9.633  -5.210   0.062  0.00  0.00    +0.104 C 
ATOM     22  C   UNL     1      11.406  -6.505   2.894  0.00  0.00    +0.099 A 
ATOM     23  C   UNL     1      11.343  -6.298   4.268  0.00  0.00    +0.042 A 
ATOM     24  C   UNL     1      12.490  -6.451   5.025  0.00  0.00    +0.005 A 
ATOM     25  C   UNL     1      13.667  -6.809   4.380  0.00  0.00    +0.018 A 
ATOM     26  C   UNL     1      13.658  -6.999   3.013  0.00  0.00    +0.084 A 
ATOM     27  N   UNL     1      12.547  -6.851   2.317  0.00  0.00    -0.350 N 
ATOM     28  H   UNL     1      12.567  -6.994   1.357  0.00  0.00    +0.166 HD
ENDBRANCH  15  16
ENDBRANCH   2  15
TORSDOF 4
