REMARK  Name = ZINC43942452
REMARK  7 active torsions:
REMARK  status: ('A' for Active; 'I' for Inactive)
REMARK    1  A    between atoms: C_1  and  C_2
REMARK    2  A    between atoms: C_6  and  N_9
REMARK    3  A    between atoms: C_7  and  C_8
REMARK    4  A    between atoms: C_10  and  C_12
REMARK    5  A    between atoms: N_14  and  C_15
REMARK    6  A    between atoms: C_15  and  C_16
REMARK    7  A    between atoms: C_22  and  C_24
REMARK                            x       y       z     vdW  Elec       q    Type
REMARK                         _______ _______ _______ _____ _____    ______ ____
ROOT
ATOM      1  C   UNL     1      -0.377  -6.941   4.944  0.00  0.00    +0.108 C 
ENDROOT
BRANCH   1   2
ATOM      2  C   UNL     1      -0.436  -8.443   4.657  0.00  0.00    +0.009 C 
ATOM      3  C   UNL     1      -1.726  -8.767   3.899  0.00  0.00    +0.024 C 
ATOM      4  C   UNL     1      -1.765 -10.265   3.583  0.00  0.00    +0.108 C 
ATOM      5  N   UNL     1      -1.595 -11.017   4.833  0.00  0.00    -0.295 N 
ATOM      6  C   UNL     1      -0.435 -10.720   5.684  0.00  0.00    +0.108 C 
ATOM      7  C   UNL     1      -0.410  -9.216   5.977  0.00  0.00    +0.024 C 
ATOM      8  C   UNL     1      -2.486 -11.961   5.194  0.00  0.00    +0.282 C 
ATOM      9  O   UNL     1      -3.394 -12.260   4.440  0.00  0.00    -0.267 OA
BRANCH   8  10
ATOM     10  C   UNL     1      -2.363 -12.630   6.496  0.00  0.00    +0.191 A 
ATOM     11  C   UNL     1      -3.257 -13.514   7.010  0.00  0.00    +0.063 A 
ATOM     12  C   UNL     1      -2.728 -13.916   8.312  0.00  0.00    +0.021 A 
ATOM     13  C   UNL     1      -3.167 -14.783   9.316  0.00  0.00    +0.011 A 
ATOM     14  C   UNL     1      -2.418 -14.942  10.448  0.00  0.00    +0.001 A 
ATOM     15  C   UNL     1      -1.225 -14.249  10.606  0.00  0.00    +0.004 A 
ATOM     16  C   UNL     1      -0.775 -13.389   9.628  0.00  0.00    +0.047 A 
ATOM     17  C   UNL     1      -1.520 -13.211   8.467  0.00  0.00    +0.136 A 
ATOM     18  O   UNL     1      -1.340 -12.464   7.361  0.00  0.00    -0.450 OA
ENDBRANCH   8  10
ENDBRANCH   1   2
BRANCH   1  21
ATOM     19  C   UNL     1      -0.217  -4.859   3.688  0.00  0.00    +0.299 C 
ATOM     20  O   UNL     1      -0.237  -4.257   4.742  0.00  0.00    -0.265 OA
ATOM     21  N   UNL     1      -0.281  -6.205   3.681  0.00  0.00    -0.307 N 
ATOM     22  H   UNL     1      -0.265  -6.687   2.839  0.00  0.00    +0.149 HD
BRANCH  19  24
ATOM     23  N   UNL     1      -0.054  -2.763   2.408  0.00  0.00    -0.278 N 
ATOM     24  C   UNL     1      -0.119  -4.109   2.401  0.00  0.00    +0.303 C 
ATOM     25  O   UNL     1      -0.098  -4.712   1.347  0.00  0.00    -0.265 OA
ATOM     26  H   UNL     1       0.015  -2.285   3.249  0.00  0.00    +0.155 HD
BRANCH  23  32
ATOM     27  C   UNL     1       1.048   1.287  -0.150  0.00  0.00    +0.044 C 
ATOM     28  C   UNL     1       0.439  -0.090  -0.065  0.00  0.00    -0.046 A 
ATOM     29  C   UNL     1      -0.152  -0.653  -1.181  0.00  0.00    +0.004 A 
ATOM     30  C   UNL     1      -0.711  -1.916  -1.108  0.00  0.00    +0.002 A 
ATOM     31  C   UNL     1      -0.680  -2.619   0.081  0.00  0.00    +0.023 A 
ATOM     32  C   UNL     1      -0.087  -2.055   1.204  0.00  0.00    +0.037 A 
ATOM     33  C   UNL     1       0.479  -0.789   1.125  0.00  0.00    -0.026 A 
ATOM     34  C   UNL     1       1.129  -0.176   2.339  0.00  0.00    +0.046 C 
ENDBRANCH  23  32
ENDBRANCH  19  24
ENDBRANCH   1  21
TORSDOF 5
