REMARK  Name = ZINC57719960
REMARK  7 active torsions:
REMARK  status: ('A' for Active; 'I' for Inactive)
REMARK    1  A    between atoms: C_1  and  O_2
REMARK    2  A    between atoms: O_2  and  C_3
REMARK    3  A    between atoms: N_13  and  C_16
REMARK    4  A    between atoms: C_16  and  C_17
REMARK    5  A    between atoms: C_21  and  C_24
REMARK    6  A    between atoms: C_22  and  O_23
REMARK    7  A    between atoms: C_24  and  C_25
REMARK                            x       y       z     vdW  Elec       q    Type
REMARK                         _______ _______ _______ _____ _____    ______ ____
ROOT
ATOM      1  C   UNL     1       0.606  -0.607  -1.056  0.00  0.00    +0.122 A 
ATOM      2  C   UNL     1       1.172   0.165  -2.061  0.00  0.00    +0.048 A 
ATOM      3  C   UNL     1       1.777  -0.445  -3.146  0.00  0.00    +0.031 A 
ATOM      4  C   UNL     1       1.816  -1.823  -3.227  0.00  0.00    +0.067 A 
ATOM      5  C   UNL     1       1.269  -2.607  -2.205  0.00  0.00    +0.055 A 
ATOM      6  C   UNL     1       0.659  -1.991  -1.124  0.00  0.00    +0.070 A 
ATOM      7  N   UNL     1       1.376  -4.003  -2.258  0.00  0.00    -0.331 N 
ATOM      8  C   UNL     1       1.443  -4.691  -3.554  0.00  0.00    +0.069 C 
ATOM      9  C   UNL     1       0.032  -4.877  -4.111  0.00  0.00    +0.013 C 
ATOM     10  C   UNL     1      -0.761  -5.798  -3.180  0.00  0.00    -0.076 C 
ATOM     11  N   UNL     1      -0.089  -7.099  -3.084  0.00  0.00    +0.383 N 
ATOM     12  C   UNL     1       1.237  -6.931  -2.476  0.00  0.00    -0.076 C 
ATOM     13  C   UNL     1       2.109  -6.055  -3.378  0.00  0.00    +0.013 C 
ATOM     14  C   UNL     1       2.258  -3.842  -4.496  0.00  0.00    +0.047 A 
ATOM     15  N   UNL     1       2.400  -2.483  -4.320  0.00  0.00    -0.316 N 
ATOM     16  C   UNL     1       3.158  -1.992  -5.330  0.00  0.00    +0.092 A 
ATOM     17  C   UNL     1       3.514  -3.023  -6.129  0.00  0.00    +0.020 A 
ATOM     18  C   UNL     1       2.942  -4.197  -5.590  0.00  0.00    +0.025 A 
ATOM     19  H   UNL     1       1.406  -4.516  -1.435  0.00  0.00    +0.147 HD
ATOM     20  H   UNL     1       0.014  -7.492  -4.008  0.00  0.00    -0.081 HD
ENDROOT
BRANCH   1  22
ATOM     21  C   UNL     1      -0.017   1.425   0.010  0.00  0.00    +0.277 C 
ATOM     22  O   UNL     1       0.002  -0.004   0.002  0.00  0.00    -0.495 OA
ENDBRANCH   1  22
BRANCH  11  23
ATOM     23  C   UNL     1      -0.895  -8.005  -2.256  0.00  0.00    -0.039 C 
BRANCH  23  24
ATOM     24  C   UNL     1      -0.269  -9.376  -2.256  0.00  0.00    -0.022 A 
ATOM     25  C   UNL     1      -0.772 -10.365  -3.080  0.00  0.00    +0.005 A 
ATOM     26  C   UNL     1      -0.199 -11.623  -3.081  0.00  0.00    +0.001 A 
ATOM     27  C   UNL     1       0.879 -11.895  -2.258  0.00  0.00    +0.007 A 
ATOM     28  C   UNL     1       1.385 -10.910  -1.433  0.00  0.00    -0.002 A 
ATOM     29  C   UNL     1       0.815  -9.645  -1.434  0.00  0.00    +0.122 A 
BRANCH  29  30
ATOM     30  O   UNL     1       1.314  -8.673  -0.627  0.00  0.00    -0.506 OA
ATOM     31  H   UNL     1       0.908  -8.642   0.250  0.00  0.00    +0.292 HD
ENDBRANCH  29  30
BRANCH  28  32
ATOM     32  C   UNL     1       2.559 -11.207  -0.536  0.00  0.00    +0.065 C 
BRANCH  32  33
ATOM     33  C   UNL     1       2.060 -11.595   0.833  0.00  0.00    -0.030 C 
ATOM     34  C   UNL     1       2.431 -12.732   1.368  0.00  0.00    +0.004 C 
ENDBRANCH  32  33
ENDBRANCH  28  32
ENDBRANCH  23  24
ENDBRANCH  11  23
TORSDOF 6
