REMARK  Name = ZINC37769892
REMARK  5 active torsions:
REMARK  status: ('A' for Active; 'I' for Inactive)
REMARK    1  A    between atoms: C_1  and  C_2
REMARK    2  A    between atoms: C_5  and  C_8
REMARK    3  A    between atoms: C_8  and  C_10
REMARK    4  A    between atoms: C_8  and  N_11
REMARK    5  A    between atoms: N_11  and  C_12
REMARK                            x       y       z     vdW  Elec       q    Type
REMARK                         _______ _______ _______ _____ _____    ______ ____
ROOT
ATOM      1  N   UNL     1       0.957  -4.761   1.031  0.00  0.00    +0.394 N 
ATOM      2  H   UNL     1       0.671  -4.523   1.969  0.00  0.00    -0.083 HD
ATOM      3  H   UNL     1       0.947  -5.764   0.921  0.00  0.00    -0.083 HD
ENDROOT
BRANCH   1   4
ATOM      4  C   UNL     1       2.315  -4.255   0.790  0.00  0.00    +0.050 C 
ATOM      5  C   UNL     1       3.284  -4.845   1.788  0.00  0.00    -0.030 A 
ATOM      6  C   UNL     1       3.369  -4.781   3.161  0.00  0.00    +0.024 A 
ATOM      7  C   UNL     1       4.393  -5.439   3.821  0.00  0.00    +0.041 A 
ATOM      8  C   UNL     1       5.327  -6.158   3.097  0.00  0.00    +0.022 A 
ATOM      9  C   UNL     1       5.244  -6.223   1.722  0.00  0.00    +0.025 A 
ATOM     10  C   UNL     1       4.216  -5.564   1.051  0.00  0.00    +0.035 A 
ATOM     11  N   UNL     1       3.922  -5.480  -0.311  0.00  0.00    -0.286 N 
ATOM     12  C   UNL     1       2.828  -4.733  -0.552  0.00  0.00    +0.208 C 
ATOM     13  O   UNL     1       2.343  -4.489  -1.637  0.00  0.00    -0.277 OA
ATOM     14 CL   UNL     1       4.504  -5.361   5.552  0.00  0.00    -0.084 Cl
ATOM     15  H   UNL     1       4.447  -5.909  -1.005  0.00  0.00    +0.155 HD
ENDBRANCH   1   4
BRANCH   1  16
ATOM     16  C   UNL     1       0.029  -4.153   0.067  0.00  0.00    -0.043 C 
ATOM     17  C   UNL     1      -1.360  -4.770   0.237  0.00  0.00    -0.009 C 
BRANCH  16  22
ATOM     18  C   UNL     1      -0.267   1.541   1.007  0.00  0.00    +0.044 C 
ATOM     19  C   UNL     1      -0.190   0.057   0.762  0.00  0.00    -0.050 A 
ATOM     20  C   UNL     1      -0.168  -0.430  -0.532  0.00  0.00    +0.003 A 
ATOM     21  C   UNL     1      -0.097  -1.793  -0.757  0.00  0.00    +0.002 A 
ATOM     22  C   UNL     1      -0.047  -2.668   0.312  0.00  0.00    -0.062 A 
ATOM     23  C   UNL     1      -0.068  -2.181   1.606  0.00  0.00    +0.002 A 
ATOM     24  C   UNL     1      -0.134  -0.818   1.831  0.00  0.00    +0.003 A 
ENDBRANCH  16  22
ENDBRANCH   1  16
TORSDOF 3
