REMARK  Name = ZINC63818054
REMARK  7 active torsions:
REMARK  status: ('A' for Active; 'I' for Inactive)
REMARK    1  A    between atoms: C_6  and  C_11
REMARK    2  A    between atoms: C_11  and  C_12
REMARK    3  A    between atoms: C_12  and  N_13
REMARK    4  A    between atoms: C_14  and  C_16
REMARK    5  A    between atoms: C_19  and  C_23
REMARK    6  A    between atoms: C_23  and  C_24
REMARK    7  A    between atoms: N_26  and  C_27
REMARK                            x       y       z     vdW  Elec       q    Type
REMARK                         _______ _______ _______ _____ _____    ______ ____
ROOT
ATOM      1  C   UNL     1       5.817  -5.585  -2.726  0.00  0.00    +0.297 C 
ATOM      2  N   UNL     1       7.181  -5.636  -2.152  0.00  0.00    -0.265 NA
ATOM      3  C   UNL     1       7.881  -6.659  -2.975  0.00  0.00    +0.158 C 
ATOM      4  N   UNL     1       7.314  -6.417  -4.329  0.00  0.00    -0.181 NA
ATOM      5  O   UNL     1       5.900  -6.073  -4.074  0.00  0.00    -0.270 OA
ATOM      6  H   UNL     1       7.637  -4.739  -2.225  0.00  0.00    +0.126 HD
ATOM      7  H   UNL     1       7.794  -5.660  -4.792  0.00  0.00    +0.156 HD
ENDROOT
BRANCH   1   9
ATOM      8  N   UNL     1       4.998  -3.563  -1.561  0.00  0.00    -0.312 N 
ATOM      9  C   UNL     1       5.313  -4.165  -2.725  0.00  0.00    +0.259 C 
ATOM     10  O   UNL     1       5.191  -3.564  -3.771  0.00  0.00    -0.271 OA
ATOM     11  H   UNL     1       5.096  -4.044  -0.724  0.00  0.00    +0.149 HD
BRANCH   8  12
ATOM     12  C   UNL     1       4.508  -2.183  -1.560  0.00  0.00    +0.108 C 
BRANCH  12  13
ATOM     13  C   UNL     1       4.226  -1.743  -0.122  0.00  0.00    +0.052 C 
BRANCH  13  19
ATOM     14  C   UNL     1      -0.016   1.451  -0.103  0.00  0.00    +0.040 A 
ATOM     15  C   UNL     1       1.112   2.192  -0.110  0.00  0.00    +0.029 A 
ATOM     16  C   UNL     1       2.387   1.562  -0.115  0.00  0.00    +0.043 A 
ATOM     17  N   UNL     1       3.603   2.053  -0.123  0.00  0.00    -0.380 N 
ATOM     18  C   UNL     1       4.557   0.939  -0.126  0.00  0.00    +0.144 C 
ATOM     19  C   UNL     1       3.722  -0.323  -0.120  0.00  0.00    -0.040 C 
ATOM     20  C   UNL     1       2.432   0.082  -0.114  0.00  0.00    +0.002 A 
ATOM     21  C   UNL     1       1.161  -0.651  -0.106  0.00  0.00    +0.048 A 
ATOM     22  C   UNL     1       0.000   0.047  -0.102  0.00  0.00    +0.124 A 
ATOM     23  F   UNL     1      -1.172  -0.625  -0.095  0.00  0.00    -0.205 F 
ATOM     24  H   UNL     1       3.833   2.995  -0.125  0.00  0.00    +0.160 HD
ENDBRANCH  13  19
ENDBRANCH  12  13
ENDBRANCH   8  12
ENDBRANCH   1   9
BRANCH   3  25
ATOM     25  C   UNL     1       9.393  -6.424  -2.964  0.00  0.00    +0.132 C 
BRANCH  25  26
ATOM     26  C   UNL     1      10.070  -7.475  -3.805  0.00  0.00    +0.220 C 
ATOM     27  O   UNL     1       9.409  -8.328  -4.359  0.00  0.00    -0.275 OA
ATOM     28  N   UNL     1      11.411  -7.468  -3.941  0.00  0.00    -0.283 N 
ATOM     29  H   UNL     1      11.934  -6.750  -3.552  0.00  0.00    +0.155 HD
BRANCH  28  30
ATOM     30  C   UNL     1      12.050  -8.498  -4.645  0.00  0.00    +0.069 A 
ATOM     31  C   UNL     1      11.430  -9.076  -5.744  0.00  0.00    +0.029 A 
ATOM     32  C   UNL     1      12.061 -10.091  -6.437  0.00  0.00    +0.040 A 
ATOM     33  C   UNL     1      13.311 -10.533  -6.037  0.00  0.00    +0.126 A 
ATOM     34  C   UNL     1      13.932  -9.958  -4.941  0.00  0.00    +0.078 A 
ATOM     35  C   UNL     1      13.307  -8.938  -4.248  0.00  0.00    +0.147 A 
ATOM     36  F   UNL     1      13.916  -8.373  -3.182  0.00  0.00    -0.203 F 
ATOM     37  F   UNL     1      13.925 -11.525  -6.717  0.00  0.00    -0.205 F 
ENDBRANCH  28  30
ENDBRANCH  25  26
ENDBRANCH   3  25
TORSDOF 7
