REMARK  Name = ZINC32740523
REMARK  7 active torsions:
REMARK  status: ('A' for Active; 'I' for Inactive)
REMARK    1  A    between atoms: C_1  and  C_2
REMARK    2  A    between atoms: C_2  and  C_3
REMARK    3  A    between atoms: C_2  and  C_4
REMARK    4  A    between atoms: C_4  and  C_6
REMARK    5  A    between atoms: C_4  and  N_17
REMARK    6  A    between atoms: N_17  and  S_18
REMARK    7  A    between atoms: S_18  and  C_21
REMARK                            x       y       z     vdW  Elec       q    Type
REMARK                         _______ _______ _______ _____ _____    ______ ____
ROOT
ATOM      1  N   UNL     1       0.191   1.583  -0.081  0.00  0.00    -0.182 NA
ATOM      2  H   UNL     1      -0.220   2.411  -0.677  0.00  0.00    +0.149 HD
ENDROOT
BRANCH   1   3
ATOM      3  S   UNL     1       1.282   1.914   1.121  0.00  0.00    +0.059 S 
ATOM      4  O   UNL     1       1.356   3.329   1.223  0.00  0.00    -0.153 OA
ATOM      5  O   UNL     1       0.935   1.088   2.223  0.00  0.00    -0.153 OA
BRANCH   3   6
ATOM      6  C   UNL     1       2.859   1.367   0.558  0.00  0.00    +0.107 A 
ATOM      7  C   UNL     1       3.666   2.223  -0.172  0.00  0.00    +0.030 A 
ATOM      8  C   UNL     1       4.904   1.803  -0.617  0.00  0.00    +0.030 A 
ATOM      9  C   UNL     1       5.341   0.518  -0.332  0.00  0.00    +0.067 A 
ATOM     10  C   UNL     1       4.527  -0.346   0.404  0.00  0.00    +0.069 A 
ATOM     11  C   UNL     1       3.288   0.087   0.851  0.00  0.00    +0.056 A 
ATOM     12  N   UNL     1       5.223  -1.546   0.528  0.00  0.00    -0.306 N 
ATOM     13  H   UNL     1       4.774  -2.388   1.075  0.00  0.00    +0.170 HD
ATOM     14  C   UNL     1       6.405  -1.418  -0.103  0.00  0.00    +0.325 A 
ATOM     15  O   UNL     1       7.254  -2.286  -0.183  0.00  0.00    -0.247 OA
ATOM     16  N   UNL     1       6.506  -0.184  -0.632  0.00  0.00    -0.306 N 
ATOM     17  H   UNL     1       7.305   0.299  -1.212  0.00  0.00    +0.170 HD
ENDBRANCH   3   6
ENDBRANCH   1   3
BRANCH   1  18
ATOM     18  C   UNL     1      -0.052   0.197  -0.487  0.00  0.00    +0.109 C 
BRANCH  18  19
ATOM     19  C   UNL     1      -1.253  -0.339   0.250  0.00  0.00    -0.025 A 
ATOM     20  C   UNL     1      -2.355   0.471   0.453  0.00  0.00    +0.009 A 
ATOM     21  C   UNL     1      -3.463  -0.016   1.123  0.00  0.00    +0.050 A 
ATOM     22  C   UNL     1      -3.459  -1.316   1.601  0.00  0.00    +0.162 A 
ATOM     23  C   UNL     1      -2.351  -2.127   1.402  0.00  0.00    +0.162 A 
ATOM     24  C   UNL     1      -1.246  -1.638   0.726  0.00  0.00    +0.054 A 
ATOM     25  O   UNL     1      -2.358  -3.407   1.875  0.00  0.00    -0.488 OA
ATOM     26  C   UNL     1      -2.336  -3.547   3.298  0.00  0.00    +0.232 C 
ATOM     27  C   UNL     1      -3.740  -3.444   3.872  0.00  0.00    +0.082 C 
ATOM     28  C   UNL     1      -4.354  -2.069   3.660  0.00  0.00    +0.232 C 
ATOM     29  O   UNL     1      -4.543  -1.807   2.268  0.00  0.00    -0.488 OA
ENDBRANCH  18  19
BRANCH  18  31
ATOM     30  C   UNL     1      -1.518   1.026  -2.333  0.00  0.00    +0.009 C 
ATOM     31  C   UNL     1      -0.314   0.145  -1.994  0.00  0.00    +0.006 C 
ATOM     32  C   UNL     1       0.918   0.656  -2.743  0.00  0.00    +0.009 C 
ENDBRANCH  18  31
ENDBRANCH   1  18
TORSDOF 5
