REMARK  Name = ZINC04384699
REMARK  5 active torsions:
REMARK  status: ('A' for Active; 'I' for Inactive)
REMARK    1  A    between atoms: C_1  and  C_2
REMARK    2  A    between atoms: N_4  and  C_5
REMARK    3  A    between atoms: C_8  and  C_11
REMARK    4  A    between atoms: C_29  and  C_31
REMARK    5  A    between atoms: C_29  and  C_32
REMARK                            x       y       z     vdW  Elec       q    Type
REMARK                         _______ _______ _______ _____ _____    ______ ____
ROOT
ATOM      1  C   UNL     1      -2.530   3.777   0.045  0.00  0.00    +0.092 C 
ATOM      2  C   UNL     1      -1.335   2.871  -0.032  0.00  0.00    +0.067 A 
ATOM      3  C   UNL     1      -0.071   3.378  -0.018  0.00  0.00    +0.113 A 
ATOM      4  N   UNL     1       1.004   2.525  -0.085  0.00  0.00    -0.295 N 
ATOM      5  H   UNL     1       1.933   2.893  -0.073  0.00  0.00    +0.172 HD
ATOM      6  C   UNL     1       0.811   1.195  -0.166  0.00  0.00    +0.328 A 
ATOM      7  O   UNL     1       1.772   0.453  -0.224  0.00  0.00    -0.247 OA
ATOM      8  N   UNL     1      -0.430   0.675  -0.184  0.00  0.00    -0.275 N 
ATOM      9  H   UNL     1      -0.552  -0.316  -0.242  0.00  0.00    +0.173 HD
ATOM     10  C   UNL     1      -1.511   1.478  -0.126  0.00  0.00    +0.260 A 
ATOM     11  O   UNL     1      -2.632   1.001  -0.149  0.00  0.00    -0.267 OA
ATOM     12  N   UNL     1       0.127   4.734   0.061  0.00  0.00    -0.303 N 
ATOM     13  C   UNL     1      -0.875   5.607  -0.267  0.00  0.00    +0.017 C 
ATOM     14  C   UNL     1      -2.161   5.197  -0.299  0.00  0.00    +0.024 C 
ATOM     15  C   UNL     1      -3.195   6.083  -0.650  0.00  0.00    +0.162 C 
ATOM     16  O   UNL     1      -4.342   5.684  -0.662  0.00  0.00    -0.292 OA
ATOM     17  C   UNL     1      -2.907   7.514  -1.012  0.00  0.00    +0.086 C 
ATOM     18  C   UNL     1      -1.497   7.606  -1.603  0.00  0.00    -0.023 C 
ATOM     19  C   UNL     1      -0.506   7.035  -0.586  0.00  0.00    +0.058 C 
ATOM     20  C   UNL     1      -1.428   6.795  -2.898  0.00  0.00    +0.011 C 
ATOM     21  C   UNL     1      -1.155   9.069  -1.894  0.00  0.00    +0.011 C 
ATOM     22  H   UNL     1       0.987   5.077   0.352  0.00  0.00    +0.153 HD
ENDROOT
BRANCH   1  26
ATOM     23  C   UNL     1      -4.118   3.664   4.012  0.00  0.00    +0.033 A 
ATOM     24  C   UNL     1      -4.894   3.245   2.939  0.00  0.00    +0.023 A 
ATOM     25  C   UNL     1      -4.378   3.283   1.659  0.00  0.00    +0.006 A 
ATOM     26  C   UNL     1      -3.090   3.737   1.444  0.00  0.00    -0.035 A 
ATOM     27  C   UNL     1      -2.312   4.150   2.510  0.00  0.00    +0.006 A 
ATOM     28  C   UNL     1      -2.824   4.120   3.793  0.00  0.00    +0.023 A 
BRANCH  23  32
ATOM     29  C   UNL     1      -6.157   2.684   7.020  0.00  0.00    +0.109 C 
ATOM     30  C   UNL     1      -5.506   2.657   5.661  0.00  0.00    +0.214 C 
ATOM     31  O   UNL     1      -5.763   1.763   4.883  0.00  0.00    -0.276 OA
ATOM     32  N   UNL     1      -4.638   3.627   5.310  0.00  0.00    -0.286 N 
ATOM     33  H   UNL     1      -4.373   4.298   5.958  0.00  0.00    +0.155 HD
ENDBRANCH  23  32
ENDBRANCH   1  26
TORSDOF 2
