REMARK  Name = ZINC01039237
REMARK  6 active torsions:
REMARK  status: ('A' for Active; 'I' for Inactive)
REMARK    1  A    between atoms: C_4  and  S_16
REMARK    2  A    between atoms: C_5  and  N_7
REMARK    3  A    between atoms: N_7  and  S_8
REMARK    4  A    between atoms: S_8  and  C_11
REMARK    5  A    between atoms: S_16  and  C_17
REMARK    6  A    between atoms: C_17  and  C_18
REMARK                            x       y       z     vdW  Elec       q    Type
REMARK                         _______ _______ _______ _____ _____    ______ ____
ROOT
ATOM      1  C   UNL     1      10.406   1.720  -1.197  0.00  0.00    +0.002 A 
ATOM      2  C   UNL     1       9.532   1.566  -0.137  0.00  0.00    +0.001 A 
ATOM      3  C   UNL     1       8.167   1.562  -0.356  0.00  0.00    +0.016 A 
ATOM      4  C   UNL     1       7.671   1.703  -1.644  0.00  0.00    +0.031 A 
ATOM      5  C   UNL     1       8.554   1.860  -2.714  0.00  0.00    +0.061 A 
ATOM      6  C   UNL     1       9.921   1.867  -2.483  0.00  0.00    +0.025 A 
ENDROOT
BRANCH   5   7
ATOM      7  N   UNL     1       8.061   2.009  -4.015  0.00  0.00    -0.215 N 
ATOM      8  H   UNL     1       7.237   2.498  -4.169  0.00  0.00    +0.174 HD
BRANCH   7   9
ATOM      9  S   UNL     1       8.883   1.351  -5.293  0.00  0.00    +0.079 S 
ATOM     10  O   UNL     1       8.073   1.551  -6.444  0.00  0.00    -0.149 OA
ATOM     11  O   UNL     1      10.218   1.831  -5.208  0.00  0.00    -0.149 OA
BRANCH   9  12
ATOM     12  C   UNL     1       8.956  -0.390  -5.025  0.00  0.00    +0.146 A 
ATOM     13  C   UNL     1       8.085  -1.351  -5.418  0.00  0.00    +0.036 A 
ATOM     14  C   UNL     1       8.348  -2.668  -5.092  0.00  0.00    +0.010 A 
ATOM     15  C   UNL     1       9.470  -2.959  -4.389  0.00  0.00    +0.047 A 
ATOM     16  S   UNL     1      10.200  -1.345  -4.173  0.00  0.00    -0.077 S 
ENDBRANCH   9  12
ENDBRANCH   7   9
ENDBRANCH   5   7
BRANCH   4  17
ATOM     17  S   UNL     1       5.933   1.693  -1.928  0.00  0.00    -0.119 S 
BRANCH  17  18
ATOM     18  C   UNL     1       5.220   1.468  -0.275  0.00  0.00    +0.109 C 
BRANCH  18  19
ATOM     19  C   UNL     1       3.716   1.441  -0.376  0.00  0.00    -0.035 A 
ATOM     20  C   UNL     1       3.006   2.644  -0.270  0.00  0.00    +0.007 A 
ATOM     21  C   UNL     1       1.653   2.688  -0.353  0.00  0.00    +0.034 A 
ATOM     22  C   UNL     1       0.934   1.493  -0.550  0.00  0.00    +0.134 A 
ATOM     23  C   UNL     1       1.686   0.219  -0.662  0.00  0.00    +0.134 A 
ATOM     24  C   UNL     1       3.091   0.253  -0.567  0.00  0.00    +0.037 A 
ATOM     25  N   UNL     1       0.735  -0.665  -0.835  0.00  0.00    -0.049 NA
ATOM     26  O   UNL     1      -0.340  -0.098  -0.833  0.00  0.00    -0.242 OA
ATOM     27  N   UNL     1      -0.311   1.107  -0.679  0.00  0.00    -0.049 NA
ENDBRANCH  18  19
ENDBRANCH  17  18
ENDBRANCH   4  17
TORSDOF 6
