REMARK  Name = ZINC34735122
REMARK  7 active torsions:
REMARK  status: ('A' for Active; 'I' for Inactive)
REMARK    1  A    between atoms: C_1  and  C_2
REMARK    2  A    between atoms: C_2  and  C_38
REMARK    3  A    between atoms: N_11  and  C_28
REMARK    4  A    between atoms: N_17  and  C_20
REMARK    5  A    between atoms: C_20  and  C_21
REMARK    6  A    between atoms: C_28  and  C_29
REMARK    7  A    between atoms: C_29  and  C_30
REMARK                            x       y       z     vdW  Elec       q    Type
REMARK                         _______ _______ _______ _____ _____    ______ ____
ROOT
ATOM      1  C   UNL     1      -0.103   1.417  -0.256  0.00  0.00    +0.041 C 
ATOM      2  C   UNL     1      -0.094  -0.113  -0.213  0.00  0.00    +0.068 C 
ATOM      3  C   UNL     1      -1.534  -0.627  -0.136  0.00  0.00    +0.071 C 
ATOM      4  C   UNL     1      -2.092  -0.273   1.240  0.00  0.00    -0.018 A 
ATOM      5  C   UNL     1      -1.237   0.050   2.240  0.00  0.00    +0.021 A 
ATOM      6  S   UNL     1      -2.269   0.387   3.642  0.00  0.00    -0.071 S 
ATOM      7  C   UNL     1      -3.839   0.097   2.888  0.00  0.00    +0.118 A 
ATOM      8  C   UNL     1      -3.507  -0.256   1.559  0.00  0.00    +0.076 A 
ATOM      9  C   UNL     1      -4.592  -0.558   0.672  0.00  0.00    +0.264 A 
ATOM     10  O   UNL     1      -4.409  -0.874  -0.491  0.00  0.00    -0.267 OA
ATOM     11  N   UNL     1      -5.833  -0.473   1.206  0.00  0.00    -0.280 N 
ATOM     12  C   UNL     1      -6.061  -0.123   2.501  0.00  0.00    +0.202 A 
ATOM     13  N   UNL     1      -5.082   0.163   3.348  0.00  0.00    -0.208 NA
ATOM     14  N   UNL     1      -7.357  -0.065   2.949  0.00  0.00    -0.304 N 
ATOM     15  C   UNL     1      -8.161   1.156   2.780  0.00  0.00    +0.089 C 
ATOM     16  C   UNL     1      -8.783   1.519   4.133  0.00  0.00    -0.059 C 
ATOM     17  N   UNL     1      -9.532   0.367   4.650  0.00  0.00    +0.387 N 
ATOM     18  C   UNL     1      -8.613  -0.745   4.924  0.00  0.00    -0.059 C 
ATOM     19  C   UNL     1      -7.984  -1.222   3.606  0.00  0.00    +0.089 C 
ATOM     20  C   UNL     1       0.256   0.100   2.148  0.00  0.00    +0.203 C 
ATOM     21  O   UNL     1       0.647  -0.551   0.929  0.00  0.00    -0.368 OA
ATOM     22  C   UNL     1       0.567  -0.651  -1.484  0.00  0.00    +0.041 C 
ATOM     23  H   UNL     1     -10.215   0.076   3.967  0.00  0.00    -0.081 HD
ENDROOT
BRANCH  17  24
ATOM     24  C   UNL     1     -10.218   0.749   5.892  0.00  0.00    +0.019 C 
BRANCH  24  25
ATOM     25  C   UNL     1     -11.084  -0.393   6.359  0.00  0.00    +0.199 C 
ATOM     26  O   UNL     1     -11.126  -1.423   5.720  0.00  0.00    -0.278 OA
ATOM     27  N   UNL     1     -11.813  -0.268   7.486  0.00  0.00    -0.303 N 
ATOM     28  C   UNL     1     -11.861   0.922   8.348  0.00  0.00    +0.108 C 
ATOM     29  C   UNL     1     -12.802   0.595   9.527  0.00  0.00    +0.020 C 
ATOM     30  C   UNL     1     -12.787  -0.956   9.565  0.00  0.00    +0.020 C 
ATOM     31  C   UNL     1     -12.699  -1.300   8.055  0.00  0.00    +0.108 C 
ENDBRANCH  24  25
ENDBRANCH  17  24
BRANCH  11  32
ATOM     32  C   UNL     1      -6.984  -0.769   0.350  0.00  0.00    +0.133 C 
BRANCH  32  33
ATOM     33  C   UNL     1      -7.229  -2.279   0.328  0.00  0.00    +0.057 C 
BRANCH  33  34
ATOM     34  C   UNL     1      -8.413  -2.584  -0.553  0.00  0.00    -0.046 A 
ATOM     35  C   UNL     1      -9.685  -2.613  -0.014  0.00  0.00    +0.004 A 
ATOM     36  C   UNL     1     -10.772  -2.893  -0.823  0.00  0.00    +0.000 A 
ATOM     37  C   UNL     1     -10.585  -3.142  -2.169  0.00  0.00    +0.000 A 
ATOM     38  C   UNL     1      -9.312  -3.112  -2.708  0.00  0.00    +0.000 A 
ATOM     39  C   UNL     1      -8.227  -2.828  -1.901  0.00  0.00    +0.004 A 
ENDBRANCH  33  34
ENDBRANCH  32  33
ENDBRANCH  11  32
TORSDOF 5
