REMARK  Name = ZINC08684079
REMARK  9 active torsions:
REMARK  status: ('A' for Active; 'I' for Inactive)
REMARK    1  A    between atoms: C_1  and  C_2
REMARK    2  A    between atoms: C_7  and  S_8
REMARK    3  A    between atoms: S_8  and  N_11
REMARK    4  A    between atoms: C_16  and  C_18
REMARK    5  A    between atoms: C_18  and  N_19
REMARK    6  A    between atoms: C_20  and  C_22
REMARK    7  A    between atoms: N_24  and  C_25
REMARK    8  A    between atoms: C_25  and  C_26
REMARK    9  A    between atoms: C_26  and  C_27
REMARK                            x       y       z     vdW  Elec       q    Type
REMARK                         _______ _______ _______ _____ _____    ______ ____
ROOT
ATOM      1  N   UNL     1      -0.420   2.743   3.457  0.00  0.00    -0.304 N 
ATOM      2  C   UNL     1      -1.699   3.120   3.653  0.00  0.00    +0.299 C 
ATOM      3  O   UNL     1      -2.326   3.632   2.749  0.00  0.00    -0.265 OA
ATOM      4  H   UNL     1       0.081   2.334   4.180  0.00  0.00    +0.149 HD
ENDROOT
BRANCH   2   5
ATOM      5  C   UNL     1      -2.346   2.907   4.984  0.00  0.00    +0.299 C 
ATOM      6  O   UNL     1      -1.719   2.395   5.888  0.00  0.00    -0.265 OA
ATOM      7  N   UNL     1      -3.625   3.284   5.179  0.00  0.00    -0.307 N 
ATOM      8  H   UNL     1      -4.126   3.693   4.456  0.00  0.00    +0.149 HD
BRANCH   7   9
ATOM      9  C   UNL     1      -4.259   3.075   6.483  0.00  0.00    +0.109 C 
BRANCH   9  10
ATOM     10  C   UNL     1      -5.700   3.587   6.438  0.00  0.00    +0.056 C 
BRANCH  10  11
ATOM     11  C   UNL     1      -6.352   3.372   7.779  0.00  0.00    -0.021 A 
ATOM     12  C   UNL     1      -7.107   2.323   8.142  0.00  0.00    +0.087 A 
ATOM     13  N   UNL     1      -7.526   2.474   9.435  0.00  0.00    -0.360 N 
ATOM     14  H   UNL     1      -8.083   1.844   9.918  0.00  0.00    +0.165 HD
ATOM     15  C   UNL     1      -7.039   3.655   9.950  0.00  0.00    +0.047 A 
ATOM     16  C   UNL     1      -6.277   4.266   8.938  0.00  0.00    +0.003 A 
ATOM     17  C   UNL     1      -5.649   5.489   9.180  0.00  0.00    +0.010 A 
ATOM     18  C   UNL     1      -5.776   6.086  10.403  0.00  0.00    +0.001 A 
ATOM     19  C   UNL     1      -6.523   5.485  11.407  0.00  0.00    +0.002 A 
ATOM     20  C   UNL     1      -7.159   4.282  11.186  0.00  0.00    +0.026 A 
ENDBRANCH  10  11
ENDBRANCH   9  10
ENDBRANCH   7   9
ENDBRANCH   2   5
BRANCH   1  21
ATOM     21  C   UNL     1       0.213   2.952   2.153  0.00  0.00    +0.154 C 
BRANCH  21  27
ATOM     22  N   UNL     1       1.668   1.044   2.659  0.00  0.00    -0.147 NA
ATOM     23  C   UNL     1       2.967   0.425   2.968  0.00  0.00    +0.114 C 
ATOM     24  C   UNL     1       3.730   1.359   3.915  0.00  0.00    +0.045 C 
ATOM     25  C   UNL     1       3.757   2.766   3.311  0.00  0.00    +0.163 C 
ATOM     26  O   UNL     1       2.419   3.230   3.122  0.00  0.00    -0.358 OA
ATOM     27  C   UNL     1       1.655   2.440   2.199  0.00  0.00    +0.226 C 
BRANCH  22  28
ATOM     28  S   UNL     1       0.259   0.189   2.819  0.00  0.00    +0.063 S 
ATOM     29  O   UNL     1      -0.759   0.965   2.204  0.00  0.00    -0.153 OA
ATOM     30  O   UNL     1       0.187  -0.224   4.177  0.00  0.00    -0.153 OA
BRANCH  28  37
ATOM     31  C   UNL     1       0.602   0.160  -0.185  0.00  0.00    +0.046 C 
ATOM     32  C   UNL     1       0.580  -1.189   0.485  0.00  0.00    -0.021 A 
ATOM     33  C   UNL     1       0.717  -2.338  -0.271  0.00  0.00    +0.043 A 
ATOM     34  C   UNL     1       0.697  -3.578   0.345  0.00  0.00    +0.124 A 
ATOM     35  C   UNL     1       0.539  -3.665   1.718  0.00  0.00    +0.040 A 
ATOM     36  C   UNL     1       0.402  -2.515   2.472  0.00  0.00    +0.031 A 
ATOM     37  C   UNL     1       0.427  -1.277   1.856  0.00  0.00    +0.109 A 
ATOM     38  F   UNL     1       0.830  -4.702  -0.393  0.00  0.00    -0.205 F 
ENDBRANCH  28  37
ENDBRANCH  22  28
ENDBRANCH  21  27
ENDBRANCH   1  21
TORSDOF 8
