REMARK  Name = ZINC22151942
REMARK  5 active torsions:
REMARK  status: ('A' for Active; 'I' for Inactive)
REMARK    1  A    between atoms: C_1  and  C_2
REMARK    2  A    between atoms: C_5  and  C_20
REMARK    3  A    between atoms: C_6  and  C_8
REMARK    4  A    between atoms: C_8  and  C_10
REMARK    5  A    between atoms: C_11  and  N_19
REMARK                            x       y       z     vdW  Elec       q    Type
REMARK                         _______ _______ _______ _____ _____    ______ ____
ROOT
ATOM      1  C   UNL     1      -1.150   1.892  -0.702  0.00  0.00    +0.197 A 
ATOM      2  C   UNL     1      -2.389   1.296  -0.860  0.00  0.00    +0.082 A 
ATOM      3  C   UNL     1      -3.340   2.399  -1.039  0.00  0.00    +0.042 A 
ATOM      4  C   UNL     1      -4.720   2.466  -1.240  0.00  0.00    +0.013 A 
ATOM      5  C   UNL     1      -5.327   3.682  -1.379  0.00  0.00    +0.001 A 
ATOM      6  C   UNL     1      -4.580   4.850  -1.321  0.00  0.00    +0.004 A 
ATOM      7  C   UNL     1      -3.217   4.805  -1.124  0.00  0.00    +0.047 A 
ATOM      8  C   UNL     1      -2.578   3.579  -0.979  0.00  0.00    +0.138 A 
ATOM      9  O   UNL     1      -1.290   3.235  -0.779  0.00  0.00    -0.450 OA
ENDROOT
BRANCH   2  10
ATOM     10  N   UNL     1      -2.672  -0.058  -0.850  0.00  0.00    -0.354 N 
ATOM     11  H   UNL     1      -3.706  -0.404  -0.988  0.00  0.00    +0.142 HD
ATOM     12  H   UNL     1      -1.862  -0.788  -0.704  0.00  0.00    +0.142 HD
ENDBRANCH   2  10
BRANCH   1  13
ATOM     13  C   UNL     1       0.068   1.206  -0.497  0.00  0.00    +0.230 C 
ATOM     14  O   UNL     1       0.068  -0.002  -0.336  0.00  0.00    -0.283 OA
BRANCH  13  20
ATOM     15  C   UNL     1       2.582   5.470  -1.135  0.00  0.00    +0.044 C 
ATOM     16  C   UNL     1       2.559   4.003  -0.791  0.00  0.00    -0.050 A 
ATOM     17  C   UNL     1       3.735   3.352  -0.464  0.00  0.00    +0.003 A 
ATOM     18  C   UNL     1       3.723   2.005  -0.148  0.00  0.00    +0.004 A 
ATOM     19  C   UNL     1       2.535   1.302  -0.157  0.00  0.00    -0.040 A 
ATOM     20  C   UNL     1       1.345   1.953  -0.485  0.00  0.00    +0.029 A 
ATOM     21  C   UNL     1       1.366   3.311  -0.808  0.00  0.00    +0.015 A 
ATOM     22  C   UNL     1       2.523  -0.165   0.187  0.00  0.00    +0.044 C 
ENDBRANCH  13  20
ENDBRANCH   1  13
TORSDOF 3
