REMARK  Name = ZINC09597177
REMARK  5 active torsions:
REMARK  status: ('A' for Active; 'I' for Inactive)
REMARK    1  A    between atoms: C_1  and  C_2
REMARK    2  A    between atoms: C_3  and  C_18
REMARK    3  A    between atoms: C_4  and  C_10
REMARK    4  A    between atoms: N_20  and  C_21
REMARK    5  A    between atoms: C_26  and  C_27
REMARK                            x       y       z     vdW  Elec       q    Type
REMARK                         _______ _______ _______ _____ _____    ______ ____
ROOT
ATOM      1  C   UNL     1       0.592   4.792   0.346  0.00  0.00    +0.061 C 
ATOM      2  C   UNL     1       0.208   3.351   0.128  0.00  0.00    +0.019 C 
ATOM      3  C   UNL     1      -1.079   3.038  -0.132  0.00  0.00    +0.056 C 
ATOM      4  C   UNL     1      -1.420   1.578  -0.350  0.00  0.00    +0.142 C 
ATOM      5  N   UNL     1      -0.314   0.612  -0.249  0.00  0.00    -0.288 N 
ATOM      6  C   UNL     1       0.923   1.078   0.018  0.00  0.00    +0.304 C 
ATOM      7  O   UNL     1       1.844   0.289   0.098  0.00  0.00    -0.252 OA
ATOM      8  N   UNL     1       1.169   2.382   0.197  0.00  0.00    -0.273 N 
ATOM      9  H   UNL     1      -0.470  -0.337  -0.377  0.00  0.00    +0.151 HD
ATOM     10  H   UNL     1       2.081   2.653   0.387  0.00  0.00    +0.156 HD
ENDROOT
BRANCH   4  11
ATOM     11  C   UNL     1      -2.034   1.440  -1.719  0.00  0.00    -0.021 A 
ATOM     12  C   UNL     1      -3.409   1.381  -1.857  0.00  0.00    +0.007 A 
ATOM     13  C   UNL     1      -3.974   1.254  -3.112  0.00  0.00    +0.022 A 
ATOM     14  C   UNL     1      -3.163   1.187  -4.231  0.00  0.00    +0.059 A 
ATOM     15  C   UNL     1      -1.787   1.247  -4.093  0.00  0.00    +0.060 A 
ATOM     16  C   UNL     1      -1.224   1.379  -2.837  0.00  0.00    +0.027 A 
ATOM     17 CL   UNL     1      -0.769   1.163  -5.497  0.00  0.00    -0.082 Cl
ATOM     18 CL   UNL     1      -3.872   1.028  -5.808  0.00  0.00    -0.082 Cl
ENDBRANCH   4  11
BRANCH   3  19
ATOM     19  C   UNL     1      -2.075   4.042  -0.205  0.00  0.00    +0.248 C 
ATOM     20  O   UNL     1      -2.872   4.176   0.706  0.00  0.00    -0.270 OA
ATOM     21  N   UNL     1      -2.142   4.849  -1.282  0.00  0.00    -0.281 N 
ATOM     22  H   UNL     1      -1.558   4.695  -2.041  0.00  0.00    +0.155 HD
BRANCH  21  23
ATOM     23  C   UNL     1      -3.054   5.909  -1.307  0.00  0.00    +0.045 A 
ATOM     24  C   UNL     1      -3.602   6.383  -0.122  0.00  0.00    +0.024 A 
ATOM     25  C   UNL     1      -4.502   7.430  -0.149  0.00  0.00    +0.002 A 
ATOM     26  C   UNL     1      -4.859   8.006  -1.355  0.00  0.00    +0.001 A 
ATOM     27  C   UNL     1      -4.315   7.536  -2.536  0.00  0.00    +0.014 A 
ATOM     28  C   UNL     1      -3.410   6.493  -2.515  0.00  0.00    +0.076 A 
BRANCH  28  29
ATOM     29  C   UNL     1      -2.814   5.985  -3.803  0.00  0.00    +0.419 C 
ATOM     30  F   UNL     1      -3.400   6.654  -4.883  0.00  0.00    -0.166 F 
ATOM     31  F   UNL     1      -1.435   6.220  -3.802  0.00  0.00    -0.166 F 
ATOM     32  F   UNL     1      -3.054   4.612  -3.918  0.00  0.00    -0.166 F 
ENDBRANCH  28  29
ENDBRANCH  21  23
ENDBRANCH   3  19
TORSDOF 4
