REMARK  Name = ZINC14471285
REMARK  6 active torsions:
REMARK  status: ('A' for Active; 'I' for Inactive)
REMARK    1  A    between atoms: C_1  and  C_2
REMARK    2  A    between atoms: C_2  and  C_3
REMARK    3  A    between atoms: C_3  and  C_4
REMARK    4  A    between atoms: N_6  and  C_7
REMARK    5  A    between atoms: C_20  and  C_23
REMARK    6  A    between atoms: C_27  and  N_29
REMARK                            x       y       z     vdW  Elec       q    Type
REMARK                         _______ _______ _______ _____ _____    ______ ____
ROOT
ATOM      1  C   UNL     1       1.015  -2.126   0.479  0.00  0.00    +0.039 A 
ATOM      2  C   UNL     1      -0.085  -2.786  -0.046  0.00  0.00    +0.025 A 
ATOM      3  C   UNL     1      -1.152  -2.062  -0.543  0.00  0.00    +0.023 A 
ATOM      4  C   UNL     1      -1.119  -0.682  -0.512  0.00  0.00    +0.062 A 
ATOM      5  C   UNL     1      -0.015  -0.012   0.017  0.00  0.00    +0.052 A 
ATOM      6  C   UNL     1       1.056  -0.732   0.512  0.00  0.00    +0.003 A 
ATOM      7  C   UNL     1       2.278  -0.077   1.085  0.00  0.00    +0.050 C 
ATOM      8  C   UNL     1       3.453  -0.232   0.146  0.00  0.00    -0.023 C 
ATOM      9  C   UNL     1       4.166   0.866   0.120  0.00  0.00    -0.030 C 
ATOM     10  C   UNL     1       3.571   1.909   1.045  0.00  0.00    +0.033 C 
ATOM     11  C   UNL     1       2.089   1.448   1.229  0.00  0.00    +0.029 C 
ATOM     12  C   UNL     1       1.306   1.958   0.003  0.00  0.00    +0.105 C 
ATOM     13  N   UNL     1      -0.039   1.383   0.024  0.00  0.00    -0.335 N 
ATOM     14 CL   UNL     1      -2.462   0.225  -1.134  0.00  0.00    -0.082 Cl
ATOM     15  H   UNL     1      -0.596   1.739  -0.738  0.00  0.00    +0.147 HD
ENDROOT
BRANCH  12  16
ATOM     16  C   UNL     1       1.211   3.461   0.061  0.00  0.00    -0.025 A 
ATOM     17  C   UNL     1       0.276   4.064   0.883  0.00  0.00    +0.007 A 
ATOM     18  C   UNL     1       0.189   5.442   0.936  0.00  0.00    +0.022 A 
ATOM     19  C   UNL     1       1.037   6.219   0.168  0.00  0.00    +0.071 A 
ATOM     20  C   UNL     1       1.972   5.616  -0.654  0.00  0.00    +0.145 A 
ATOM     21  C   UNL     1       2.063   4.237  -0.703  0.00  0.00    +0.039 A 
ATOM     22 CL   UNL     1       0.928   7.950   0.235  0.00  0.00    -0.081 Cl
BRANCH  20  23
ATOM     23  N   UNL     1       2.880   6.447  -1.476  0.00  0.00    +0.058 N 
ATOM     24  O   UNL     1       3.704   5.915  -2.200  0.00  0.00    -0.126 OA
ATOM     25  O   UNL     1       2.804   7.661  -1.429  0.00  0.00    -0.126 OA
ENDBRANCH  20  23
ENDBRANCH  12  16
BRANCH   1  28
ATOM     26  C   UNL     1       2.320  -4.115   0.534  0.00  0.00    +0.217 C 
ATOM     27  O   UNL     1       1.654  -4.564  -0.375  0.00  0.00    -0.275 OA
ATOM     28  N   UNL     1       2.093  -2.864   0.982  0.00  0.00    -0.285 N 
ATOM     29  H   UNL     1       2.676  -2.476   1.653  0.00  0.00    +0.155 HD
BRANCH  26  30
ATOM     30  C   UNL     1       3.402  -4.955   1.162  0.00  0.00    +0.096 C 
BRANCH  30  32
ATOM     31  C   UNL     1       4.550  -7.174   1.111  0.00  0.00    +0.004 C 
ATOM     32  C   UNL     1       3.451  -6.321   0.473  0.00  0.00    +0.006 C 
ENDBRANCH  30  32
ENDBRANCH  26  30
ENDBRANCH   1  28
TORSDOF 5
