REMARK  Name = ZINC66600228
REMARK  6 active torsions:
REMARK  status: ('A' for Active; 'I' for Inactive)
REMARK    1  A    between atoms: C_1  and  C_2
REMARK    2  A    between atoms: C_2  and  C_7
REMARK    3  A    between atoms: C_7  and  N_8
REMARK    4  A    between atoms: N_11  and  C_12
REMARK    5  A    between atoms: C_12  and  C_13
REMARK    6  A    between atoms: N_15  and  C_16
REMARK                            x       y       z     vdW  Elec       q    Type
REMARK                         _______ _______ _______ _____ _____    ______ ____
ROOT
ATOM      1  N   UNL     1      -2.117  -0.054  -1.217  0.00  0.00    -0.299 N 
ATOM      2  C   UNL     1      -3.397  -0.406  -1.450  0.00  0.00    +0.300 C 
ATOM      3  O   UNL     1      -3.980  -1.132  -0.668  0.00  0.00    -0.253 OA
ATOM      4  N   UNL     1      -4.032   0.047  -2.549  0.00  0.00    -0.291 N 
ATOM      5  H   UNL     1      -1.653   0.525  -1.841  0.00  0.00    +0.150 HD
ATOM      6  H   UNL     1      -3.567   0.627  -3.173  0.00  0.00    +0.151 HD
ENDROOT
BRANCH   1   7
ATOM      7  C   UNL     1      -1.428  -0.547  -0.022  0.00  0.00    +0.112 C 
BRANCH   7   9
ATOM      8  C   UNL     1      -0.019   1.526   0.010  0.00  0.00    +0.013 C 
ATOM      9  C   UNL     1       0.002  -0.004   0.002  0.00  0.00    -0.016 C 
ATOM     10  C   UNL     1       0.783  -0.515  -1.226  0.00  0.00    +0.008 C 
ATOM     11  C   UNL     1       2.213  -0.768  -0.688  0.00  0.00    +0.001 C 
ATOM     12  C   UNL     1       1.950  -1.339   0.728  0.00  0.00    +0.001 C 
ATOM     13  C   UNL     1       0.744  -0.528   1.244  0.00  0.00    +0.008 C 
ENDBRANCH   7   9
ENDBRANCH   1   7
BRANCH   4  14
ATOM     14  C   UNL     1      -5.423  -0.335  -2.802  0.00  0.00    +0.201 C 
BRANCH  14  15
ATOM     15  C   UNL     1      -5.893   0.300  -4.086  0.00  0.00    +0.230 C 
ATOM     16  O   UNL     1      -5.140   1.002  -4.726  0.00  0.00    -0.274 OA
ATOM     17  N   UNL     1      -7.150   0.087  -4.522  0.00  0.00    -0.311 N 
ATOM     18  H   UNL     1      -7.753  -0.475  -4.010  0.00  0.00    +0.149 HD
BRANCH  17  19
ATOM     19  C   UNL     1      -7.607   0.704  -5.770  0.00  0.00    +0.073 C 
ATOM     20  C   UNL     1      -9.002   1.333  -5.777  0.00  0.00    +0.024 C 
ATOM     21  C   UNL     1      -8.752   0.019  -6.519  0.00  0.00    +0.024 C 
ENDBRANCH  17  19
ENDBRANCH  14  15
ENDBRANCH   4  14
TORSDOF 5
