REMARK  Name = ZINC39711180
REMARK  11 active torsions:
REMARK  status: ('A' for Active; 'I' for Inactive)
REMARK    1  A    between atoms: C_1  and  C_2
REMARK    2  A    between atoms: C_7  and  N_8
REMARK    3  A    between atoms: N_11  and  C_14
REMARK    4  A    between atoms: C_14  and  C_16
REMARK    5  A    between atoms: C_14  and  C_30
REMARK    6  A    between atoms: C_21  and  C_29
REMARK    7  A    between atoms: C_22  and  C_28
REMARK    8  A    between atoms: N_35  and  C_36
REMARK    9  A    between atoms: C_36  and  C_37
REMARK   10  A    between atoms: C_36  and  C_38
REMARK   11  A    between atoms: C_36  and  C_39
REMARK                            x       y       z     vdW  Elec       q    Type
REMARK                         _______ _______ _______ _____ _____    ______ ____
ROOT
ATOM      1  C   UNL     1      -1.560   4.124   4.387  0.00  0.00    -0.009 C 
ENDROOT
BRANCH   1   2
ATOM      2  C   UNL     1      -0.154   4.574   4.788  0.00  0.00    +0.088 C 
ATOM      3  C   UNL     1       0.371   3.595   5.820  0.00  0.00    -0.006 C 
ATOM      4  C   UNL     1       0.736   4.101   7.032  0.00  0.00    -0.007 A 
ATOM      5  C   UNL     1       1.253   3.226   8.085  0.00  0.00    +0.013 A 
ATOM      6  C   UNL     1       1.604   3.774   9.278  0.00  0.00    -0.047 A 
ATOM      7  C   UNL     1       1.481   5.143   9.512  0.00  0.00    -0.046 A 
ATOM      8  C   UNL     1       1.008   6.008   8.577  0.00  0.00    +0.027 A 
ATOM      9  C   UNL     1       0.617   5.543   7.308  0.00  0.00    +0.041 A 
ATOM     10  N   UNL     1       0.155   6.400   6.398  0.00  0.00    -0.285 N 
ATOM     11  C   UNL     1      -0.231   6.031   5.189  0.00  0.00    +0.223 C 
ATOM     12  O   UNL     1      -0.644   6.860   4.401  0.00  0.00    -0.275 OA
ATOM     13  C   UNL     1       1.889   5.686  10.858  0.00  0.00    +0.044 C 
ATOM     14  C   UNL     1       2.137   2.883  10.370  0.00  0.00    +0.044 C 
ATOM     15  H   UNL     1       0.099   7.340   6.634  0.00  0.00    +0.155 HD
ENDBRANCH   1   2
BRANCH   1  19
ATOM     16  N   UNL     1      -1.677   0.602   2.131  0.00  0.00    -0.333 N 
ATOM     17  C   UNL     1      -2.816   0.860   3.026  0.00  0.00    +0.086 C 
ATOM     18  C   UNL     1      -2.824   2.350   3.385  0.00  0.00    -0.059 C 
ATOM     19  N   UNL     1      -1.518   2.725   3.942  0.00  0.00    +0.387 N 
ATOM     20  C   UNL     1      -0.475   2.569   2.920  0.00  0.00    -0.059 C 
ATOM     21  C   UNL     1      -0.350   1.086   2.541  0.00  0.00    +0.086 C 
ATOM     22  H   UNL     1      -1.306   2.130   4.729  0.00  0.00    -0.081 HD
BRANCH  16  29
ATOM     23  C   UNL     1      -2.269   2.107  -0.208  0.00  0.00    +0.045 C 
ATOM     24  C   UNL     1      -2.141   0.606  -0.237  0.00  0.00    -0.029 A 
ATOM     25  C   UNL     1      -2.305  -0.079  -1.425  0.00  0.00    +0.006 A 
ATOM     26  C   UNL     1      -2.188  -1.456  -1.454  0.00  0.00    +0.020 A 
ATOM     27  C   UNL     1      -1.904  -2.153  -0.292  0.00  0.00    +0.043 A 
ATOM     28  C   UNL     1      -1.739  -1.473   0.900  0.00  0.00    +0.043 A 
ATOM     29  C   UNL     1      -1.851  -0.089   0.929  0.00  0.00    +0.034 A 
ATOM     30 CL   UNL     1      -1.757  -3.882  -0.332  0.00  0.00    -0.083 Cl
ENDBRANCH  16  29
ENDBRANCH   1  19
BRANCH   1  31
ATOM     31  C   UNL     1      -2.499   4.248   5.589  0.00  0.00    +0.205 C 
ATOM     32  N   UNL     1      -2.209   3.200   6.576  0.00  0.00    -0.152 NA
ATOM     33  N   UNL     1      -3.210   2.494   6.714  0.00  0.00    -0.070 NA
ATOM     34  N   UNL     1      -4.275   2.901   5.912  0.00  0.00    -0.179 N 
ATOM     35  N   UNL     1      -3.897   3.999   5.180  0.00  0.00    -0.183 NA
ATOM     36  H   UNL     1      -5.146   2.476   5.877  0.00  0.00    +0.191 HD
BRANCH  35  37
ATOM     37  C   UNL     1      -4.749   5.157   5.484  0.00  0.00    +0.035 C 
ATOM     38  C   UNL     1      -4.212   6.391   4.756  0.00  0.00    +0.029 C 
ATOM     39  C   UNL     1      -6.179   4.873   5.020  0.00  0.00    +0.029 C 
ATOM     40  C   UNL     1      -4.743   5.412   6.992  0.00  0.00    +0.029 C 
ENDBRANCH  35  37
ENDBRANCH   1  31
TORSDOF 5
