REMARK  Name = ZINC08791093
REMARK  6 active torsions:
REMARK  status: ('A' for Active; 'I' for Inactive)
REMARK    1  A    between atoms: C_1  and  C_2
REMARK    2  A    between atoms: C_13  and  C_15
REMARK    3  A    between atoms: C_15  and  C_16
REMARK    4  A    between atoms: N_28  and  C_31
REMARK    5  A    between atoms: C_34  and  O_37
REMARK    6  A    between atoms: O_37  and  C_38
REMARK                            x       y       z     vdW  Elec       q    Type
REMARK                         _______ _______ _______ _____ _____    ______ ____
ROOT
ATOM      1  C   UNL     1       1.601   3.649  -1.036  0.00  0.00    +0.044 C 
ATOM      2  C   UNL     1       1.564   2.144  -0.954  0.00  0.00    -0.050 A 
ATOM      3  C   UNL     1       0.373   1.468  -1.145  0.00  0.00    +0.005 A 
ATOM      4  C   UNL     1       0.334   0.091  -1.071  0.00  0.00    +0.024 A 
ATOM      5  C   UNL     1       1.496  -0.629  -0.802  0.00  0.00    +0.036 A 
ATOM      6  C   UNL     1       2.688   0.062  -0.610  0.00  0.00    -0.027 A 
ATOM      7  C   UNL     1       2.722   1.437  -0.686  0.00  0.00    +0.008 A 
ATOM      8  C   UNL     1       3.732  -0.986  -0.345  0.00  0.00    +0.050 C 
ATOM      9  C   UNL     1       4.396  -0.785   1.023  0.00  0.00    +0.088 C 
ATOM     10  C   UNL     1       5.876  -1.206   0.804  0.00  0.00    +0.074 C 
ATOM     11  C   UNL     1       5.953  -1.632  -0.677  0.00  0.00    -0.053 C 
ATOM     12  C   UNL     1       6.628   0.110   0.994  0.00  0.00    +0.228 C 
ATOM     13  O   UNL     1       7.828   0.249   0.897  0.00  0.00    -0.275 OA
ATOM     14  N   UNL     1       5.759   1.084   1.288  0.00  0.00    -0.210 N 
ATOM     15  C   UNL     1       4.480   0.692   1.334  0.00  0.00    +0.229 C 
ATOM     16  O   UNL     1       3.536   1.410   1.586  0.00  0.00    -0.275 OA
ATOM     17  C   UNL     1       2.996  -2.296  -0.412  0.00  0.00    +0.211 C 
ATOM     18  O   UNL     1       3.471  -3.401  -0.256  0.00  0.00    -0.277 OA
ATOM     19  N   UNL     1       1.709  -2.004  -0.679  0.00  0.00    -0.286 N 
ATOM     20  H   UNL     1       1.011  -2.671  -0.776  0.00  0.00    +0.155 HD
ATOM     21  N   UNL     1       4.822  -0.943  -1.303  0.00  0.00    +0.394 N 
ATOM     22  H   UNL     1       5.072   0.031  -1.513  0.00  0.00    -0.083 HD
ATOM     23  H   UNL     1       4.551  -1.421  -2.171  0.00  0.00    -0.083 HD
ENDROOT
BRANCH  14  24
ATOM     24  C   UNL     1       6.155   2.409   1.529  0.00  0.00    +0.044 A 
ATOM     25  C   UNL     1       6.691   3.171   0.500  0.00  0.00    +0.027 A 
ATOM     26  C   UNL     1       7.077   4.475   0.736  0.00  0.00    +0.047 A 
ATOM     27  C   UNL     1       6.940   5.021   2.004  0.00  0.00    +0.120 A 
ATOM     28  C   UNL     1       6.409   4.258   3.034  0.00  0.00    +0.047 A 
ATOM     29  C   UNL     1       6.018   2.955   2.798  0.00  0.00    +0.027 A 
BRANCH  27  30
ATOM     30  O   UNL     1       7.325   6.304   2.237  0.00  0.00    -0.495 OA
ATOM     31  C   UNL     1       7.863   7.031   1.131  0.00  0.00    +0.277 C 
ENDBRANCH  27  30
ENDBRANCH  14  24
BRANCH  11  32
ATOM     32  C   UNL     1       7.284  -1.192  -1.289  0.00  0.00    +0.022 C 
BRANCH  32  33
ATOM     33  C   UNL     1       7.390  -1.723  -2.696  0.00  0.00    -0.024 A 
ATOM     34  C   UNL     1       7.997  -2.858  -3.076  0.00  0.00    +0.087 A 
ATOM     35  N   UNL     1       7.890  -3.012  -4.432  0.00  0.00    -0.360 N 
ATOM     36  H   UNL     1       8.251  -3.757  -4.938  0.00  0.00    +0.165 HD
ATOM     37  C   UNL     1       7.194  -1.954  -4.970  0.00  0.00    +0.047 A 
ATOM     38  C   UNL     1       6.845  -1.103  -3.905  0.00  0.00    +0.003 A 
ATOM     39  C   UNL     1       6.119   0.064  -4.155  0.00  0.00    +0.010 A 
ATOM     40  C   UNL     1       5.748   0.371  -5.434  0.00  0.00    +0.001 A 
ATOM     41  C   UNL     1       6.087  -0.467  -6.487  0.00  0.00    +0.002 A 
ATOM     42  C   UNL     1       6.809  -1.619  -6.264  0.00  0.00    +0.026 A 
ENDBRANCH  32  33
ENDBRANCH  11  32
TORSDOF 4
