REMARK  Name = ZINC57328461
REMARK  8 active torsions:
REMARK  status: ('A' for Active; 'I' for Inactive)
REMARK    1  A    between atoms: C_1  and  C_2
REMARK    2  A    between atoms: C_6  and  C_12
REMARK    3  A    between atoms: C_10  and  C_11
REMARK    4  A    between atoms: C_12  and  C_13
REMARK    5  A    between atoms: N_15  and  C_16
REMARK    6  A    between atoms: C_16  and  C_17
REMARK    7  A    between atoms: C_17  and  N_18
REMARK    8  A    between atoms: C_22  and  C_23
REMARK                            x       y       z     vdW  Elec       q    Type
REMARK                         _______ _______ _______ _____ _____    ______ ____
ROOT
ATOM      1  C   UNL     1       2.963  -8.755  -3.776  0.00  0.00    +0.136 C 
ENDROOT
BRANCH   1   2
ATOM      2  N   UNL     1       4.412  -8.758  -3.990  0.00  0.00    -0.227 N 
ATOM      3  C   UNL     1       4.911  -8.141  -5.048  0.00  0.00    +0.260 C 
ATOM      4  O   UNL     1       4.196  -7.571  -5.851  0.00  0.00    -0.269 OA
ATOM      5  C   UNL     1       6.378  -8.180  -5.206  0.00  0.00    +0.080 C 
ATOM      6  C   UNL     1       7.158  -7.642  -6.179  0.00  0.00    +0.028 C 
ATOM      7  S   UNL     1       6.846  -9.127  -3.764  0.00  0.00    -0.026 S 
ATOM      8  C   UNL     1       5.209  -9.384  -3.099  0.00  0.00    +0.286 C 
ATOM      9  O   UNL     1       4.889  -9.982  -2.089  0.00  0.00    -0.262 OA
BRANCH   6  10
ATOM     10  C   UNL     1       6.566  -6.753  -7.186  0.00  0.00    -0.020 A 
ATOM     11  C   UNL     1       5.595  -5.816  -6.813  0.00  0.00    +0.012 A 
ATOM     12  C   UNL     1       5.043  -4.983  -7.760  0.00  0.00    +0.050 A 
ATOM     13  C   UNL     1       5.445  -5.067  -9.086  0.00  0.00    +0.166 A 
ATOM     14  C   UNL     1       6.413  -5.998  -9.466  0.00  0.00    +0.167 A 
ATOM     15  C   UNL     1       6.976  -6.834  -8.522  0.00  0.00    +0.057 A 
ATOM     16  O   UNL     1       6.629  -5.878 -10.809  0.00  0.00    -0.453 OA
ATOM     17  C   UNL     1       5.494  -5.152 -11.317  0.00  0.00    +0.466 C 
ATOM     18  O   UNL     1       5.058  -4.367 -10.191  0.00  0.00    -0.453 OA
ENDBRANCH   6  10
ENDBRANCH   1   2
BRANCH   1  19
ATOM     19  C   UNL     1       2.572  -7.533  -2.943  0.00  0.00    +0.123 C 
BRANCH  19  22
ATOM     20  C   UNL     1       0.548  -6.541  -2.018  0.00  0.00    +0.218 C 
ATOM     21  O   UNL     1       1.231  -5.652  -1.554  0.00  0.00    -0.275 OA
ATOM     22  N   UNL     1       1.123  -7.530  -2.730  0.00  0.00    -0.314 N 
ATOM     23  H   UNL     1       0.577  -8.241  -3.101  0.00  0.00    +0.149 HD
BRANCH  20  24
ATOM     24  C   UNL     1      -0.943  -6.538  -1.798  0.00  0.00    +0.134 C 
BRANCH  24  30
ATOM     25  C   UNL     1      -2.548   0.160  -1.895  0.00  0.00    +0.044 C 
ATOM     26  C   UNL     1      -2.213  -1.301  -1.738  0.00  0.00    -0.044 A 
ATOM     27  C   UNL     1      -1.902  -2.058  -2.859  0.00  0.00    +0.004 A 
ATOM     28  C   UNL     1      -1.596  -3.385  -2.735  0.00  0.00    +0.012 A 
ATOM     29  C   UNL     1      -1.598  -3.979  -1.474  0.00  0.00    +0.024 A 
ATOM     30  C   UNL     1      -1.327  -5.334  -0.978  0.00  0.00    +0.007 A 
ATOM     31  C   UNL     1      -1.492  -5.285   0.351  0.00  0.00    +0.200 A 
ATOM     32  O   UNL     1      -1.835  -4.041   0.730  0.00  0.00    -0.462 OA
ATOM     33  C   UNL     1      -1.912  -3.219  -0.336  0.00  0.00    +0.138 A 
ATOM     34  C   UNL     1      -2.215  -1.871  -0.483  0.00  0.00    -0.005 A 
ATOM     35  C   UNL     1      -2.549  -1.035   0.726  0.00  0.00    +0.048 C 
ENDBRANCH  24  30
ENDBRANCH  20  24
ENDBRANCH  19  22
ENDBRANCH   1  19
TORSDOF 6
