REMARK  Name = ZINC01769119
REMARK  16 active torsions:
REMARK  status: ('A' for Active; 'I' for Inactive)
REMARK    1  A    between atoms: C_1  and  C_2
REMARK    2  A    between atoms: C_4  and  C_34
REMARK    3  A    between atoms: C_6  and  O_8
REMARK    4  A    between atoms: O_8  and  C_9
REMARK    5  A    between atoms: C_15  and  O_33
REMARK    6  A    between atoms: C_16  and  C_24
REMARK    7  A    between atoms: C_19  and  C_20
REMARK    8  A    between atoms: C_24  and  N_63
REMARK    9  A    between atoms: C_25  and  C_26
REMARK   10  A    between atoms: C_25  and  N_63
REMARK   11  A    between atoms: C_26  and  O_27
REMARK   12  A    between atoms: O_27  and  C_28
REMARK   13  A    between atoms: C_29  and  C_30
REMARK   14  A    between atoms: C_29  and  N_63
REMARK   15  A    between atoms: C_30  and  O_31
REMARK   16  A    between atoms: O_31  and  C_32
REMARK                            x       y       z     vdW  Elec       q    Type
REMARK                         _______ _______ _______ _____ _____    ______ ____
ROOT
ATOM      1  C   UNL     1      -3.643   3.938   1.136  0.00  0.00    +0.222 A 
ATOM      2  C   UNL     1      -2.452   4.701   1.302  0.00  0.00    +0.235 A 
ATOM      3  O   UNL     1      -2.492   5.885   1.593  0.00  0.00    -0.283 OA
ATOM      4  C   UNL     1      -1.171   4.006   1.091  0.00  0.00    +0.068 A 
ATOM      5  C   UNL     1       0.048   4.674   1.216  0.00  0.00    +0.019 A 
ATOM      6  C   UNL     1       1.216   3.996   1.012  0.00  0.00    +0.046 A 
ATOM      7  C   UNL     1       1.196   2.642   0.681  0.00  0.00    +0.122 A 
ATOM      8  C   UNL     1      -0.005   1.965   0.554  0.00  0.00    +0.020 A 
ATOM      9  C   UNL     1      -1.201   2.641   0.753  0.00  0.00    +0.144 A 
ATOM     10  O   UNL     1      -2.385   2.008   0.630  0.00  0.00    -0.447 OA
ATOM     11  C   UNL     1      -3.556   2.632   0.815  0.00  0.00    +0.254 A 
ENDROOT
BRANCH  11  12
ATOM     12  C   UNL     1      -4.828   1.841   0.656  0.00  0.00    +0.454 C 
ATOM     13  F   UNL     1      -5.257   1.909  -0.674  0.00  0.00    -0.163 F 
ATOM     14  F   UNL     1      -4.594   0.506   1.002  0.00  0.00    -0.163 F 
ATOM     15  F   UNL     1      -5.816   2.373   1.492  0.00  0.00    -0.163 F 
ENDBRANCH  11  12
BRANCH   7  16
ATOM     16  O   UNL     1       2.365   1.981   0.482  0.00  0.00    -0.506 OA
ATOM     17  H   UNL     1       2.676   1.999  -0.434  0.00  0.00    +0.292 HD
ENDBRANCH   7  16
BRANCH   1  18
ATOM     18  O   UNL     1      -4.861   4.521   1.311  0.00  0.00    -0.448 OA
BRANCH  18  24
ATOM     19  C   UNL     1      -4.516   3.261   6.014  0.00  0.00    +0.044 C 
ATOM     20  C   UNL     1      -5.263   3.905   4.874  0.00  0.00    -0.047 A 
ATOM     21  C   UNL     1      -6.498   4.485   5.098  0.00  0.00    +0.007 A 
ATOM     22  C   UNL     1      -7.185   5.077   4.054  0.00  0.00    -0.047 A 
ATOM     23  C   UNL     1      -6.639   5.091   2.785  0.00  0.00    +0.049 A 
ATOM     24  C   UNL     1      -5.400   4.509   2.558  0.00  0.00    +0.129 A 
ATOM     25  C   UNL     1      -4.715   3.910   3.606  0.00  0.00    +0.049 A 
ATOM     26  C   UNL     1      -8.531   5.709   4.301  0.00  0.00    +0.044 C 
ENDBRANCH  18  24
ENDBRANCH   1  18
BRANCH   8  27
ATOM     27  C   UNL     1      -0.015   0.501   0.196  0.00  0.00    -0.035 C 
BRANCH  27  28
ATOM     28  N   UNL     1       0.048  -0.294   1.440  0.00  0.00    +0.385 N 
ATOM     29  H   UNL     1       0.836   0.037   2.009  0.00  0.00    -0.081 HD
BRANCH  28  30
ATOM     30  C   UNL     1      -1.203  -0.128   2.209  0.00  0.00    -0.050 C 
BRANCH  30  31
ATOM     31  C   UNL     1      -0.982  -0.658   3.628  0.00  0.00    +0.141 C 
BRANCH  31  32
ATOM     32  O   UNL     1       0.028   0.119   4.275  0.00  0.00    -0.385 OA
ATOM     33  C   UNL     1       0.235  -0.223   5.646  0.00  0.00    +0.193 C 
ENDBRANCH  31  32
ENDBRANCH  30  31
ENDBRANCH  28  30
BRANCH  28  34
ATOM     34  C   UNL     1       0.257  -1.722   1.117  0.00  0.00    -0.050 C 
BRANCH  34  35
ATOM     35  C   UNL     1       1.728  -1.932   0.753  0.00  0.00    +0.141 C 
BRANCH  35  36
ATOM     36  O   UNL     1       2.546  -1.642   1.888  0.00  0.00    -0.385 OA
ATOM     37  C   UNL     1       3.949  -1.701   1.624  0.00  0.00    +0.193 C 
ENDBRANCH  35  36
ENDBRANCH  34  35
ENDBRANCH  28  34
ENDBRANCH  27  28
ENDBRANCH   8  27
TORSDOF 12
