REMARK  Name = ZINC09336145
REMARK  8 active torsions:
REMARK  status: ('A' for Active; 'I' for Inactive)
REMARK    1  A    between atoms: C_1  and  C_2
REMARK    2  A    between atoms: C_2  and  C_3
REMARK    3  A    between atoms: C_7  and  S_9
REMARK    4  A    between atoms: S_9  and  C_10
REMARK    5  A    between atoms: C_10  and  C_11
REMARK    6  A    between atoms: N_13  and  C_14
REMARK    7  A    between atoms: C_16  and  C_25
REMARK    8  A    between atoms: N_18  and  C_19
REMARK                            x       y       z     vdW  Elec       q    Type
REMARK                         _______ _______ _______ _____ _____    ______ ____
ROOT
ATOM      1  C   UNL     1      -2.959  -2.116   8.277  0.00  0.00    +0.129 A 
ATOM      2  C   UNL     1      -2.104  -2.550   9.240  0.00  0.00    +0.074 A 
ATOM      3  C   UNL     1      -2.856  -2.795  10.404  0.00  0.00    +0.095 A 
ATOM      4  N   UNL     1      -4.117  -2.517  10.146  0.00  0.00    -0.165 NA
ATOM      5  N   UNL     1      -4.209  -2.083   8.817  0.00  0.00    -0.218 N 
ENDROOT
BRANCH   3   6
ATOM      6  C   UNL     1      -2.321  -3.282  11.700  0.00  0.00    +0.002 A 
ATOM      7  C   UNL     1      -0.958  -3.534  11.843  0.00  0.00    +0.010 A 
ATOM      8  C   UNL     1      -0.468  -3.986  13.050  0.00  0.00    +0.004 A 
ATOM      9  C   UNL     1      -1.323  -4.192  14.121  0.00  0.00    -0.044 A 
ATOM     10  C   UNL     1      -2.677  -3.943  13.984  0.00  0.00    -0.044 A 
ATOM     11  C   UNL     1      -3.176  -3.484  12.779  0.00  0.00    +0.014 A 
ATOM     12  C   UNL     1      -3.387  -4.243  15.287  0.00  0.00    +0.036 C 
ATOM     13  C   UNL     1      -2.399  -5.112  16.094  0.00  0.00    +0.009 C 
ATOM     14  C   UNL     1      -1.032  -4.675  15.526  0.00  0.00    +0.036 C 
ENDBRANCH   3   6
BRANCH   5  15
ATOM     15  C   UNL     1      -5.381  -1.689   8.159  0.00  0.00    +0.067 A 
ATOM     16  C   UNL     1      -5.339  -0.674   7.212  0.00  0.00    +0.028 A 
ATOM     17  C   UNL     1      -6.496  -0.287   6.565  0.00  0.00    +0.002 A 
ATOM     18  C   UNL     1      -7.695  -0.908   6.859  0.00  0.00    +0.000 A 
ATOM     19  C   UNL     1      -7.740  -1.920   7.801  0.00  0.00    +0.002 A 
ATOM     20  C   UNL     1      -6.586  -2.315   8.447  0.00  0.00    +0.028 A 
ENDBRANCH   5  15
BRANCH   1  23
ATOM     21  C   UNL     1      -1.335  -1.842   6.566  0.00  0.00    +0.229 C 
ATOM     22  O   UNL     1      -0.478  -2.222   7.335  0.00  0.00    -0.275 OA
ATOM     23  N   UNL     1      -2.618  -1.762   6.972  0.00  0.00    -0.270 N 
ATOM     24  H   UNL     1      -3.303  -1.459   6.356  0.00  0.00    +0.156 HD
BRANCH  21  25
ATOM     25  C   UNL     1      -0.966  -1.460   5.156  0.00  0.00    +0.173 C 
BRANCH  25  26
ATOM     26  S   UNL     1       0.820  -1.674   4.919  0.00  0.00    -0.077 S 
BRANCH  26  31
ATOM     27  C   UNL     1       0.731  -0.503   1.223  0.00  0.00    +0.152 A 
ATOM     28  N   UNL     1       2.014  -0.733   1.297  0.00  0.00    -0.157 NA
ATOM     29  H   UNL     1       3.138  -1.436   2.967  0.00  0.00    +0.191 HD
ATOM     30  N   UNL     1       2.276  -1.183   2.601  0.00  0.00    -0.254 N 
ATOM     31  C   UNL     1       1.089  -1.193   3.245  0.00  0.00    +0.185 A 
ATOM     32  N   UNL     1       0.169  -0.775   2.401  0.00  0.00    -0.206 NA
BRANCH  27  34
ATOM     33  C   UNL     1      -0.019   1.526   0.010  0.00  0.00    +0.012 C 
ATOM     34  C   UNL     1       0.002  -0.004   0.002  0.00  0.00    +0.075 C 
ENDBRANCH  27  34
ENDBRANCH  26  31
ENDBRANCH  25  26
ENDBRANCH  21  25
ENDBRANCH   1  23
TORSDOF 7
