REMARK  Name = ZINC11998035
REMARK  9 active torsions:
REMARK  status: ('A' for Active; 'I' for Inactive)
REMARK    1  A    between atoms: C_1  and  C_2
REMARK    2  A    between atoms: C_4  and  N_24
REMARK    3  A    between atoms: C_7  and  S_8
REMARK    4  A    between atoms: S_8  and  N_11
REMARK    5  A    between atoms: N_11  and  C_12
REMARK    6  A    between atoms: C_12  and  C_13
REMARK    7  A    between atoms: C_13  and  C_15
REMARK    8  A    between atoms: C_13  and  N_59
REMARK    9  A    between atoms: C_27  and  C_33
REMARK                            x       y       z     vdW  Elec       q    Type
REMARK                         _______ _______ _______ _____ _____    ______ ____
ROOT
ATOM      1  S   UNL     1      -1.848   3.970  -4.791  0.00  0.00    +0.059 S 
ATOM      2  O   UNL     1      -1.669   5.343  -4.469  0.00  0.00    -0.153 OA
ATOM      3  O   UNL     1      -1.369   3.403  -6.003  0.00  0.00    -0.153 OA
ENDROOT
BRANCH   1  10
ATOM      4  C   UNL     1      -3.645   4.759  -2.493  0.00  0.00    +0.046 C 
ATOM      5  C   UNL     1      -4.322   4.063  -3.645  0.00  0.00    -0.022 A 
ATOM      6  C   UNL     1      -5.683   3.828  -3.606  0.00  0.00    +0.030 A 
ATOM      7  C   UNL     1      -6.306   3.181  -4.665  0.00  0.00    +0.060 A 
ATOM      8  C   UNL     1      -5.558   2.777  -5.764  0.00  0.00    +0.027 A 
ATOM      9  C   UNL     1      -4.199   3.019  -5.799  0.00  0.00    +0.030 A 
ATOM     10  C   UNL     1      -3.582   3.664  -4.742  0.00  0.00    +0.108 A 
BRANCH   7  11
ATOM     11  N   UNL     1      -7.683   2.937  -4.625  0.00  0.00    -0.144 N 
ATOM     12  C   UNL     1      -8.433   2.825  -3.519  0.00  0.00    +0.243 C 
ATOM     13  O   UNL     1      -7.931   2.904  -2.418  0.00  0.00    -0.273 OA
ATOM     14  C   UNL     1      -9.907   2.599  -3.675  0.00  0.00    +0.097 C 
ATOM     15  C   UNL     1     -10.179   2.068  -5.107  0.00  0.00    +0.201 C 
ATOM     16  S   UNL     1      -8.687   2.739  -5.951  0.00  0.00    +0.053 S 
ATOM     17  O   UNL     1      -8.928   4.048  -6.449  0.00  0.00    -0.155 OA
ATOM     18  O   UNL     1      -8.069   1.743  -6.755  0.00  0.00    -0.155 OA
ATOM     19  C   UNL     1     -10.654   3.918  -3.465  0.00  0.00    +0.019 C 
ENDBRANCH   7  11
ENDBRANCH   1  10
BRANCH   1  20
ATOM     20  N   UNL     1      -1.162   3.102  -3.559  0.00  0.00    -0.191 NA
ATOM     21  H   UNL     1      -0.717   3.562  -2.831  0.00  0.00    +0.148 HD
BRANCH  20  22
ATOM     22  C   UNL     1      -1.228   1.638  -3.570  0.00  0.00    +0.098 C 
BRANCH  22  23
ATOM     23  C   UNL     1      -0.186   1.074  -2.602  0.00  0.00    +0.015 C 
BRANCH  23  28
ATOM     24  C   UNL     1       0.403   0.931  -0.243  0.00  0.00    -0.078 C 
ATOM     25  C   UNL     1      -0.289   1.270   1.095  0.00  0.00    -0.020 C 
ATOM     26  C   UNL     1      -1.738   1.646   0.710  0.00  0.00    -0.020 C 
ATOM     27  C   UNL     1      -1.796   1.504  -0.826  0.00  0.00    -0.078 C 
ATOM     28  N   UNL     1      -0.402   1.651  -1.238  0.00  0.00    +0.387 N 
ATOM     29  H   UNL     1      -0.142   2.645  -1.247  0.00  0.00    -0.081 HD
ENDBRANCH  23  28
BRANCH  23  30
ATOM     30  C   UNL     1      -0.336  -0.423  -2.520  0.00  0.00    +0.093 A 
ATOM     31  C   UNL     1       0.501  -1.328  -3.057  0.00  0.00    +0.043 A 
ATOM     32  C   UNL     1      -0.015  -2.605  -2.738  0.00  0.00    +0.041 A 
ATOM     33  C   UNL     1      -1.142  -2.404  -2.031  0.00  0.00    +0.195 A 
ATOM     34  O   UNL     1      -1.331  -1.080  -1.902  0.00  0.00    -0.469 OA
ENDBRANCH  23  30
ENDBRANCH  22  23
ENDBRANCH  20  22
ENDBRANCH   1  20
TORSDOF 7
