REMARK  Name = ZINC57762478
REMARK  8 active torsions:
REMARK  status: ('A' for Active; 'I' for Inactive)
REMARK    1  A    between atoms: C_1  and  C_2
REMARK    2  A    between atoms: C_2  and  C_3
REMARK    3  A    between atoms: C_5  and  C_11
REMARK    4  A    between atoms: C_8  and  O_9
REMARK    5  A    between atoms: O_9  and  C_10
REMARK    6  A    between atoms: C_11  and  C_12
REMARK    7  A    between atoms: C_12  and  C_14
REMARK    8  A    between atoms: C_12  and  C_16
REMARK                            x       y       z     vdW  Elec       q    Type
REMARK                         _______ _______ _______ _____ _____    ______ ____
ROOT
ATOM      1  C   UNL     1       5.038  -0.354   2.515  0.00  0.00    +0.126 C 
ENDROOT
BRANCH   1   2
ATOM      2  C   UNL     1       6.501  -0.715   2.551  0.00  0.00    -0.027 A 
ATOM      3  C   UNL     1       7.113  -1.226   1.422  0.00  0.00    +0.009 A 
ATOM      4  C   UNL     1       8.454  -1.560   1.452  0.00  0.00    +0.050 A 
ATOM      5  C   UNL     1       9.189  -1.383   2.615  0.00  0.00    +0.162 A 
ATOM      6  C   UNL     1       8.573  -0.867   3.749  0.00  0.00    +0.162 A 
ATOM      7  C   UNL     1       7.229  -0.530   3.711  0.00  0.00    +0.054 A 
ATOM      8  O   UNL     1       9.278  -0.678   4.898  0.00  0.00    -0.485 OA
ATOM      9  C   UNL     1      10.528  -1.367   5.008  0.00  0.00    +0.270 C 
ATOM     10  C   UNL     1      11.298  -1.179   3.694  0.00  0.00    +0.270 C 
ATOM     11  O   UNL     1      10.507  -1.720   2.630  0.00  0.00    -0.485 OA
ENDBRANCH   1   2
BRANCH   1  12
ATOM     12  C   UNL     1       4.812   0.673   1.485  0.00  0.00    +0.071 C 
ATOM     13  N   UNL     1       4.637   1.465   0.690  0.00  0.00    -0.196 NA
ENDBRANCH   1  12
BRANCH   1  14
ATOM     14  C   UNL     1       4.213  -1.599   2.184  0.00  0.00    +0.058 C 
BRANCH  14  17
ATOM     15  C   UNL     1       0.731  -0.503   1.223  0.00  0.00    -0.006 A 
ATOM     16  C   UNL     1       2.076  -0.808   1.148  0.00  0.00    +0.011 A 
ATOM     17  C   UNL     1       2.746  -1.266   2.268  0.00  0.00    -0.045 A 
ATOM     18  C   UNL     1       2.071  -1.421   3.465  0.00  0.00    +0.007 A 
ATOM     19  C   UNL     1       0.726  -1.117   3.545  0.00  0.00    +0.046 A 
ATOM     20  C   UNL     1       0.053  -0.652   2.424  0.00  0.00    +0.123 A 
BRANCH  15  22
ATOM     21  C   UNL     1      -0.019   1.526   0.010  0.00  0.00    +0.009 C 
ATOM     22  C   UNL     1       0.002  -0.004   0.002  0.00  0.00    +0.035 C 
ENDBRANCH  15  22
BRANCH  20  23
ATOM     23  O   UNL     1      -1.269  -0.347   2.501  0.00  0.00    -0.495 OA
ATOM     24  C   UNL     1      -1.903  -0.524   3.770  0.00  0.00    +0.277 C 
ENDBRANCH  20  23
ENDBRANCH  14  17
ENDBRANCH   1  14
TORSDOF 6
