REMARK  Name = ZINC36003053
REMARK  8 active torsions:
REMARK  status: ('A' for Active; 'I' for Inactive)
REMARK    1  A    between atoms: C_1  and  C_2
REMARK    2  A    between atoms: C_6  and  C_17
REMARK    3  A    between atoms: N_9  and  C_11
REMARK    4  A    between atoms: N_23  and  C_24
REMARK    5  A    between atoms: C_27  and  N_30
REMARK    6  A    between atoms: C_31  and  C_33
REMARK    7  A    between atoms: C_33  and  C_34
REMARK    8  A    between atoms: C_33  and  C_35
REMARK                            x       y       z     vdW  Elec       q    Type
REMARK                         _______ _______ _______ _____ _____    ______ ____
ROOT
ATOM      1  C   UNL     1      -0.036   1.502   0.012  0.00  0.00    +0.068 C 
ATOM      2  C   UNL     1      -0.012  -0.004   0.003  0.00  0.00    +0.073 A 
ATOM      3  C   UNL     1      -0.099  -0.824  -1.143  0.00  0.00    +0.082 A 
ATOM      4  C   UNL     1      -0.222  -0.584  -2.525  0.00  0.00    +0.134 A 
ATOM      5  N   UNL     1      -0.276  -1.628  -3.345  0.00  0.00    -0.216 NA
ATOM      6  C   UNL     1      -0.216  -2.865  -2.883  0.00  0.00    +0.137 A 
ATOM      7  N   UNL     1      -0.100  -3.138  -1.602  0.00  0.00    -0.212 NA
ATOM      8  C   UNL     1      -0.038  -2.160  -0.701  0.00  0.00    +0.169 A 
ATOM      9  N   UNL     1       0.080  -2.114   0.659  0.00  0.00    -0.214 N 
ATOM     10  N   UNL     1       0.097  -0.770   1.052  0.00  0.00    -0.169 NA
ATOM     11  N   UNL     1      -0.287   0.705  -3.017  0.00  0.00    -0.326 N 
ATOM     12  H   UNL     1      -0.169   1.459  -2.417  0.00  0.00    +0.148 HD
ENDROOT
BRANCH   9  13
ATOM     13  C   UNL     1       0.172  -3.220   1.513  0.00  0.00    +0.068 A 
ATOM     14  C   UNL     1      -0.523  -4.386   1.219  0.00  0.00    +0.028 A 
ATOM     15  C   UNL     1      -0.429  -5.476   2.062  0.00  0.00    +0.002 A 
ATOM     16  C   UNL     1       0.354  -5.406   3.200  0.00  0.00    +0.000 A 
ATOM     17  C   UNL     1       1.046  -4.246   3.496  0.00  0.00    +0.002 A 
ATOM     18  C   UNL     1       0.962  -3.155   2.653  0.00  0.00    +0.028 A 
ENDBRANCH   9  13
BRANCH   6  19
ATOM     19  C   UNL     1      -0.283  -4.007  -3.864  0.00  0.00    +0.057 C 
ATOM     20  C   UNL     1      -1.495  -4.884  -3.543  0.00  0.00    +0.011 C 
ATOM     21  C   UNL     1      -1.563  -6.044  -4.538  0.00  0.00    +0.001 C 
ATOM     22  C   UNL     1      -0.286  -6.881  -4.434  0.00  0.00    +0.000 C 
ATOM     23  C   UNL     1       0.926  -6.003  -4.755  0.00  0.00    +0.001 C 
ATOM     24  C   UNL     1       0.994  -4.844  -3.760  0.00  0.00    +0.011 C 
ENDBRANCH   6  19
BRANCH  11  25
ATOM     25  C   UNL     1      -0.532   0.934  -4.443  0.00  0.00    +0.072 C 
ATOM     26  C   UNL     1       0.792   0.866  -5.205  0.00  0.00    +0.024 C 
ATOM     27  C   UNL     1       0.536   1.105  -6.695  0.00  0.00    +0.024 C 
ATOM     28  C   UNL     1      -0.094   2.486  -6.888  0.00  0.00    +0.073 C 
ATOM     29  C   UNL     1      -1.418   2.555  -6.125  0.00  0.00    +0.024 C 
ATOM     30  C   UNL     1      -1.162   2.315  -4.636  0.00  0.00    +0.024 C 
BRANCH  28  31
ATOM     31  N   UNL     1      -0.339   2.716  -8.314  0.00  0.00    -0.312 N 
ATOM     32  C   UNL     1      -0.402   3.974  -8.794  0.00  0.00    +0.216 C 
ATOM     33  O   UNL     1      -0.255   4.916  -8.045  0.00  0.00    -0.276 OA
ATOM     34  H   UNL     1      -0.457   1.962  -8.914  0.00  0.00    +0.149 HD
BRANCH  32  35
ATOM     35  C   UNL     1      -0.654   4.209 -10.261  0.00  0.00    +0.069 C 
ATOM     36  C   UNL     1      -2.001   3.598 -10.651  0.00  0.00    +0.017 C 
ATOM     37  C   UNL     1      -0.678   5.714 -10.539  0.00  0.00    +0.017 C 
ENDBRANCH  32  35
ENDBRANCH  28  31
ENDBRANCH  11  25
TORSDOF 5
