REMARK  Name = ZINC35777460
REMARK  14 active torsions:
REMARK  status: ('A' for Active; 'I' for Inactive)
REMARK    1  A    between atoms: C_1  and  C_2
REMARK    2  A    between atoms: C_2  and  C_3
REMARK    3  A    between atoms: C_4  and  C_22
REMARK    4  A    between atoms: C_5  and  O_14
REMARK    5  A    between atoms: N_6  and  C_8
REMARK    6  A    between atoms: O_14  and  C_15
REMARK    7  A    between atoms: C_22  and  N_23
REMARK    8  A    between atoms: N_23  and  C_24
REMARK    9  A    between atoms: N_23  and  C_36
REMARK   10  A    between atoms: C_24  and  C_25
REMARK   11  A    between atoms: C_25  and  C_27
REMARK   12  A    between atoms: C_25  and  O_35
REMARK   13  A    between atoms: C_27  and  O_28
REMARK   14  A    between atoms: O_28  and  C_29
REMARK                            x       y       z     vdW  Elec       q    Type
REMARK                         _______ _______ _______ _____ _____    ______ ____
ROOT
ATOM      1  C   UNL     1       0.556  -0.722   1.332  0.00  0.00    +0.068 A 
ATOM      2  C   UNL     1       1.872  -0.693   0.861  0.00  0.00    +0.021 A 
ATOM      3  C   UNL     1       2.694  -0.995   1.901  0.00  0.00    +0.225 A 
ATOM      4  N   UNL     1       1.911  -1.208   2.993  0.00  0.00    -0.200 N 
ATOM      5  N   UNL     1       0.578  -1.025   2.605  0.00  0.00    -0.168 NA
ENDROOT
BRANCH   4   6
ATOM      6  C   UNL     1       2.359  -1.546   4.277  0.00  0.00    +0.069 A 
ATOM      7  C   UNL     1       3.380  -2.474   4.437  0.00  0.00    +0.028 A 
ATOM      8  C   UNL     1       3.819  -2.804   5.704  0.00  0.00    +0.002 A 
ATOM      9  C   UNL     1       3.243  -2.212   6.813  0.00  0.00    +0.000 A 
ATOM     10  C   UNL     1       2.226  -1.288   6.657  0.00  0.00    +0.002 A 
ATOM     11  C   UNL     1       1.787  -0.949   5.393  0.00  0.00    +0.028 A 
ENDBRANCH   4   6
BRANCH   1  13
ATOM     12  C   UNL     1      -0.980   1.054   0.534  0.00  0.00    +0.010 C 
ATOM     13  C   UNL     1      -0.679  -0.446   0.513  0.00  0.00    +0.054 C 
ENDBRANCH   1  13
BRANCH   3  14
ATOM     14  O   UNL     1       4.049  -1.071   1.858  0.00  0.00    -0.435 OA
BRANCH  14  15
ATOM     15  C   UNL     1       4.610  -2.238   1.444  0.00  0.00    +0.165 A 
ATOM     16  C   UNL     1       3.806  -3.271   0.986  0.00  0.00    +0.049 A 
ATOM     17  C   UNL     1       4.378  -4.456   0.565  0.00  0.00    +0.004 A 
ATOM     18  C   UNL     1       5.751  -4.614   0.600  0.00  0.00    +0.003 A 
ATOM     19  C   UNL     1       6.556  -3.587   1.056  0.00  0.00    +0.042 A 
ATOM     20  C   UNL     1       5.990  -2.396   1.473  0.00  0.00    +0.165 A 
ATOM     21  F   UNL     1       6.777  -1.390   1.913  0.00  0.00    -0.202 F 
ENDBRANCH  14  15
ENDBRANCH   3  14
BRANCH   2  22
ATOM     22  C   UNL     1       2.303  -0.381  -0.549  0.00  0.00    -0.035 C 
BRANCH  22  23
ATOM     23  N   UNL     1       2.481   1.070  -0.697  0.00  0.00    +0.386 N 
ATOM     24  H   UNL     1       1.636   1.543  -0.414  0.00  0.00    -0.081 HD
BRANCH  23  25
ATOM     25  C   UNL     1       2.773   1.387  -2.102  0.00  0.00    -0.068 C 
ATOM     26  C   UNL     1       2.012   2.553  -2.736  0.00  0.00    -0.017 C 
ATOM     27  C   UNL     1       1.673   1.114  -3.130  0.00  0.00    -0.017 C 
ENDBRANCH  23  25
BRANCH  23  28
ATOM     28  C   UNL     1       3.598   1.515   0.147  0.00  0.00    -0.043 C 
BRANCH  28  29
ATOM     29  C   UNL     1       3.704   3.040   0.090  0.00  0.00    +0.135 C 
BRANCH  29  30
ATOM     30  O   UNL     1       2.535   3.622   0.671  0.00  0.00    -0.390 OA
ATOM     31  H   UNL     1       2.395   3.380   1.597  0.00  0.00    +0.210 HD
ENDBRANCH  29  30
BRANCH  29  32
ATOM     32  C   UNL     1       4.941   3.495   0.868  0.00  0.00    +0.258 C 
BRANCH  32  33
ATOM     33  O   UNL     1       5.106   4.906   0.717  0.00  0.00    -0.489 OA
BRANCH  33  34
ATOM     34  C   UNL     1       6.166   5.474   1.350  0.00  0.00    +0.121 A 
ATOM     35  C   UNL     1       7.033   4.689   2.096  0.00  0.00    +0.045 A 
ATOM     36  C   UNL     1       8.110   5.269   2.738  0.00  0.00    +0.004 A 
ATOM     37  C   UNL     1       8.324   6.631   2.638  0.00  0.00    +0.000 A 
ATOM     38  C   UNL     1       7.461   7.416   1.896  0.00  0.00    +0.004 A 
ATOM     39  C   UNL     1       6.386   6.840   1.247  0.00  0.00    +0.045 A 
ENDBRANCH  33  34
ENDBRANCH  32  33
ENDBRANCH  29  32
ENDBRANCH  28  29
ENDBRANCH  23  28
ENDBRANCH  22  23
ENDBRANCH   2  22
TORSDOF 13
