REMARK  Name = ZINC22222212
REMARK  8 active torsions:
REMARK  status: ('A' for Active; 'I' for Inactive)
REMARK    1  A    between atoms: C_1  and  C_2
REMARK    2  A    between atoms: C_2  and  C_3
REMARK    3  A    between atoms: C_3  and  C_4
REMARK    4  A    between atoms: C_7  and  C_10
REMARK    5  A    between atoms: C_10  and  C_34
REMARK    6  A    between atoms: N_13  and  C_17
REMARK    7  A    between atoms: C_17  and  C_18
REMARK    8  A    between atoms: N_23  and  C_24
REMARK                            x       y       z     vdW  Elec       q    Type
REMARK                         _______ _______ _______ _____ _____    ______ ____
ROOT
ATOM      1  C   UNL     1       0.618  -8.218  -1.960  0.00  0.00    +0.214 C 
ENDROOT
BRANCH   1   5
ATOM      2  C   UNL     1       0.817  -6.286   1.206  0.00  0.00    +0.135 C 
ATOM      3  C   UNL     1       1.426  -6.804  -0.082  0.00  0.00    +0.251 C 
ATOM      4  O   UNL     1       2.550  -6.608  -0.491  0.00  0.00    -0.272 OA
ATOM      5  N   UNL     1       0.458  -7.529  -0.677  0.00  0.00    -0.215 N 
ATOM      6  C   UNL     1      -0.666  -7.541   0.048  0.00  0.00    +0.310 C 
ATOM      7  O   UNL     1      -1.677  -8.128  -0.284  0.00  0.00    -0.252 OA
ATOM      8  N   UNL     1      -0.552  -6.830   1.185  0.00  0.00    -0.281 N 
ATOM      9  C   UNL     1       1.586  -6.813   2.419  0.00  0.00    +0.047 C 
ATOM     10  H   UNL     1      -1.237  -6.702   1.859  0.00  0.00    +0.152 HD
BRANCH   2  14
ATOM     11  C   UNL     1       0.738  -2.015   1.222  0.00  0.00    -0.047 A 
ATOM     12  C   UNL     1      -0.280  -2.728   1.828  0.00  0.00    +0.004 A 
ATOM     13  C   UNL     1      -0.254  -4.110   1.823  0.00  0.00    +0.006 A 
ATOM     14  C   UNL     1       0.788  -4.780   1.211  0.00  0.00    -0.015 A 
ATOM     15  C   UNL     1       1.806  -4.067   0.604  0.00  0.00    +0.006 A 
ATOM     16  C   UNL     1       1.778  -2.685   0.605  0.00  0.00    +0.004 A 
BRANCH  11  17
ATOM     17  C   UNL     1       0.710  -0.509   1.228  0.00  0.00    +0.035 C 
BRANCH  17  19
ATOM     18  C   UNL     1      -0.068   1.522  -0.003  0.00  0.00    +0.004 C 
ATOM     19  C   UNL     1      -0.039  -0.008  -0.009  0.00  0.00    +0.001 C 
ENDBRANCH  17  19
ENDBRANCH  11  17
ENDBRANCH   2  14
ENDBRANCH   1   5
BRANCH   1  20
ATOM     20  C   UNL     1       1.124  -9.617  -1.720  0.00  0.00    +0.238 C 
ATOM     21  O   UNL     1       1.331 -10.000  -0.589  0.00  0.00    -0.274 OA
ATOM     22  N   UNL     1       1.346 -10.441  -2.763  0.00  0.00    -0.239 N 
ATOM     23  C   UNL     1       1.799 -11.692  -2.548  0.00  0.00    +0.310 C 
ATOM     24  O   UNL     1       2.007 -12.077  -1.414  0.00  0.00    -0.252 OA
ATOM     25  N   UNL     1       2.022 -12.517  -3.590  0.00  0.00    -0.269 N 
ATOM     26  H   UNL     1       1.180 -10.134  -3.668  0.00  0.00    +0.159 HD
ATOM     27  H   UNL     1       1.793 -12.234  -4.490  0.00  0.00    +0.156 HD
BRANCH  25  28
ATOM     28  C   UNL     1       2.583 -13.782  -3.375  0.00  0.00    +0.038 A 
ATOM     29  C   UNL     1       3.459 -14.321  -4.309  0.00  0.00    +0.027 A 
ATOM     30  C   UNL     1       4.012 -15.569  -4.098  0.00  0.00    +0.051 A 
ATOM     31  C   UNL     1       3.696 -16.287  -2.953  0.00  0.00    +0.162 A 
ATOM     32  C   UNL     1       2.822 -15.749  -2.016  0.00  0.00    +0.164 A 
ATOM     33  C   UNL     1       2.270 -14.495  -2.227  0.00  0.00    +0.072 A 
ATOM     34  O   UNL     1       2.507 -16.435  -0.884  0.00  0.00    -0.485 OA
ATOM     35  C   UNL     1       2.789 -17.839  -0.881  0.00  0.00    +0.270 C 
ATOM     36  C   UNL     1       4.206 -18.045  -1.434  0.00  0.00    +0.270 C 
ATOM     37  O   UNL     1       4.249 -17.518  -2.764  0.00  0.00    -0.485 OA
ENDBRANCH  25  28
ENDBRANCH   1  20
TORSDOF 6
