REMARK  Name = ZINC05945795
REMARK  7 active torsions:
REMARK  status: ('A' for Active; 'I' for Inactive)
REMARK    1  A    between atoms: C_4  and  O_29
REMARK    2  A    between atoms: C_5  and  C_7
REMARK    3  A    between atoms: N_8  and  C_9
REMARK    4  A    between atoms: C_13  and  O_15
REMARK    5  A    between atoms: O_15  and  C_16
REMARK    6  A    between atoms: C_19  and  N_26
REMARK    7  A    between atoms: C_21  and  C_22
REMARK                            x       y       z     vdW  Elec       q    Type
REMARK                         _______ _______ _______ _____ _____    ______ ____
ROOT
ATOM      1  C   UNL     1      -4.763   0.950   0.131  0.00  0.00    +0.067 A 
ATOM      2  C   UNL     1      -4.937  -0.095  -0.781  0.00  0.00    +0.028 A 
ATOM      3  C   UNL     1      -6.143  -0.761  -0.843  0.00  0.00    +0.006 A 
ATOM      4  C   UNL     1      -7.182  -0.399  -0.005  0.00  0.00    +0.046 A 
ATOM      5  C   UNL     1      -7.019   0.637   0.904  0.00  0.00    +0.130 A 
ATOM      6  C   UNL     1      -5.811   1.310   0.979  0.00  0.00    +0.074 A 
ENDROOT
BRANCH   1   8
ATOM      7  C   UNL     1      -2.449   0.943   0.192  0.00  0.00    +0.123 C 
ATOM      8  N   UNL     1      -3.568   1.613   0.195  0.00  0.00    -0.255 NA
BRANCH   7  13
ATOM      9  C   UNL     1       1.237   1.616   0.319  0.00  0.00    +0.001 A 
ATOM     10  C   UNL     1       1.258   3.000   0.387  0.00  0.00    +0.004 A 
ATOM     11  C   UNL     1       0.078   3.718   0.396  0.00  0.00    +0.046 A 
ATOM     12  C   UNL     1      -1.138   3.057   0.336  0.00  0.00    +0.125 A 
ATOM     13  C   UNL     1      -1.165   1.656   0.262  0.00  0.00    +0.034 A 
ATOM     14  C   UNL     1       0.037   0.941   0.259  0.00  0.00    +0.013 A 
BRANCH  12  15
ATOM     15  O   UNL     1      -2.298   3.761   0.345  0.00  0.00    -0.506 OA
ATOM     16  H   UNL     1      -2.615   4.009  -0.535  0.00  0.00    +0.292 HD
ENDBRANCH  12  15
ENDBRANCH   7  13
ENDBRANCH   1   8
BRANCH   5  17
ATOM     17  O   UNL     1      -8.043   0.988   1.725  0.00  0.00    -0.455 OA
BRANCH  17  18
ATOM     18  C   UNL     1      -8.625   2.202   1.537  0.00  0.00    +0.140 A 
ATOM     19  C   UNL     1      -8.259   2.987   0.452  0.00  0.00    +0.049 A 
ATOM     20  C   UNL     1      -8.853   4.220   0.262  0.00  0.00    +0.036 A 
ATOM     21  C   UNL     1      -9.810   4.672   1.151  0.00  0.00    +0.127 A 
ATOM     22  C   UNL     1     -10.176   3.892   2.233  0.00  0.00    +0.048 A 
ATOM     23  C   UNL     1      -9.590   2.656   2.425  0.00  0.00    +0.099 A 
BRANCH  23  24
ATOM     24  C   UNL     1      -9.993   1.803   3.600  0.00  0.00    +0.421 C 
ATOM     25  F   UNL     1     -10.973   2.469   4.344  0.00  0.00    -0.166 F 
ATOM     26  F   UNL     1     -10.505   0.586   3.139  0.00  0.00    -0.166 F 
ATOM     27  F   UNL     1      -8.877   1.564   4.408  0.00  0.00    -0.166 F 
ENDBRANCH  23  24
BRANCH  21  28
ATOM     28  N   UNL     1     -10.445   5.993   0.945  0.00  0.00    +0.056 N 
ATOM     29  O   UNL     1     -10.124   6.681  -0.007  0.00  0.00    -0.126 OA
ATOM     30  O   UNL     1     -11.289   6.392   1.728  0.00  0.00    -0.126 OA
ENDBRANCH  21  28
ENDBRANCH  17  18
ENDBRANCH   5  17
TORSDOF 7
