REMARK  Name = ZINC16013858
REMARK  18 active torsions:
REMARK  status: ('A' for Active; 'I' for Inactive)
REMARK    1  A    between atoms: C_1  and  C_2
REMARK    2  A    between atoms: C_2  and  C_3
REMARK    3  A    between atoms: C_2  and  C_4
REMARK    4  A    between atoms: C_4  and  N_5
REMARK    5  A    between atoms: C_6  and  N_36
REMARK    6  A    between atoms: C_7  and  N_14
REMARK    7  A    between atoms: N_14  and  C_15
REMARK    8  A    between atoms: C_15  and  C_16
REMARK    9  A    between atoms: C_16  and  C_17
REMARK   10  A    between atoms: C_16  and  C_18
REMARK   11  A    between atoms: C_19  and  C_21
REMARK   12  A    between atoms: C_21  and  N_22
REMARK   13  A    between atoms: N_22  and  C_23
REMARK   14  A    between atoms: C_24  and  C_26
REMARK   15  A    between atoms: C_26  and  C_27
REMARK   16  A    between atoms: C_27  and  C_28
REMARK   17  A    between atoms: C_33  and  O_34
REMARK   18  A    between atoms: O_34  and  C_35
REMARK                            x       y       z     vdW  Elec       q    Type
REMARK                         _______ _______ _______ _____ _____    ______ ____
ROOT
ATOM      1  N   UNL     1      -1.615  -2.625   7.917  0.00  0.00    -0.263 N 
ATOM      2  C   UNL     1      -1.205  -1.567   7.187  0.00  0.00    +0.237 C 
ATOM      3  O   UNL     1      -0.565  -1.743   6.171  0.00  0.00    -0.274 OA
ENDROOT
BRANCH   1   6
ATOM      4  N   UNL     1      -1.735  -6.145   6.868  0.00  0.00    -0.280 N 
ATOM      5  C   UNL     1      -2.155  -4.882   7.217  0.00  0.00    +0.127 A 
ATOM      6  C   UNL     1      -1.216  -3.929   7.556  0.00  0.00    +0.140 A 
ATOM      7  C   UNL     1       0.148  -4.279   7.528  0.00  0.00    +0.277 A 
ATOM      8  O   UNL     1       0.999  -3.455   7.818  0.00  0.00    -0.266 OA
ATOM      9  N   UNL     1       0.506  -5.532   7.184  0.00  0.00    -0.273 N 
ATOM     10  H   UNL     1       1.473  -5.783   7.171  0.00  0.00    +0.173 HD
ATOM     11  C   UNL     1      -0.424  -6.447   6.857  0.00  0.00    +0.331 A 
ATOM     12  O   UNL     1      -0.073  -7.569   6.546  0.00  0.00    -0.246 OA
BRANCH   5  13
ATOM     13  N   UNL     1      -3.494  -4.573   7.229  0.00  0.00    -0.343 N 
ATOM     14  H   UNL     1      -3.780  -3.661   7.393  0.00  0.00    +0.144 HD
ATOM     15  H   UNL     1      -4.153  -5.268   7.073  0.00  0.00    +0.144 HD
ENDBRANCH   5  13
BRANCH   4  16
ATOM     16  C   UNL     1      -2.721  -7.166   6.506  0.00  0.00    +0.131 C 
BRANCH  16  18
ATOM     17  C   UNL     1      -3.914  -8.257   4.602  0.00  0.00    +0.009 C 
ATOM     18  C   UNL     1      -2.981  -7.112   4.999  0.00  0.00    +0.003 C 
ATOM     19  C   UNL     1      -3.633  -5.775   4.641  0.00  0.00    +0.009 C 
ENDBRANCH  16  18
ENDBRANCH   4  16
ENDBRANCH   1   6
BRANCH   1  20
ATOM     20  C   UNL     1      -2.473  -2.420   9.087  0.00  0.00    +0.117 C 
BRANCH  20  21
ATOM     21  C   UNL     1      -1.605  -2.276  10.338  0.00  0.00    +0.001 C 
ATOM     22  C   UNL     1      -2.487  -1.903  11.531  0.00  0.00    +0.009 C 
ATOM     23  C   UNL     1      -0.897  -3.602  10.623  0.00  0.00    +0.009 C 
ENDBRANCH  20  21
ENDBRANCH   1  20
BRANCH   2  24
ATOM     24  C   UNL     1      -1.544  -0.168   7.632  0.00  0.00    +0.203 C 
BRANCH  24  25
ATOM     25  N   UNL     1      -0.890   0.798   6.745  0.00  0.00    -0.296 N 
ATOM     26  C   UNL     1       0.455   1.286   7.059  0.00  0.00    +0.132 C 
ATOM     27  C   UNL     1      -1.526   1.238   5.641  0.00  0.00    +0.216 C 
ATOM     28  O   UNL     1      -2.639   0.833   5.382  0.00  0.00    -0.276 OA
BRANCH  27  29
ATOM     29  C   UNL     1      -0.853   2.231   4.730  0.00  0.00    +0.101 C 
BRANCH  29  30
ATOM     30  C   UNL     1      -1.783   2.561   3.561  0.00  0.00    +0.048 C 
BRANCH  30  31
ATOM     31  C   UNL     1      -1.111   3.555   2.649  0.00  0.00    -0.005 A 
ATOM     32  C   UNL     1      -1.357   4.906   2.797  0.00  0.00    +0.007 A 
ATOM     33  C   UNL     1      -0.740   5.819   1.961  0.00  0.00    +0.000 A 
ATOM     34  C   UNL     1       0.125   5.381   0.975  0.00  0.00    +0.004 A 
ATOM     35  C   UNL     1       0.379   4.032   0.827  0.00  0.00    +0.046 A 
ATOM     36  C   UNL     1      -0.243   3.114   1.660  0.00  0.00    +0.123 A 
BRANCH  36  37
ATOM     37  O   UNL     1       0.001   1.785   1.513  0.00  0.00    -0.495 OA
ATOM     38  C   UNL     1       0.905   1.403   0.474  0.00  0.00    +0.277 C 
ENDBRANCH  36  37
ENDBRANCH  30  31
ENDBRANCH  29  30
ENDBRANCH  27  29
ENDBRANCH  24  25
ENDBRANCH   2  24
TORSDOF 12
