REMARK  Name = ZINC04128077
REMARK  6 active torsions:
REMARK  status: ('A' for Active; 'I' for Inactive)
REMARK    1  A    between atoms: C_1  and  C_2
REMARK    2  A    between atoms: C_4  and  C_27
REMARK    3  A    between atoms: C_8  and  C_14
REMARK    4  A    between atoms: C_14  and  S_15
REMARK    5  A    between atoms: S_15  and  C_16
REMARK    6  A    between atoms: C_18  and  C_26
REMARK                            x       y       z     vdW  Elec       q    Type
REMARK                         _______ _______ _______ _____ _____    ______ ____
ROOT
ATOM      1  C   UNL     1       2.491   1.029  -0.016  0.00  0.00    +0.044 C 
ATOM      2  C   UNL     1       1.185   1.779   0.000  0.00  0.00    -0.050 A 
ATOM      3  C   UNL     1      -0.013   1.076   0.008  0.00  0.00    +0.008 A 
ATOM      4  C   UNL     1      -1.219   1.741   0.017  0.00  0.00    -0.026 A 
ATOM      5  C   UNL     1      -1.240   3.132   0.031  0.00  0.00    +0.052 A 
ATOM      6  C   UNL     1      -0.025   3.842   0.023  0.00  0.00    +0.003 A 
ATOM      7  C   UNL     1       1.188   3.145   0.008  0.00  0.00    +0.013 A 
ATOM      8  C   UNL     1      -0.057   5.306   0.031  0.00  0.00    -0.023 A 
ATOM      9  C   UNL     1      -1.263   5.926   0.045  0.00  0.00    +0.075 A 
ATOM     10  C   UNL     1      -2.453   5.168   0.052  0.00  0.00    +0.249 A 
ATOM     11  O   UNL     1      -3.526   5.746   0.065  0.00  0.00    -0.268 OA
ATOM     12  N   UNL     1      -2.433   3.824   0.045  0.00  0.00    -0.322 N 
ATOM     13  H   UNL     1      -3.296   3.318   0.050  0.00  0.00    +0.169 HD
ATOM     14  C   UNL     1      -2.511   0.965   0.019  0.00  0.00    +0.046 C 
ENDROOT
BRANCH   8  15
ATOM     15  C   UNL     1       1.221   6.104   0.023  0.00  0.00    +0.111 C 
BRANCH  15  16
ATOM     16  S   UNL     1       1.982   6.041   1.663  0.00  0.00    -0.101 S 
BRANCH  16  17
ATOM     17  C   UNL     1       3.413   7.028   1.375  0.00  0.00    +0.098 A 
ATOM     18  C   UNL     1       4.314   7.252   2.427  0.00  0.00    +0.038 A 
ATOM     19  C   UNL     1       5.428   8.007   2.216  0.00  0.00    -0.039 A 
ATOM     20  C   UNL     1       5.632   8.555   0.933  0.00  0.00    +0.003 A 
ATOM     21  C   UNL     1       6.754   9.348   0.650  0.00  0.00    +0.010 A 
ATOM     22  C   UNL     1       6.919   9.861  -0.602  0.00  0.00    +0.001 A 
ATOM     23  C   UNL     1       5.987   9.608  -1.605  0.00  0.00    +0.002 A 
ATOM     24  C   UNL     1       4.886   8.843  -1.365  0.00  0.00    +0.028 A 
ATOM     25  C   UNL     1       4.683   8.297  -0.086  0.00  0.00    +0.072 A 
ATOM     26  N   UNL     1       3.610   7.542   0.178  0.00  0.00    -0.240 NA
ATOM     27  C   UNL     1       6.414   8.256   3.329  0.00  0.00    +0.044 C 
ENDBRANCH  16  17
ENDBRANCH  15  16
ENDBRANCH   8  15
TORSDOF 3
