REMARK  Name = ZINC63654873
REMARK  14 active torsions:
REMARK  status: ('A' for Active; 'I' for Inactive)
REMARK    1  A    between atoms: C_1  and  O_2
REMARK    2  A    between atoms: O_2  and  C_3
REMARK    3  A    between atoms: C_6  and  C_9
REMARK    4  A    between atoms: C_11  and  S_19
REMARK    5  A    between atoms: S_19  and  C_20
REMARK    6  A    between atoms: C_20  and  C_21
REMARK    7  A    between atoms: C_21  and  N_22
REMARK    8  A    between atoms: C_23  and  C_25
REMARK    9  A    between atoms: C_27  and  O_35
REMARK   10  A    between atoms: C_28  and  O_33
REMARK   11  A    between atoms: C_29  and  O_31
REMARK   12  A    between atoms: O_31  and  C_32
REMARK   13  A    between atoms: O_33  and  C_34
REMARK   14  A    between atoms: O_35  and  C_36
REMARK                            x       y       z     vdW  Elec       q    Type
REMARK                         _______ _______ _______ _____ _____    ______ ____
ROOT
ATOM      1  S   UNL     1       5.156  -2.030  -3.474  0.00  0.00    -0.125 S 
ENDROOT
BRANCH   1   3
ATOM      2  C   UNL     1       2.494  -2.504  -4.348  0.00  0.00    +0.147 C 
ATOM      3  C   UNL     1       3.883  -2.971  -3.974  0.00  0.00    +0.021 C 
ATOM      4  C   UNL     1       3.872  -4.353  -4.136  0.00  0.00    +0.010 A 
ATOM      5  C   UNL     1       4.861  -5.342  -3.944  0.00  0.00    +0.011 A 
ATOM      6  C   UNL     1       4.565  -6.646  -4.185  0.00  0.00    +0.001 A 
ATOM      7  C   UNL     1       3.299  -7.039  -4.620  0.00  0.00    +0.002 A 
ATOM      8  C   UNL     1       2.302  -6.142  -4.825  0.00  0.00    +0.026 A 
ATOM      9  C   UNL     1       2.536  -4.763  -4.594  0.00  0.00    +0.044 A 
ATOM     10  N   UNL     1       1.746  -3.710  -4.717  0.00  0.00    -0.373 N 
ATOM     11  H   UNL     1       0.820  -3.731  -5.005  0.00  0.00    +0.161 HD
BRANCH   2  15
ATOM     12  C   UNL     1       0.636  -0.586  -1.011  0.00  0.00    +0.120 A 
ATOM     13  C   UNL     1       1.193   0.175  -2.029  0.00  0.00    +0.046 A 
ATOM     14  C   UNL     1       1.793  -0.447  -3.106  0.00  0.00    +0.009 A 
ATOM     15  C   UNL     1       1.839  -1.827  -3.171  0.00  0.00    -0.020 A 
ATOM     16  C   UNL     1       1.284  -2.588  -2.159  0.00  0.00    +0.009 A 
ATOM     17  C   UNL     1       0.689  -1.970  -1.076  0.00  0.00    +0.046 A 
BRANCH  12  19
ATOM     18  C   UNL     1       0.029   1.453   0.050  0.00  0.00    +0.277 C 
ATOM     19  O   UNL     1       0.046   0.025   0.050  0.00  0.00    -0.495 OA
ENDBRANCH  12  19
ENDBRANCH   2  15
ENDBRANCH   1   3
BRANCH   1  20
ATOM     20  C   UNL     1       6.446  -3.230  -3.044  0.00  0.00    +0.093 C 
BRANCH  20  21
ATOM     21  C   UNL     1       7.639  -2.498  -2.427  0.00  0.00    +0.115 C 
BRANCH  21  22
ATOM     22  N   UNL     1       8.681  -3.467  -2.079  0.00  0.00    -0.311 N 
ATOM     23  C   UNL     1       9.832  -3.047  -1.518  0.00  0.00    +0.244 C 
ATOM     24  O   UNL     1      10.006  -1.863  -1.300  0.00  0.00    -0.270 OA
ATOM     25  H   UNL     1       8.543  -4.411  -2.253  0.00  0.00    +0.149 HD
BRANCH  23  26
ATOM     26  C   UNL     1      10.882  -4.024  -1.168  0.00  0.00    +0.044 A 
ATOM     27  C   UNL     1      10.686  -5.383  -1.423  0.00  0.00    +0.062 A 
ATOM     28  C   UNL     1      11.671  -6.296  -1.094  0.00  0.00    +0.166 A 
ATOM     29  C   UNL     1      12.857  -5.861  -0.509  0.00  0.00    +0.204 A 
ATOM     30  C   UNL     1      13.055  -4.507  -0.254  0.00  0.00    +0.166 A 
ATOM     31  C   UNL     1      12.076  -3.589  -0.586  0.00  0.00    +0.062 A 
BRANCH  30  32
ATOM     32  O   UNL     1      14.215  -4.085   0.318  0.00  0.00    -0.491 OA
ATOM     33  C   UNL     1      14.350  -2.682   0.552  0.00  0.00    +0.277 C 
ENDBRANCH  30  32
BRANCH  29  34
ATOM     34  O   UNL     1      13.824  -6.760  -0.187  0.00  0.00    -0.488 OA
ATOM     35  C   UNL     1      14.803  -7.048  -1.188  0.00  0.00    +0.277 C 
ENDBRANCH  29  34
BRANCH  28  36
ATOM     36  O   UNL     1      11.481  -7.619  -1.342  0.00  0.00    -0.491 OA
ATOM     37  C   UNL     1      10.240  -7.995  -1.944  0.00  0.00    +0.277 C 
ENDBRANCH  28  36
ENDBRANCH  23  26
ENDBRANCH  21  22
ENDBRANCH  20  21
ENDBRANCH   1  20
TORSDOF 10
