REMARK  Name = ZINC08838279
REMARK  6 active torsions:
REMARK  status: ('A' for Active; 'I' for Inactive)
REMARK    1  A    between atoms: C_1  and  N_48
REMARK    2  A    between atoms: C_9  and  O_28
REMARK    3  A    between atoms: C_11  and  C_14
REMARK    4  A    between atoms: C_17  and  O_20
REMARK    5  A    between atoms: O_20  and  C_21
REMARK    6  A    between atoms: C_21  and  C_23
REMARK                            x       y       z     vdW  Elec       q    Type
REMARK                         _______ _______ _______ _____ _____    ______ ____
ROOT
ATOM      1  C   UNL     1      -3.956   8.476  -1.347  0.00  0.00    -0.096 C 
ATOM      2  C   UNL     1      -2.757   7.113   0.257  0.00  0.00    -0.074 C 
ATOM      3  C   UNL     1      -2.659   5.692   0.818  0.00  0.00    +0.018 C 
ATOM      4  C   UNL     1      -2.171   4.772  -0.296  0.00  0.00    -0.027 A 
ATOM      5  C   UNL     1      -2.251   5.174  -1.587  0.00  0.00    -0.021 A 
ATOM      6  S   UNL     1      -1.590   3.823  -2.525  0.00  0.00    -0.080 S 
ATOM      7  C   UNL     1      -1.225   2.759  -1.236  0.00  0.00    +0.080 A 
ATOM      8  C   UNL     1      -1.605   3.455  -0.081  0.00  0.00    +0.067 A 
ATOM      9  C   UNL     1      -1.403   2.769   1.222  0.00  0.00    +0.220 C 
ATOM     10  N   UNL     1      -0.702   1.670   1.229  0.00  0.00    -0.223 NA
ATOM     11  C   UNL     1      -0.021   1.112   0.067  0.00  0.00    +0.224 C 
ATOM     12  N   UNL     1      -0.691   1.494  -1.190  0.00  0.00    -0.313 N 
ATOM     13  C   UNL     1      -2.789   6.479  -2.081  0.00  0.00    -0.036 C 
ATOM     14  H   UNL     1      -0.751   0.886  -1.943  0.00  0.00    +0.149 HD
ATOM     15  N   UNL     1      -3.566   7.097  -0.979  0.00  0.00    +0.381 N 
ATOM     16  H   UNL     1      -4.415   6.542  -0.817  0.00  0.00    -0.082 HD
ENDROOT
BRANCH  11  17
ATOM     17  C   UNL     1       1.399   1.616   0.040  0.00  0.00    -0.005 A 
ATOM     18  C   UNL     1       2.061   1.751  -1.166  0.00  0.00    +0.011 A 
ATOM     19  C   UNL     1       3.361   2.218  -1.194  0.00  0.00    +0.047 A 
ATOM     20  C   UNL     1       4.006   2.540  -0.008  0.00  0.00    +0.132 A 
ATOM     21  C   UNL     1       3.341   2.398   1.201  0.00  0.00    +0.047 A 
ATOM     22  C   UNL     1       2.040   1.936   1.223  0.00  0.00    +0.011 A 
BRANCH  20  23
ATOM     23  O   UNL     1       5.287   2.994  -0.032  0.00  0.00    -0.422 OA
BRANCH  23  24
ATOM     24  C   UNL     1       6.253   2.189   0.458  0.00  0.00    +0.351 C 
ATOM     25  O   UNL     1       5.982   1.056   0.806  0.00  0.00    -0.244 OA
BRANCH  24  26
ATOM     26  C   UNL     1       7.627   2.681   0.570  0.00  0.00    +0.097 A 
ATOM     27  C   UNL     1       8.754   2.026   1.046  0.00  0.00    +0.022 A 
ATOM     28  C   UNL     1       9.934   2.726   1.036  0.00  0.00    +0.008 A 
ATOM     29  C   UNL     1       9.942   4.007   0.581  0.00  0.00    +0.046 A 
ATOM     30  S   UNL     1       8.288   4.280   0.137  0.00  0.00    -0.090 S 
ENDBRANCH  24  26
ENDBRANCH  23  24
ENDBRANCH  20  23
ENDBRANCH  11  17
BRANCH   9  31
ATOM     31  O   UNL     1      -1.930   3.270   2.363  0.00  0.00    -0.492 OA
ATOM     32  H   UNL     1      -1.736   2.742   3.150  0.00  0.00    +0.294 HD
ENDBRANCH   9  31
TORSDOF 5
