REMARK  Name = ZINC40172729
REMARK  12 active torsions:
REMARK  status: ('A' for Active; 'I' for Inactive)
REMARK    1  A    between atoms: C_1  and  C_2
REMARK    2  A    between atoms: C_2  and  C_3
REMARK    3  A    between atoms: C_3  and  C_5
REMARK    4  A    between atoms: C_3  and  N_18
REMARK    5  A    between atoms: N_7  and  C_8
REMARK    6  A    between atoms: C_9  and  C_15
REMARK    7  A    between atoms: C_10  and  C_14
REMARK    8  A    between atoms: C_11  and  C_13
REMARK    9  A    between atoms: C_22  and  S_23
REMARK   10  A    between atoms: S_23  and  C_24
REMARK   11  A    between atoms: C_24  and  C_25
REMARK   12  A    between atoms: C_25  and  C_26
REMARK                            x       y       z     vdW  Elec       q    Type
REMARK                         _______ _______ _______ _____ _____    ______ ____
ROOT
ATOM      1  C   UNL     1       0.718  -0.497  -1.257  0.00  0.00    +0.178 C 
ENDROOT
BRANCH   1   2
ATOM      2  N   UNL     1       2.125  -0.091  -1.209  0.00  0.00    -0.279 N 
ATOM      3  C   UNL     1       3.032  -0.447  -0.252  0.00  0.00    +0.216 A 
ATOM      4  N   UNL     1       4.179   0.110  -0.553  0.00  0.00    -0.113 NA
ATOM      5  N   UNL     1       4.008   0.843  -1.734  0.00  0.00    -0.121 NA
ATOM      6  C   UNL     1       2.762   0.706  -2.119  0.00  0.00    +0.194 A 
ATOM      7  N   UNL     1       2.781  -1.258   0.848  0.00  0.00    -0.328 N 
ATOM      8  H   UNL     1       1.895  -1.626   0.988  0.00  0.00    +0.145 HD
ATOM      9  H   UNL     1       3.493  -1.455   1.477  0.00  0.00    +0.145 HD
BRANCH   6  10
ATOM     10  S   UNL     1       2.035   1.426  -3.553  0.00  0.00    -0.086 S 
BRANCH  10  11
ATOM     11  C   UNL     1       3.396   2.352  -4.316  0.00  0.00    +0.082 C 
BRANCH  11  12
ATOM     12  C   UNL     1       2.896   3.036  -5.590  0.00  0.00    +0.046 C 
BRANCH  12  13
ATOM     13  C   UNL     1       4.026   3.806  -6.224  0.00  0.00    -0.047 A 
ATOM     14  C   UNL     1       4.247   5.124  -5.873  0.00  0.00    +0.003 A 
ATOM     15  C   UNL     1       5.284   5.830  -6.455  0.00  0.00    +0.000 A 
ATOM     16  C   UNL     1       6.100   5.217  -7.387  0.00  0.00    +0.000 A 
ATOM     17  C   UNL     1       5.879   3.898  -7.737  0.00  0.00    +0.000 A 
ATOM     18  C   UNL     1       4.845   3.191  -7.153  0.00  0.00    +0.003 A 
ENDBRANCH  12  13
ENDBRANCH  11  12
ENDBRANCH  10  11
ENDBRANCH   6  10
ENDBRANCH   1   2
BRANCH   1  19
ATOM     19  C   UNL     1       0.632  -2.000  -1.327  0.00  0.00    +0.241 C 
ATOM     20  O   UNL     1       1.645  -2.666  -1.337  0.00  0.00    -0.273 OA
ATOM     21  N   UNL     1      -0.572  -2.604  -1.380  0.00  0.00    -0.278 N 
ATOM     22  H   UNL     1      -1.383  -2.072  -1.372  0.00  0.00    +0.155 HD
BRANCH  21  23
ATOM     23  C   UNL     1      -0.652  -3.987  -1.445  0.00  0.00    +0.084 A 
ATOM     24  C   UNL     1      -1.793  -4.774  -1.510  0.00  0.00    +0.068 A 
ATOM     25  C   UNL     1      -1.590  -6.203  -1.570  0.00  0.00    -0.027 A 
ATOM     26  C   UNL     1      -0.308  -6.615  -1.556  0.00  0.00    -0.008 A 
ATOM     27  S   UNL     1       0.610  -5.093  -1.470  0.00  0.00    -0.078 S 
ATOM     28  C   UNL     1       0.221  -8.024  -1.607  0.00  0.00    +0.052 C 
ATOM     29  C   UNL     1      -2.741  -7.172  -1.643  0.00  0.00    +0.045 C 
BRANCH  24  30
ATOM     30  C   UNL     1      -3.135  -4.185  -1.517  0.00  0.00    +0.244 C 
ATOM     31  O   UNL     1      -3.666  -3.892  -2.573  0.00  0.00    -0.270 OA
ATOM     32  N   UNL     1      -3.782  -3.967  -0.355  0.00  0.00    -0.325 N 
ATOM     33  H   UNL     1      -3.359  -4.200   0.487  0.00  0.00    +0.145 HD
ATOM     34  H   UNL     1      -4.670  -3.577  -0.359  0.00  0.00    +0.145 HD
ENDBRANCH  24  30
ENDBRANCH  21  23
ENDBRANCH   1  19
BRANCH   1  36
ATOM     35  C   UNL     1      -0.019   1.526   0.010  0.00  0.00    +0.006 C 
ATOM     36  C   UNL     1       0.002  -0.004   0.002  0.00  0.00    +0.031 C 
ENDBRANCH   1  36
TORSDOF 9
