REMARK  Name = ZINC35926722
REMARK  11 active torsions:
REMARK  status: ('A' for Active; 'I' for Inactive)
REMARK    1  A    between atoms: C_1  and  C_2
REMARK    2  A    between atoms: C_2  and  O_3
REMARK    3  A    between atoms: O_3  and  C_4
REMARK    4  A    between atoms: C_4  and  C_6
REMARK    5  A    between atoms: C_6  and  C_7
REMARK    6  A    between atoms: C_7  and  C_8
REMARK    7  A    between atoms: C_22  and  C_24
REMARK    8  A    between atoms: C_24  and  N_25
REMARK    9  A    between atoms: N_28  and  C_31
REMARK   10  A    between atoms: C_33  and  C_38
REMARK   11  A    between atoms: C_36  and  C_37
REMARK                            x       y       z     vdW  Elec       q    Type
REMARK                         _______ _______ _______ _____ _____    ______ ____
ROOT
ATOM      1  C   UNL     1      -4.162  -4.559   2.406  0.00  0.00    +0.216 C 
ATOM      2  O   UNL     1      -3.048  -4.080   2.406  0.00  0.00    -0.276 OA
ATOM      3  N   UNL     1      -4.321  -5.897   2.401  0.00  0.00    -0.298 N 
ATOM      4  C   UNL     1      -5.665  -6.491   2.395  0.00  0.00    +0.126 C 
ATOM      5  C   UNL     1      -5.775  -7.442   1.197  0.00  0.00    +0.127 C 
ATOM      6  N   UNL     1      -4.606  -8.334   1.196  0.00  0.00    -0.298 N 
ATOM      7  C   UNL     1      -3.262  -7.740   1.202  0.00  0.00    +0.127 C 
ATOM      8  C   UNL     1      -3.152  -6.788   2.395  0.00  0.00    +0.126 C 
ATOM      9  C   UNL     1      -4.767  -9.693   1.190  0.00  0.00    +0.198 A 
ATOM     10  N   UNL     1      -6.018 -10.219   1.292  0.00  0.00    -0.295 N 
ATOM     11  H   UNL     1      -6.787  -9.633   1.367  0.00  0.00    +0.172 HD
ATOM     12  C   UNL     1      -6.185 -11.559   1.286  0.00  0.00    +0.253 A 
ATOM     13  O   UNL     1      -7.299 -12.047   1.376  0.00  0.00    -0.268 OA
ATOM     14  C   UNL     1      -5.049 -12.380   1.175  0.00  0.00    +0.091 A 
ATOM     15  C   UNL     1      -3.820 -11.797   1.076  0.00  0.00    +0.034 A 
ATOM     16  N   UNL     1      -3.708 -10.470   1.081  0.00  0.00    -0.223 NA
ENDROOT
BRANCH   1  17
ATOM     17  C   UNL     1      -5.370  -3.657   2.413  0.00  0.00    +0.107 C 
BRANCH  17  18
ATOM     18  C   UNL     1      -4.915  -2.196   2.418  0.00  0.00    +0.130 C 
BRANCH  18  19
ATOM     19  C   UNL     1      -6.123  -1.294   2.425  0.00  0.00    +0.308 C 
ATOM     20  O   UNL     1      -7.233  -1.771   2.425  0.00  0.00    -0.251 OA
BRANCH  19  21
ATOM     21  O   UNL     1      -5.965   0.039   2.430  0.00  0.00    -0.465 OA
BRANCH  21  23
ATOM     22  C   UNL     1      -6.776   2.315   2.442  0.00  0.00    +0.048 C 
ATOM     23  C   UNL     1      -7.153   0.833   2.436  0.00  0.00    +0.229 C 
ENDBRANCH  21  23
ENDBRANCH  19  21
ENDBRANCH  18  19
ENDBRANCH  17  18
ENDBRANCH   1  17
BRANCH  15  24
ATOM     24  C   UNL     1      -2.587 -12.655   0.956  0.00  0.00    -0.022 C 
BRANCH  24  25
ATOM     25  N   UNL     1      -1.963 -12.434  -0.356  0.00  0.00    +0.385 N 
ATOM     26  C   UNL     1      -1.492 -11.046  -0.445  0.00  0.00    -0.059 C 
ATOM     27  C   UNL     1      -0.945 -10.782  -1.851  0.00  0.00    +0.086 C 
ATOM     28  N   UNL     1       0.083 -11.792  -2.149  0.00  0.00    -0.333 N 
ATOM     29  C   UNL     1      -0.253 -13.207  -1.930  0.00  0.00    +0.086 C 
ATOM     30  C   UNL     1      -0.833 -13.357  -0.520  0.00  0.00    -0.059 C 
ATOM     31  H   UNL     1      -2.642 -12.604  -1.083  0.00  0.00    -0.081 HD
BRANCH  28  32
ATOM     32  C   UNL     1       1.341 -11.417  -2.626  0.00  0.00    +0.033 A 
ATOM     33  C   UNL     1       2.374 -11.157  -1.735  0.00  0.00    +0.026 A 
ATOM     34  C   UNL     1       3.617 -10.787  -2.210  0.00  0.00    -0.049 A 
ATOM     35  C   UNL     1       3.833 -10.675  -3.572  0.00  0.00    +0.004 A 
ATOM     36  C   UNL     1       2.806 -10.933  -4.461  0.00  0.00    +0.005 A 
ATOM     37  C   UNL     1       1.563 -11.310  -3.993  0.00  0.00    -0.029 A 
ATOM     38  C   UNL     1       0.446 -11.597  -4.964  0.00  0.00    +0.045 C 
ATOM     39  C   UNL     1       4.738 -10.504  -1.244  0.00  0.00    +0.044 C 
ENDBRANCH  28  32
ENDBRANCH  24  25
ENDBRANCH  15  24
TORSDOF 8
