REMARK  Name = ZINC31768157
REMARK  7 active torsions:
REMARK  status: ('A' for Active; 'I' for Inactive)
REMARK    1  A    between atoms: C_1  and  C_2
REMARK    2  A    between atoms: C_2  and  C_30
REMARK    3  A    between atoms: N_5  and  C_9
REMARK    4  A    between atoms: C_9  and  C_10
REMARK    5  A    between atoms: N_12  and  C_13
REMARK    6  A    between atoms: C_15  and  C_24
REMARK    7  A    between atoms: N_17  and  C_18
REMARK                            x       y       z     vdW  Elec       q    Type
REMARK                         _______ _______ _______ _____ _____    ______ ____
ROOT
ATOM      1  C   UNL     1       3.236   5.194  -1.982  0.00  0.00    +0.236 C 
ATOM      2  O   UNL     1       4.364   5.619  -1.843  0.00  0.00    -0.274 OA
ATOM      3  N   UNL     1       2.880   4.028  -1.407  0.00  0.00    -0.269 N 
ATOM      4  H   UNL     1       1.858   3.642  -1.533  0.00  0.00    +0.156 HD
ENDROOT
BRANCH   3   5
ATOM      5  C   UNL     1       3.808   3.310  -0.654  0.00  0.00    +0.129 A 
ATOM      6  C   UNL     1       5.097   3.669  -0.415  0.00  0.00    +0.074 A 
ATOM      7  C   UNL     1       5.683   2.667   0.381  0.00  0.00    +0.095 A 
ATOM      8  N   UNL     1       4.773   1.743   0.615  0.00  0.00    -0.165 NA
ATOM      9  N   UNL     1       3.585   2.124  -0.021  0.00  0.00    -0.218 N 
BRANCH   9  10
ATOM     10  C   UNL     1       2.381   1.409  -0.014  0.00  0.00    +0.067 A 
ATOM     11  C   UNL     1       1.169   2.087   0.002  0.00  0.00    +0.028 A 
ATOM     12  C   UNL     1      -0.017   1.379   0.010  0.00  0.00    +0.002 A 
ATOM     13  C   UNL     1       0.002  -0.004   0.002  0.00  0.00    +0.000 A 
ATOM     14  C   UNL     1       1.207  -0.682  -0.013  0.00  0.00    +0.002 A 
ATOM     15  C   UNL     1       2.396   0.020  -0.021  0.00  0.00    +0.028 A 
ENDBRANCH   9  10
BRANCH   7  16
ATOM     16  C   UNL     1       7.083   2.653   0.872  0.00  0.00    +0.002 A 
ATOM     17  C   UNL     1       7.949   3.695   0.546  0.00  0.00    +0.010 A 
ATOM     18  C   UNL     1       9.248   3.680   1.010  0.00  0.00    +0.001 A 
ATOM     19  C   UNL     1       9.695   2.627   1.788  0.00  0.00    +0.000 A 
ATOM     20  C   UNL     1       8.842   1.587   2.110  0.00  0.00    +0.001 A 
ATOM     21  C   UNL     1       7.539   1.595   1.656  0.00  0.00    +0.010 A 
ENDBRANCH   7  16
ENDBRANCH   3   5
BRANCH   1  22
ATOM     22  C   UNL     1       2.233   5.970  -2.796  0.00  0.00    +0.214 C 
BRANCH  22  27
ATOM     23  C   UNL     1       3.350   9.394  -5.811  0.00  0.00    +0.050 C 
ATOM     24  C   UNL     1       3.980   8.707  -4.598  0.00  0.00    +0.168 C 
ATOM     25  C   UNL     1       3.504   7.273  -4.490  0.00  0.00    +0.254 C 
ATOM     26  O   UNL     1       3.668   6.384  -5.298  0.00  0.00    -0.272 OA
ATOM     27  N   UNL     1       2.860   7.191  -3.309  0.00  0.00    -0.215 N 
ATOM     28  C   UNL     1       2.859   8.363  -2.665  0.00  0.00    +0.310 C 
ATOM     29  O   UNL     1       2.337   8.539  -1.582  0.00  0.00    -0.252 OA
ATOM     30  N   UNL     1       3.505   9.325  -3.348  0.00  0.00    -0.279 N 
ATOM     31  H   UNL     1       3.713  10.386  -3.145  0.00  0.00    +0.152 HD
BRANCH  24  32
ATOM     32  C   UNL     1       5.484   8.762  -4.682  0.00  0.00    +0.137 A 
ATOM     33  C   UNL     1       6.261   9.765  -4.234  0.00  0.00    +0.047 A 
ATOM     34  C   UNL     1       7.598   9.403  -4.516  0.00  0.00    +0.041 A 
ATOM     35  C   UNL     1       7.559   8.201  -5.119  0.00  0.00    +0.195 A 
ATOM     36  O   UNL     1       6.276   7.815  -5.212  0.00  0.00    -0.465 OA
ENDBRANCH  24  32
ENDBRANCH  22  27
ENDBRANCH   1  22
TORSDOF 6
