REMARK  Name = ZINC31823644
REMARK  8 active torsions:
REMARK  status: ('A' for Active; 'I' for Inactive)
REMARK    1  A    between atoms: C_1  and  C_2
REMARK    2  A    between atoms: C_3  and  C_29
REMARK    3  A    between atoms: C_7  and  N_28
REMARK    4  A    between atoms: C_9  and  S_11
REMARK    5  A    between atoms: S_11  and  C_12
REMARK    6  A    between atoms: C_12  and  C_13
REMARK    7  A    between atoms: N_15  and  C_16
REMARK    8  A    between atoms: C_19  and  N_22
REMARK                            x       y       z     vdW  Elec       q    Type
REMARK                         _______ _______ _______ _____ _____    ______ ____
ROOT
ATOM      1  C   UNL     1       1.329  -2.860   5.570  0.00  0.00    +0.173 C 
ENDROOT
BRANCH   1   2
ATOM      2  C   UNL     1       1.968  -3.816   6.544  0.00  0.00    +0.227 C 
ATOM      3  O   UNL     1       1.792  -5.010   6.426  0.00  0.00    -0.275 OA
ATOM      4  N   UNL     1       2.736  -3.344   7.546  0.00  0.00    -0.285 N 
ATOM      5  H   UNL     1       2.875  -2.389   7.642  0.00  0.00    +0.155 HD
BRANCH   4   6
ATOM      6  C   UNL     1       3.333  -4.233   8.450  0.00  0.00    +0.034 A 
ATOM      7  C   UNL     1       3.377  -3.923   9.803  0.00  0.00    +0.025 A 
ATOM      8  C   UNL     1       3.965  -4.800  10.693  0.00  0.00    +0.025 A 
ATOM      9  C   UNL     1       4.513  -5.991  10.235  0.00  0.00    +0.030 A 
ATOM     10  C   UNL     1       4.469  -6.301   8.882  0.00  0.00    +0.025 A 
ATOM     11  C   UNL     1       3.877  -5.426   7.993  0.00  0.00    +0.025 A 
BRANCH   9  12
ATOM     12  N   UNL     1       5.109  -6.878  11.137  0.00  0.00    -0.330 N 
ATOM     13  C   UNL     1       5.841  -8.057  10.654  0.00  0.00    +0.105 C 
ATOM     14  C   UNL     1       7.244  -8.053  11.270  0.00  0.00    +0.019 C 
ATOM     15  C   UNL     1       7.128  -7.965  12.793  0.00  0.00    +0.003 C 
ATOM     16  C   UNL     1       6.427  -6.661  13.179  0.00  0.00    +0.019 C 
ATOM     17  C   UNL     1       5.020  -6.646  12.585  0.00  0.00    +0.105 C 
ENDBRANCH   9  12
ENDBRANCH   4   6
ENDBRANCH   1   2
BRANCH   1  18
ATOM     18  S   UNL     1       0.366  -3.794   4.349  0.00  0.00    -0.077 S 
BRANCH  18  27
ATOM     19  C   UNL     1      -1.805   1.753   0.805  0.00  0.00    +0.045 C 
ATOM     20  C   UNL     1      -1.986   0.260   0.713  0.00  0.00    -0.028 A 
ATOM     21  C   UNL     1      -2.734  -0.273  -0.264  0.00  0.00    -0.008 A 
ATOM     22  S   UNL     1      -2.640  -2.026   0.049  0.00  0.00    -0.073 S 
ATOM     23  C   UNL     1      -1.599  -1.995   1.484  0.00  0.00    +0.115 A 
ATOM     24  C   UNL     1      -1.347  -0.620   1.677  0.00  0.00    +0.050 A 
ATOM     25  C   UNL     1      -0.513  -0.300   2.785  0.00  0.00    +0.129 A 
ATOM     26  N   UNL     1      -0.036  -1.275   3.539  0.00  0.00    -0.207 NA
ATOM     27  C   UNL     1      -0.309  -2.552   3.298  0.00  0.00    +0.191 A 
ATOM     28  N   UNL     1      -1.088  -2.909   2.285  0.00  0.00    -0.214 NA
ATOM     29  C   UNL     1      -3.477   0.440  -1.364  0.00  0.00    +0.052 C 
BRANCH  25  30
ATOM     30  N   UNL     1      -0.205   1.018   3.069  0.00  0.00    -0.343 N 
ATOM     31  H   UNL     1      -0.375   1.709   2.410  0.00  0.00    +0.144 HD
ATOM     32  H   UNL     1       0.180   1.252   3.928  0.00  0.00    +0.144 HD
ENDBRANCH  25  30
ENDBRANCH  18  27
ENDBRANCH   1  18
TORSDOF 6
