REMARK  Name = ZINC67063678
REMARK  6 active torsions:
REMARK  status: ('A' for Active; 'I' for Inactive)
REMARK    1  A    between atoms: C_1  and  C_2
REMARK    2  A    between atoms: C_3  and  C_8
REMARK    3  A    between atoms: N_6  and  C_7
REMARK    4  A    between atoms: C_8  and  C_10
REMARK    5  A    between atoms: C_8  and  N_11
REMARK    6  A    between atoms: C_18  and  C_22
REMARK                            x       y       z     vdW  Elec       q    Type
REMARK                         _______ _______ _______ _____ _____    ______ ____
ROOT
ATOM      1  N   UNL     1      -1.209   0.244  -4.940  0.00  0.00    -0.293 N 
ATOM      2  C   UNL     1      -1.156  -1.045  -4.552  0.00  0.00    +0.303 C 
ATOM      3  O   UNL     1      -0.553  -1.351  -3.541  0.00  0.00    -0.253 OA
ATOM      4  N   UNL     1      -1.771  -1.995  -5.284  0.00  0.00    -0.286 N 
ATOM      5  C   UNL     1      -1.798  -3.378  -4.769  0.00  0.00    +0.109 C 
ATOM      6  C   UNL     1      -3.171  -4.045  -4.971  0.00  0.00    +0.020 C 
ATOM      7  C   UNL     1      -4.274  -3.059  -4.678  0.00  0.00    +0.010 C 
ATOM      8  C   UNL     1      -4.674  -2.350  -5.969  0.00  0.00    +0.021 C 
ATOM      9  C   UNL     1      -3.843  -1.183  -6.301  0.00  0.00    +0.027 C 
ATOM     10  C   UNL     1      -2.381  -1.616  -6.538  0.00  0.00    +0.110 C 
ATOM     11  H   UNL     1      -1.628   0.480  -5.782  0.00  0.00    +0.151 HD
ENDROOT
BRANCH   8  12
ATOM     12  C   UNL     1      -6.105  -1.894  -5.841  0.00  0.00    -0.044 A 
ATOM     13  C   UNL     1      -6.462  -1.011  -4.839  0.00  0.00    +0.004 A 
ATOM     14  C   UNL     1      -7.775  -0.593  -4.722  0.00  0.00    +0.000 A 
ATOM     15  C   UNL     1      -8.730  -1.058  -5.607  0.00  0.00    +0.000 A 
ATOM     16  C   UNL     1      -8.372  -1.940  -6.609  0.00  0.00    +0.000 A 
ATOM     17  C   UNL     1      -7.059  -2.355  -6.729  0.00  0.00    +0.004 A 
ENDBRANCH   8  12
BRANCH   1  18
ATOM     18  C   UNL     1      -0.636   1.290  -4.088  0.00  0.00    +0.105 C 
ATOM     19  C   UNL     1      -1.665   1.715  -3.040  0.00  0.00    +0.033 C 
BRANCH  18  22
ATOM     20  C   UNL     1       1.546   3.425  -3.405  0.00  0.00    +0.065 C 
ATOM     21  C   UNL     1       0.683   3.401  -4.640  0.00  0.00    +0.041 A 
ATOM     22  C   UNL     1      -0.261   2.478  -4.936  0.00  0.00    +0.013 A 
ATOM     23  C   UNL     1      -0.828   2.822  -6.168  0.00  0.00    +0.140 A 
ATOM     24  N   UNL     1      -0.245   3.912  -6.596  0.00  0.00    -0.179 NA
ATOM     25  N   UNL     1       0.709   4.300  -5.646  0.00  0.00    -0.271 N 
ATOM     26  C   UNL     1       1.583   5.473  -5.732  0.00  0.00    +0.172 C 
ENDBRANCH  18  22
ENDBRANCH   1  18
TORSDOF 3
