REMARK  Name = ZINC06752912
REMARK  6 active torsions:
REMARK  status: ('A' for Active; 'I' for Inactive)
REMARK    1  A    between atoms: C_1  and  C_2
REMARK    2  A    between atoms: C_2  and  C_3
REMARK    3  A    between atoms: C_3  and  N_4
REMARK    4  A    between atoms: C_5  and  C_22
REMARK    5  A    between atoms: C_8  and  C_15
REMARK    6  A    between atoms: C_20  and  O_21
REMARK                            x       y       z     vdW  Elec       q    Type
REMARK                         _______ _______ _______ _____ _____    ______ ____
ROOT
ATOM      1  N   UNL     1      -1.413  -1.998   0.005  0.00  0.00    -0.285 N 
ATOM      2  C   UNL     1      -1.407  -2.844  -1.194  0.00  0.00    +0.141 C 
ATOM      3  C   UNL     1      -1.386  -4.268  -0.708  0.00  0.00    +0.035 A 
ATOM      4  C   UNL     1      -1.369  -5.588  -1.025  0.00  0.00    +0.075 A 
ATOM      5  N   UNL     1      -1.354  -6.274   0.156  0.00  0.00    -0.276 N 
ATOM      6  H   UNL     1      -1.339  -7.240   0.239  0.00  0.00    +0.189 HD
ATOM      7  N   UNL     1      -1.361  -5.449   1.142  0.00  0.00    -0.168 NA
ATOM      8  C   UNL     1      -1.380  -4.206   0.704  0.00  0.00    +0.153 A 
ATOM      9  C   UNL     1      -1.392  -2.785   1.095  0.00  0.00    +0.268 C 
ATOM     10  O   UNL     1      -1.385  -2.381   2.241  0.00  0.00    -0.268 OA
ENDROOT
BRANCH   2  11
ATOM     11  C   UNL     1      -0.180  -2.560  -2.022  0.00  0.00    -0.022 A 
ATOM     12  C   UNL     1       1.038  -2.353  -1.402  0.00  0.00    +0.007 A 
ATOM     13  C   UNL     1       2.164  -2.092  -2.161  0.00  0.00    +0.020 A 
ATOM     14  C   UNL     1       2.071  -2.039  -3.540  0.00  0.00    +0.041 A 
ATOM     15  C   UNL     1       0.852  -2.246  -4.160  0.00  0.00    +0.020 A 
ATOM     16  C   UNL     1      -0.272  -2.513  -3.400  0.00  0.00    +0.007 A 
ATOM     17 CL   UNL     1       3.485  -1.711  -4.493  0.00  0.00    -0.084 Cl
ENDBRANCH   2  11
BRANCH   4  18
ATOM     18  C   UNL     1      -1.368  -6.171  -2.385  0.00  0.00    +0.042 A 
ATOM     19  C   UNL     1      -2.454  -6.926  -2.825  0.00  0.00    +0.013 A 
ATOM     20  C   UNL     1      -2.448  -7.466  -4.094  0.00  0.00    +0.001 A 
ATOM     21  C   UNL     1      -1.367  -7.263  -4.934  0.00  0.00    +0.004 A 
ATOM     22  C   UNL     1      -0.284  -6.516  -4.508  0.00  0.00    +0.046 A 
ATOM     23  C   UNL     1      -0.278  -5.963  -3.238  0.00  0.00    +0.126 A 
BRANCH  23  24
ATOM     24  O   UNL     1       0.783  -5.224  -2.821  0.00  0.00    -0.506 OA
ATOM     25  H   UNL     1       1.475  -5.741  -2.387  0.00  0.00    +0.292 HD
ENDBRANCH  23  24
ENDBRANCH   4  18
BRANCH   1  26
ATOM     26  C   UNL     1      -1.433  -0.534   0.013  0.00  0.00    +0.109 C 
BRANCH  26  28
ATOM     27  C   UNL     1      -0.019   1.526   0.010  0.00  0.00    +0.005 C 
ATOM     28  C   UNL     1       0.002  -0.004   0.002  0.00  0.00    +0.016 C 
ENDBRANCH  26  28
ENDBRANCH   1  26
TORSDOF 5
