REMARK  Name = ZINC39945434
REMARK  8 active torsions:
REMARK  status: ('A' for Active; 'I' for Inactive)
REMARK    1  A    between atoms: C_4  and  C_7
REMARK    2  A    between atoms: C_7  and  N_8
REMARK    3  A    between atoms: N_10  and  C_28
REMARK    4  A    between atoms: C_12  and  S_15
REMARK    5  A    between atoms: S_15  and  C_16
REMARK    6  A    between atoms: C_16  and  C_17
REMARK    7  A    between atoms: C_17  and  C_19
REMARK    8  A    between atoms: C_28  and  C_29
REMARK                            x       y       z     vdW  Elec       q    Type
REMARK                         _______ _______ _______ _____ _____    ______ ____
ROOT
ATOM      1  N   UNL     1       4.283  -0.742   1.374  0.00  0.00    -0.363 N 
ATOM      2  C   UNL     1       5.283  -1.552   1.583  0.00  0.00    +0.147 C 
ATOM      3  N   UNL     1       6.109  -2.168   0.661  0.00  0.00    -0.241 N 
ATOM      4  N   UNL     1       6.890  -3.206   1.015  0.00  0.00    -0.215 NA
ATOM      5  C   UNL     1       6.819  -3.617   2.441  0.00  0.00    +0.195 C 
ATOM      6  S   UNL     1       5.944  -2.147   3.138  0.00  0.00    -0.060 S 
ATOM      7  H   UNL     1       6.743  -3.995   0.403  0.00  0.00    +0.147 HD
ATOM      8  H   UNL     1       3.866  -0.283   2.120  0.00  0.00    +0.162 HD
ENDROOT
BRANCH   1   9
ATOM      9  C   UNL     1       3.788  -0.524   0.012  0.00  0.00    +0.150 C 
BRANCH   9  13
ATOM     10  C   UNL     1       0.199   1.788   0.150  0.00  0.00    +0.000 A 
ATOM     11  C   UNL     1       1.425   2.420   0.055  0.00  0.00    +0.000 A 
ATOM     12  C   UNL     1       2.587   1.672   0.011  0.00  0.00    +0.005 A 
ATOM     13  C   UNL     1       2.522   0.292   0.061  0.00  0.00    -0.028 A 
ATOM     14  C   UNL     1       1.296  -0.340   0.157  0.00  0.00    +0.005 A 
ATOM     15  C   UNL     1       0.135   0.408   0.200  0.00  0.00    +0.000 A 
ENDBRANCH   9  13
ENDBRANCH   1   9
BRANCH   5  16
ATOM     16  S   UNL     1       8.475  -3.799   3.161  0.00  0.00    -0.122 S 
BRANCH  16  17
ATOM     17  C   UNL     1       9.213  -2.151   2.985  0.00  0.00    +0.150 C 
BRANCH  17  18
ATOM     18  C   UNL     1      10.609  -2.163   3.552  0.00  0.00    +0.171 C 
ATOM     19  O   UNL     1      11.062  -3.184   4.027  0.00  0.00    -0.291 OA
BRANCH  18  20
ATOM     20  C   UNL     1      11.389  -0.988   3.529  0.00  0.00    +0.024 C 
ATOM     21  C   UNL     1      12.681  -0.832   3.999  0.00  0.00    +0.006 A 
ATOM     22  C   UNL     1      13.595  -1.720   4.615  0.00  0.00    +0.010 A 
ATOM     23  C   UNL     1      14.822  -1.289   4.981  0.00  0.00    +0.001 A 
ATOM     24  C   UNL     1      15.249   0.033   4.776  0.00  0.00    +0.002 A 
ATOM     25  C   UNL     1      14.454   0.959   4.197  0.00  0.00    +0.026 A 
ATOM     26  C   UNL     1      13.101   0.572   3.768  0.00  0.00    +0.043 A 
ATOM     27  N   UNL     1      12.144   1.246   3.196  0.00  0.00    -0.380 N 
ATOM     28  C   UNL     1      10.992   0.365   2.980  0.00  0.00    +0.152 C 
ATOM     29  H   UNL     1      12.188   2.182   2.948  0.00  0.00    +0.160 HD
ENDBRANCH  18  20
ENDBRANCH  17  18
ENDBRANCH  16  17
ENDBRANCH   5  16
BRANCH   3  30
ATOM     30  C   UNL     1       6.134  -1.685  -0.722  0.00  0.00    +0.161 C 
BRANCH  30  31
ATOM     31  C   UNL     1       7.170  -0.599  -0.855  0.00  0.00    -0.029 A 
ATOM     32  C   UNL     1       6.802   0.727  -0.721  0.00  0.00    +0.005 A 
ATOM     33  C   UNL     1       7.752   1.723  -0.844  0.00  0.00    +0.000 A 
ATOM     34  C   UNL     1       9.070   1.394  -1.100  0.00  0.00    +0.000 A 
ATOM     35  C   UNL     1       9.438   0.068  -1.234  0.00  0.00    +0.000 A 
ATOM     36  C   UNL     1       8.488  -0.928  -1.107  0.00  0.00    +0.005 A 
ENDBRANCH  30  31
ENDBRANCH   3  30
TORSDOF 8
