REMARK  Name = ZINC22928453
REMARK  11 active torsions:
REMARK  status: ('A' for Active; 'I' for Inactive)
REMARK    1  A    between atoms: C_1  and  C_2
REMARK    2  A    between atoms: C_2  and  C_3
REMARK    3  A    between atoms: C_3  and  C_5
REMARK    4  A    between atoms: C_3  and  N_15
REMARK    5  A    between atoms: N_9  and  C_10
REMARK    6  A    between atoms: N_15  and  C_16
REMARK    7  A    between atoms: N_15  and  C_24
REMARK    8  A    between atoms: C_16  and  C_17
REMARK    9  A    between atoms: C_17  and  N_18
REMARK   10  A    between atoms: C_24  and  C_25
REMARK   11  A    between atoms: C_29  and  C_37
REMARK                            x       y       z     vdW  Elec       q    Type
REMARK                         _______ _______ _______ _____ _____    ______ ____
ROOT
ATOM      1  N   UNL     1      -2.209   0.157  -1.076  0.00  0.00    +0.390 N 
ATOM      2  H   UNL     1      -1.767   0.037  -1.975  0.00  0.00    -0.080 HD
ENDROOT
BRANCH   1   3
ATOM      3  C   UNL     1      -1.381  -0.467  -0.036  0.00  0.00    +0.003 C 
BRANCH   3   4
ATOM      4  C   UNL     1      -2.047  -0.296   1.306  0.00  0.00    +0.138 A 
ATOM      5  N   UNL     1      -3.289  -0.590   1.606  0.00  0.00    -0.115 NA
ATOM      6  N   UNL     1      -3.476  -0.301   2.848  0.00  0.00    -0.023 NA
ATOM      7  N   UNL     1      -2.387   0.169   3.347  0.00  0.00    -0.044 NA
ATOM      8  N   UNL     1      -1.480   0.183   2.429  0.00  0.00    -0.228 N 
BRANCH   8   9
ATOM      9  C   UNL     1      -0.096   0.637   2.579  0.00  0.00    +0.111 C 
ATOM     10  C   UNL     1       0.603  -0.160   3.700  0.00  0.00    +0.027 C 
ATOM     11  C   UNL     1       1.513   0.883   4.396  0.00  0.00    +0.002 C 
ATOM     12  C   UNL     1       0.643   2.164   4.376  0.00  0.00    +0.002 C 
ATOM     13  C   UNL     1      -0.070   2.115   3.009  0.00  0.00    +0.027 C 
ENDBRANCH   8   9
ENDBRANCH   3   4
BRANCH   3  15
ATOM     14  C   UNL     1      -0.463  -2.132  -1.657  0.00  0.00    +0.002 C 
ATOM     15  C   UNL     1      -1.220  -1.958  -0.338  0.00  0.00    -0.011 C 
ENDBRANCH   3  15
ENDBRANCH   1   3
BRANCH   1  16
ATOM     16  C   UNL     1      -2.357   1.590  -0.791  0.00  0.00    -0.062 C 
BRANCH  16  17
ATOM     17  C   UNL     1      -0.990   2.272  -0.881  0.00  0.00    +0.066 C 
BRANCH  17  18
ATOM     18  N   UNL     1      -1.117   3.680  -0.484  0.00  0.00    -0.300 NA
ATOM     19  C   UNL     1      -1.937   4.427  -1.449  0.00  0.00    +0.112 C 
ATOM     20  C   UNL     1      -2.094   5.872  -0.967  0.00  0.00    +0.175 C 
ATOM     21  O   UNL     1      -0.799   6.454  -0.791  0.00  0.00    -0.377 OA
ATOM     22  C   UNL     1       0.026   5.752   0.142  0.00  0.00    +0.175 C 
ATOM     23  C   UNL     1       0.204   4.306  -0.329  0.00  0.00    +0.112 C 
ENDBRANCH  17  18
ENDBRANCH  16  17
ENDBRANCH   1  16
BRANCH   1  24
ATOM     24  C   UNL     1      -3.534  -0.478  -1.094  0.00  0.00    -0.036 C 
BRANCH  24  25
ATOM     25  C   UNL     1      -4.326   0.046  -2.264  0.00  0.00    +0.001 A 
ATOM     26  C   UNL     1      -4.343  -0.644  -3.432  0.00  0.00    +0.017 A 
ATOM     27  C   UNL     1      -5.122  -0.109  -4.549  0.00  0.00    -0.001 A 
ATOM     28  C   UNL     1      -5.178  -0.775  -5.778  0.00  0.00    +0.013 A 
ATOM     29  C   UNL     1      -5.915  -0.250  -6.801  0.00  0.00    -0.050 A 
ATOM     30  C   UNL     1      -6.609   0.941  -6.632  0.00  0.00    +0.005 A 
ATOM     31  C   UNL     1      -6.568   1.615  -5.431  0.00  0.00    +0.026 A 
ATOM     32  C   UNL     1      -5.825   1.099  -4.375  0.00  0.00    +0.049 A 
ATOM     33  N   UNL     1      -5.767   1.752  -3.162  0.00  0.00    -0.322 N 
ATOM     34  H   UNL     1      -6.252   2.583  -3.043  0.00  0.00    +0.169 HD
ATOM     35  C   UNL     1      -5.053   1.250  -2.140  0.00  0.00    +0.251 A 
ATOM     36  O   UNL     1      -5.028   1.851  -1.080  0.00  0.00    -0.268 OA
ATOM     37  C   UNL     1      -5.975  -0.969  -8.124  0.00  0.00    +0.044 C 
ENDBRANCH  24  25
ENDBRANCH   1  24
TORSDOF 9
