REMARK  Name = ZINC06825639
REMARK  3 active torsions:
REMARK  status: ('A' for Active; 'I' for Inactive)
REMARK    1  A    between atoms: C_1  and  C_2
REMARK    2  A    between atoms: C_4  and  C_18
REMARK    3  A    between atoms: N_16  and  N_17
REMARK                            x       y       z     vdW  Elec       q    Type
REMARK                         _______ _______ _______ _____ _____    ______ ____
ROOT
ATOM      1  C   UNL     1      -0.013   1.086   0.008  0.00  0.00    +0.044 C 
ATOM      2  C   UNL     1      -0.718   1.572   1.248  0.00  0.00    -0.049 A 
ATOM      3  C   UNL     1      -2.087   1.789   1.223  0.00  0.00    +0.008 A 
ATOM      4  C   UNL     1      -2.747   2.228   2.351  0.00  0.00    -0.026 A 
ATOM      5  C   UNL     1      -2.039   2.468   3.524  0.00  0.00    +0.053 A 
ATOM      6  C   UNL     1      -0.653   2.253   3.546  0.00  0.00    +0.030 A 
ATOM      7  C   UNL     1       0.001   1.804   2.401  0.00  0.00    +0.015 A 
ATOM      8  C   UNL     1      -0.201   2.591   4.907  0.00  0.00    +0.138 A 
ATOM      9  C   UNL     1      -1.352   2.989   5.618  0.00  0.00    +0.163 A 
ATOM     10  N   UNL     1      -2.433   2.909   4.777  0.00  0.00    -0.337 N 
ATOM     11  H   UNL     1      -3.492   3.136   4.972  0.00  0.00    +0.167 HD
ATOM     12  N   UNL     1      -1.214   3.350   6.891  0.00  0.00    -0.193 NA
ATOM     13  C   UNL     1      -0.009   3.325   7.445  0.00  0.00    +0.250 A 
ATOM     14  N   UNL     1       1.060   2.946   6.753  0.00  0.00    -0.111 NA
ATOM     15  N   UNL     1       0.974   2.587   5.518  0.00  0.00    -0.142 NA
ATOM     16  N   UNL     1       0.137   3.701   8.769  0.00  0.00    -0.250 N 
ATOM     17  C   UNL     1      -4.237   2.454   2.311  0.00  0.00    +0.046 C 
ATOM     18  H   UNL     1      -0.742   4.017   9.351  0.00  0.00    +0.169 HD
ENDROOT
BRANCH  16  19
ATOM     19  N   UNL     1       1.371   3.680   9.353  0.00  0.00    -0.254 NA
ATOM     20  H   UNL     1       1.288   4.009  10.399  0.00  0.00    +0.140 HD
ATOM     21  H   UNL     1       1.775   2.657   9.321  0.00  0.00    +0.140 HD
ENDBRANCH  16  19
TORSDOF 1
