REMARK  Name = ZINC15680480
REMARK  6 active torsions:
REMARK  status: ('A' for Active; 'I' for Inactive)
REMARK    1  A    between atoms: C_1  and  C_2
REMARK    2  A    between atoms: C_2  and  C_3
REMARK    3  A    between atoms: C_8  and  N_9
REMARK    4  A    between atoms: N_9  and  C_10
REMARK    5  A    between atoms: N_13  and  C_14
REMARK    6  A    between atoms: N_16  and  C_25
REMARK                            x       y       z     vdW  Elec       q    Type
REMARK                         _______ _______ _______ _____ _____    ______ ____
ROOT
ATOM      1  N   UNL     1       3.575  -4.900   0.147  0.00  0.00    -0.258 N 
ATOM      2  C   UNL     1       4.852  -4.181   0.138  0.00  0.00    +0.140 C 
ATOM      3  C   UNL     1       2.417  -4.217   0.059  0.00  0.00    +0.311 C 
ATOM      4  O   UNL     1       1.357  -4.813   0.067  0.00  0.00    -0.252 OA
ATOM      5  N   UNL     1       2.433  -2.872  -0.036  0.00  0.00    -0.267 N 
ATOM      6  H   UNL     1       3.278  -2.401  -0.109  0.00  0.00    +0.156 HD
ENDROOT
BRANCH   5   7
ATOM      7  C   UNL     1       1.227  -2.154  -0.029  0.00  0.00    +0.059 A 
ATOM      8  C   UNL     1       0.985  -1.240   0.933  0.00  0.00    +0.112 A 
ATOM      9  N   UNL     1      -0.177  -0.517   0.978  0.00  0.00    -0.316 N 
ATOM     10  C   UNL     1      -1.155  -0.670   0.064  0.00  0.00    +0.259 A 
ATOM     11  O   UNL     1      -2.174  -0.007   0.138  0.00  0.00    -0.267 OA
ATOM     12  C   UNL     1      -0.981  -1.641  -1.021  0.00  0.00    +0.048 A 
ATOM     13  C   UNL     1       0.219  -2.389  -1.068  0.00  0.00    +0.010 A 
ATOM     14  C   UNL     1       0.413  -3.320  -2.087  0.00  0.00    +0.010 A 
ATOM     15  C   UNL     1      -0.558  -3.501  -3.033  0.00  0.00    +0.001 A 
ATOM     16  C   UNL     1      -1.738  -2.769  -2.991  0.00  0.00    +0.001 A 
ATOM     17  C   UNL     1      -1.957  -1.843  -1.996  0.00  0.00    +0.014 A 
ATOM     18  C   UNL     1      -0.362   0.456   2.057  0.00  0.00    +0.152 C 
ENDBRANCH   5   7
BRANCH   1  24
ATOM     19  C   UNL     1       3.510  -6.904   1.493  0.00  0.00    -0.026 A 
ATOM     20  C   UNL     1       3.493  -8.282   1.587  0.00  0.00    +0.005 A 
ATOM     21  C   UNL     1       3.524  -9.056   0.441  0.00  0.00    +0.000 A 
ATOM     22  C   UNL     1       3.572  -8.452  -0.803  0.00  0.00    +0.002 A 
ATOM     23  C   UNL     1       3.584  -7.075  -0.904  0.00  0.00    +0.024 A 
ATOM     24  C   UNL     1       3.558  -6.296   0.246  0.00  0.00    +0.041 A 
BRANCH  19  26
ATOM     25  C   UNL     1       2.031  -5.660   3.046  0.00  0.00    +0.009 C 
ATOM     26  C   UNL     1       3.475  -6.062   2.742  0.00  0.00    +0.033 C 
ENDBRANCH  19  26
ENDBRANCH   1  24
TORSDOF 3
