REMARK  Name = ZINC63362541
REMARK  9 active torsions:
REMARK  status: ('A' for Active; 'I' for Inactive)
REMARK    1  A    between atoms: C_1  and  C_2
REMARK    2  A    between atoms: C_2  and  C_3
REMARK    3  A    between atoms: C_3  and  C_4
REMARK    4  A    between atoms: C_4  and  O_5
REMARK    5  A    between atoms: O_5  and  C_6
REMARK    6  A    between atoms: C_9  and  N_12
REMARK    7  A    between atoms: C_13  and  C_15
REMARK    8  A    between atoms: C_20  and  N_21
REMARK    9  A    between atoms: C_24  and  C_40
REMARK                            x       y       z     vdW  Elec       q    Type
REMARK                         _______ _______ _______ _____ _____    ______ ____
ROOT
ATOM      1  C   UNL     1      -4.802 -10.044   0.203  0.00  0.00    +0.059 A 
ATOM      2  C   UNL     1      -3.682 -10.879   0.199  0.00  0.00    +0.015 A 
ATOM      3  C   UNL     1      -3.843 -12.245   0.298  0.00  0.00    +0.001 A 
ATOM      4  C   UNL     1      -5.111 -12.794   0.400  0.00  0.00    +0.002 A 
ATOM      5  C   UNL     1      -6.226 -11.980   0.405  0.00  0.00    +0.025 A 
ATOM      6  C   UNL     1      -6.083 -10.603   0.313  0.00  0.00    +0.058 A 
ENDROOT
BRANCH   6   7
ATOM      7  N   UNL     1      -7.210  -9.778   0.323  0.00  0.00    -0.192 N 
ATOM      8  C   UNL     1      -7.888  -9.408  -0.783  0.00  0.00    +0.253 C 
ATOM      9  O   UNL     1      -7.626  -9.694  -1.931  0.00  0.00    -0.272 OA
ATOM     10  C   UNL     1      -9.042  -8.561  -0.293  0.00  0.00    +0.137 C 
ATOM     11  C   UNL     1      -8.931  -7.140  -0.858  0.00  0.00    +0.139 C 
ATOM     12  C   UNL     1      -9.746  -6.244   0.066  0.00  0.00    -0.034 C 
ATOM     13  C   UNL     1     -10.656  -5.648  -0.699  0.00  0.00    -0.001 A 
ATOM     14  C   UNL     1     -11.680  -4.637  -0.391  0.00  0.00    +0.010 A 
ATOM     15  C   UNL     1     -12.467  -4.246  -1.429  0.00  0.00    +0.001 A 
ATOM     16  C   UNL     1     -12.339  -4.755  -2.725  0.00  0.00    +0.002 A 
ATOM     17  C   UNL     1     -11.422  -5.684  -3.098  0.00  0.00    +0.026 A 
ATOM     18  C   UNL     1     -10.535  -6.169  -2.094  0.00  0.00    +0.043 A 
ATOM     19  N   UNL     1      -9.557  -7.040  -2.179  0.00  0.00    -0.375 N 
ATOM     20  C   UNL     1      -9.526  -6.173   1.557  0.00  0.00    +0.052 C 
ATOM     21  C   UNL     1      -9.554  -7.619   2.091  0.00  0.00    +0.115 C 
ATOM     22  N   UNL     1      -8.796  -8.464   1.164  0.00  0.00    -0.268 N 
ATOM     23  C   UNL     1      -7.754  -9.261   1.433  0.00  0.00    +0.317 C 
ATOM     24  O   UNL     1      -7.346  -9.488   2.555  0.00  0.00    -0.252 OA
ATOM     25  C   UNL     1     -10.395  -9.205  -0.605  0.00  0.00    +0.044 C 
ATOM     26  H   UNL     1      -9.293  -7.535  -2.970  0.00  0.00    +0.160 HD
ENDBRANCH   6   7
BRANCH   1  28
ATOM     27  N   UNL     1      -3.403  -8.049  -0.008  0.00  0.00    -0.281 N 
ATOM     28  C   UNL     1      -4.636  -8.582   0.098  0.00  0.00    +0.250 C 
ATOM     29  O   UNL     1      -5.613  -7.857   0.106  0.00  0.00    -0.270 OA
ATOM     30  H   UNL     1      -2.630  -8.628  -0.092  0.00  0.00    +0.155 HD
BRANCH  27  34
ATOM     31  C   UNL     1      -2.912  -3.909   0.027  0.00  0.00    +0.121 A 
ATOM     32  C   UNL     1      -2.063  -4.701  -0.731  0.00  0.00    +0.047 A 
ATOM     33  C   UNL     1      -2.225  -6.072  -0.743  0.00  0.00    +0.027 A 
ATOM     34  C   UNL     1      -3.238  -6.658   0.004  0.00  0.00    +0.034 A 
ATOM     35  C   UNL     1      -4.088  -5.864   0.763  0.00  0.00    +0.027 A 
ATOM     36  C   UNL     1      -3.921  -4.493   0.778  0.00  0.00    +0.047 A 
BRANCH  31  37
ATOM     37  O   UNL     1      -2.752  -2.558   0.039  0.00  0.00    -0.492 OA
BRANCH  37  38
ATOM     38  C   UNL     1      -1.692  -2.024  -0.758  0.00  0.00    +0.229 C 
BRANCH  38  39
ATOM     39  C   UNL     1      -1.668  -0.501  -0.619  0.00  0.00    +0.041 C 
BRANCH  39  41
ATOM     40  C   UNL     1      -0.510   1.595  -1.333  0.00  0.00    +0.004 C 
ATOM     41  C   UNL     1      -0.534   0.071  -1.472  0.00  0.00    -0.000 C 
ENDBRANCH  39  41
ENDBRANCH  38  39
ENDBRANCH  37  38
ENDBRANCH  31  37
ENDBRANCH  27  34
ENDBRANCH   1  28
TORSDOF 7
