REMARK  Name = ZINC15081195
REMARK  15 active torsions:
REMARK  status: ('A' for Active; 'I' for Inactive)
REMARK    1  A    between atoms: C_1  and  C_2
REMARK    2  A    between atoms: C_5  and  S_8
REMARK    3  A    between atoms: S_8  and  N_11
REMARK    4  A    between atoms: N_11  and  N_12
REMARK    5  A    between atoms: C_15  and  C_38
REMARK    6  A    between atoms: C_15  and  O_39
REMARK    7  A    between atoms: C_16  and  C_34
REMARK    8  A    between atoms: C_18  and  C_26
REMARK    9  A    between atoms: C_20  and  C_22
REMARK   10  A    between atoms: C_22  and  O_24
REMARK   11  A    between atoms: O_24  and  C_25
REMARK   12  A    between atoms: C_29  and  O_32
REMARK   13  A    between atoms: O_32  and  C_33
REMARK   14  A    between atoms: C_34  and  O_36
REMARK   15  A    between atoms: O_36  and  C_37
REMARK                            x       y       z     vdW  Elec       q    Type
REMARK                         _______ _______ _______ _____ _____    ______ ____
ROOT
ATOM      1  N   UNL     1      -0.995   2.172   0.308  0.00  0.00    -0.174 NA
ATOM      2  C   UNL     1       0.083   1.495   0.170  0.00  0.00    +0.055 C 
ATOM      3  C   UNL     1       1.418   2.188   0.003  0.00  0.00    +0.088 C 
ATOM      4  C   UNL     1       2.114   1.612  -1.235  0.00  0.00    +0.082 C 
ATOM      5  C   UNL     1       2.205   0.091  -1.105  0.00  0.00    +0.138 C 
ATOM      6  C   UNL     1       0.800  -0.513  -1.080  0.00  0.00    +0.055 C 
ATOM      7  C   UNL     1       0.055  -0.017   0.163  0.00  0.00    +0.152 C 
ATOM      8  C   UNL     1       3.522   2.200  -1.349  0.00  0.00    +0.042 C 
ENDROOT
BRANCH   6   9
ATOM      9  C   UNL     1       0.050  -0.091  -2.318  0.00  0.00    -0.042 A 
ATOM     10  C   UNL     1      -0.670   1.089  -2.320  0.00  0.00    +0.007 A 
ATOM     11  C   UNL     1      -1.354   1.481  -3.454  0.00  0.00    +0.046 A 
ATOM     12  C   UNL     1      -1.328   0.683  -4.588  0.00  0.00    +0.120 A 
ATOM     13  C   UNL     1      -0.609  -0.504  -4.582  0.00  0.00    +0.046 A 
ATOM     14  C   UNL     1       0.078  -0.888  -3.447  0.00  0.00    +0.007 A 
BRANCH  12  15
ATOM     15  O   UNL     1      -2.005   1.062  -5.704  0.00  0.00    -0.495 OA
ATOM     16  C   UNL     1      -2.722   2.296  -5.638  0.00  0.00    +0.277 C 
ENDBRANCH  12  15
ENDBRANCH   6   9
BRANCH   1  17
ATOM     17  N   UNL     1      -0.935   3.566   0.439  0.00  0.00    -0.137 N 
ATOM     18  H   UNL     1      -0.085   4.025   0.355  0.00  0.00    +0.197 HD
BRANCH  17  19
ATOM     19  S   UNL     1      -2.317   4.429   0.737  0.00  0.00    +0.086 S 
ATOM     20  O   UNL     1      -1.915   5.774   0.959  0.00  0.00    -0.149 OA
ATOM     21  O   UNL     1      -3.247   4.068  -0.274  0.00  0.00    -0.149 OA
BRANCH  19  26
ATOM     22  C   UNL     1      -4.581   2.424   5.958  0.00  0.00    +0.044 C 
ATOM     23  C   UNL     1      -4.016   2.925   4.654  0.00  0.00    -0.050 A 
ATOM     24  C   UNL     1      -3.115   3.974   4.649  0.00  0.00    +0.005 A 
ATOM     25  C   UNL     1      -2.596   4.433   3.453  0.00  0.00    +0.029 A 
ATOM     26  C   UNL     1      -2.978   3.843   2.262  0.00  0.00    +0.110 A 
ATOM     27  C   UNL     1      -3.882   2.797   2.267  0.00  0.00    +0.029 A 
ATOM     28  C   UNL     1      -4.396   2.334   3.464  0.00  0.00    +0.005 A 
ENDBRANCH  19  26
ENDBRANCH  17  19
ENDBRANCH   1  17
BRANCH   7  29
ATOM     29  C   UNL     1      -1.374  -0.496   0.126  0.00  0.00    +0.316 C 
ATOM     30  O   UNL     1      -1.758  -1.180  -0.792  0.00  0.00    -0.250 OA
BRANCH  29  31
ATOM     31  O   UNL     1      -2.219  -0.162   1.114  0.00  0.00    -0.467 OA
ATOM     32  C   UNL     1      -3.580  -0.659   1.013  0.00  0.00    +0.280 C 
ENDBRANCH  29  31
ENDBRANCH   7  29
BRANCH   5  33
ATOM     33  C   UNL     1       2.970  -0.467  -2.278  0.00  0.00    +0.313 C 
ATOM     34  O   UNL     1       2.414  -1.185  -3.075  0.00  0.00    -0.250 OA
BRANCH  33  35
ATOM     35  O   UNL     1       4.268  -0.166  -2.437  0.00  0.00    -0.468 OA
ATOM     36  C   UNL     1       4.941  -0.739  -3.589  0.00  0.00    +0.280 C 
ENDBRANCH  33  35
ENDBRANCH   5  33
BRANCH   4  37
ATOM     37  O   UNL     1       1.362   1.946  -2.403  0.00  0.00    -0.388 OA
ATOM     38  H   UNL     1       1.201   2.894  -2.510  0.00  0.00    +0.210 HD
ENDBRANCH   4  37
TORSDOF 10
