REMARK  Name = ZINC09637180
REMARK  12 active torsions:
REMARK  status: ('A' for Active; 'I' for Inactive)
REMARK    1  A    between atoms: C_1  and  O_2
REMARK    2  A    between atoms: O_2  and  C_3
REMARK    3  A    between atoms: C_3  and  C_4
REMARK    4  A    between atoms: C_4  and  C_5
REMARK    5  A    between atoms: C_5  and  N_6
REMARK    6  A    between atoms: C_7  and  C_28
REMARK    7  A    between atoms: C_10  and  S_11
REMARK    8  A    between atoms: S_11  and  C_12
REMARK    9  A    between atoms: C_12  and  C_13
REMARK   10  A    between atoms: C_13  and  C_15
REMARK   11  A    between atoms: C_16  and  N_27
REMARK   12  A    between atoms: N_17  and  C_24
REMARK                            x       y       z     vdW  Elec       q    Type
REMARK                         _______ _______ _______ _____ _____    ______ ____
ROOT
ATOM      1  S   UNL     1      -1.535  -3.600   1.633  0.00  0.00    -0.078 S 
ENDROOT
BRANCH   1   6
ATOM      2  N   UNL     1      -1.072  -0.958   2.426  0.00  0.00    -0.302 N 
ATOM      3  C   UNL     1       0.031  -0.187   2.712  0.00  0.00    +0.165 A 
ATOM      4  N   UNL     1       1.086  -0.953   2.559  0.00  0.00    -0.128 NA
ATOM      5  N   UNL     1       0.724  -2.132   2.198  0.00  0.00    -0.122 NA
ATOM      6  C   UNL     1      -0.585  -2.191   2.098  0.00  0.00    +0.192 A 
BRANCH   3   7
ATOM      7  C   UNL     1       0.028   1.234   3.119  0.00  0.00    +0.019 A 
ATOM      8  C   UNL     1      -1.098   2.026   2.890  0.00  0.00    +0.013 A 
ATOM      9  C   UNL     1      -1.096   3.350   3.277  0.00  0.00    +0.021 A 
ATOM     10  C   UNL     1       0.023   3.897   3.882  0.00  0.00    +0.041 A 
ATOM     11  C   UNL     1       1.145   3.117   4.106  0.00  0.00    +0.021 A 
ATOM     12  C   UNL     1       1.154   1.790   3.729  0.00  0.00    +0.013 A 
ATOM     13 CL   UNL     1       0.020   5.566   4.360  0.00  0.00    -0.084 Cl
ENDBRANCH   3   7
BRANCH   2  14
ATOM     14  C   UNL     1      -2.477  -0.542   2.464  0.00  0.00    +0.128 C 
BRANCH  14  15
ATOM     15  C   UNL     1      -2.902  -0.056   1.077  0.00  0.00    +0.050 C 
BRANCH  15  16
ATOM     16  C   UNL     1      -4.368   0.379   1.116  0.00  0.00    +0.161 C 
BRANCH  16  18
ATOM     17  C   UNL     1      -6.126   1.264  -0.253  0.00  0.00    +0.193 C 
ATOM     18  O   UNL     1      -4.765   0.833  -0.180  0.00  0.00    -0.383 OA
ENDBRANCH  16  18
ENDBRANCH  15  16
ENDBRANCH  14  15
ENDBRANCH   2  14
ENDBRANCH   1   6
BRANCH   1  19
ATOM     19  C   UNL     1      -0.208  -4.803   1.373  0.00  0.00    +0.157 C 
BRANCH  19  20
ATOM     20  C   UNL     1      -0.801  -6.124   0.957  0.00  0.00    +0.182 C 
ATOM     21  O   UNL     1      -2.005  -6.241   0.846  0.00  0.00    -0.291 OA
BRANCH  20  22
ATOM     22  C   UNL     1       0.043  -7.225   0.695  0.00  0.00    +0.120 A 
ATOM     23  C   UNL     1      -0.482  -8.451   0.251  0.00  0.00    +0.116 A 
ATOM     24  N   UNL     1       0.375  -9.486   0.006  0.00  0.00    -0.278 N 
ATOM     25  C   UNL     1       1.698  -9.355   0.191  0.00  0.00    +0.331 A 
ATOM     26  O   UNL     1       2.417 -10.308  -0.037  0.00  0.00    -0.246 OA
ATOM     27  N   UNL     1       2.255  -8.211   0.619  0.00  0.00    -0.274 N 
ATOM     28  H   UNL     1       3.246  -8.161   0.742  0.00  0.00    +0.173 HD
ATOM     29  C   UNL     1       1.496  -7.128   0.883  0.00  0.00    +0.266 A 
ATOM     30  O   UNL     1       2.004  -6.092   1.270  0.00  0.00    -0.267 OA
BRANCH  24  31
ATOM     31  C   UNL     1      -0.162 -10.766  -0.462  0.00  0.00    +0.094 C 
ATOM     32  C   UNL     1       0.551 -11.445  -1.634  0.00  0.00    +0.027 C 
ATOM     33  C   UNL     1      -0.818 -10.794  -1.844  0.00  0.00    +0.027 C 
ENDBRANCH  24  31
BRANCH  23  34
ATOM     34  N   UNL     1      -1.821  -8.603   0.064  0.00  0.00    -0.344 N 
ATOM     35  H   UNL     1      -2.388  -7.822  -0.041  0.00  0.00    +0.144 HD
ATOM     36  H   UNL     1      -2.209  -9.491   0.035  0.00  0.00    +0.144 HD
ENDBRANCH  23  34
ENDBRANCH  20  22
ENDBRANCH  19  20
ENDBRANCH   1  19
TORSDOF 11
