REMARK  Name = ZINC23065654
REMARK  15 active torsions:
REMARK  status: ('A' for Active; 'I' for Inactive)
REMARK    1  A    between atoms: C_1  and  C_2
REMARK    2  A    between atoms: C_4  and  C_15
REMARK    3  A    between atoms: C_5  and  C_14
REMARK    4  A    between atoms: N_6  and  C_7
REMARK    5  A    between atoms: C_7  and  C_8
REMARK    6  A    between atoms: C_8  and  C_9
REMARK    7  A    between atoms: C_15  and  C_17
REMARK    8  A    between atoms: C_17  and  S_18
REMARK    9  A    between atoms: S_18  and  C_19
REMARK   10  A    between atoms: C_22  and  C_25
REMARK   11  A    between atoms: N_23  and  N_24
REMARK   12  A    between atoms: C_25  and  O_26
REMARK   13  A    between atoms: O_26  and  C_27
REMARK   14  A    between atoms: C_31  and  O_33
REMARK   15  A    between atoms: O_33  and  C_34
REMARK                            x       y       z     vdW  Elec       q    Type
REMARK                         _______ _______ _______ _____ _____    ______ ____
ROOT
ATOM      1  S   UNL     1     -10.748   0.478   1.493  0.00  0.00    -0.077 S 
ENDROOT
BRANCH   1   2
ATOM      2  C   UNL     1     -11.774  -0.955   1.490  0.00  0.00    +0.209 A 
ATOM      3  N   UNL     1     -11.370  -2.204   1.482  0.00  0.00    -0.121 NA
ATOM      4  N   UNL     1     -12.386  -2.991   1.482  0.00  0.00    -0.128 NA
ATOM      5  C   UNL     1     -13.489  -2.298   1.490  0.00  0.00    +0.189 A 
ATOM      6  N   UNL     1     -13.139  -0.976   1.501  0.00  0.00    -0.225 N 
BRANCH   6   7
ATOM      7  N   UNL     1     -13.981   0.100   1.517  0.00  0.00    -0.295 N 
ATOM      8  H   UNL     1     -15.070  -0.053   1.525  0.00  0.00    +0.163 HD
ATOM      9  H   UNL     1     -13.569   1.120   1.522  0.00  0.00    +0.163 HD
ENDBRANCH   6   7
BRANCH   5  10
ATOM     10  C   UNL     1     -14.891  -2.850   1.493  0.00  0.00    +0.306 C 
BRANCH  10  11
ATOM     11  O   UNL     1     -15.329  -3.032   2.841  0.00  0.00    -0.484 OA
BRANCH  11  12
ATOM     12  C   UNL     1     -16.581  -3.527   3.022  0.00  0.00    +0.125 A 
ATOM     13  C   UNL     1     -17.375  -3.826   1.923  0.00  0.00    +0.046 A 
ATOM     14  C   UNL     1     -18.647  -4.334   2.106  0.00  0.00    +0.007 A 
ATOM     15  C   UNL     1     -19.136  -4.536   3.382  0.00  0.00    +0.046 A 
ATOM     16  C   UNL     1     -18.348  -4.233   4.484  0.00  0.00    +0.124 A 
ATOM     17  C   UNL     1     -17.070  -3.729   4.303  0.00  0.00    +0.091 A 
BRANCH  16  18
ATOM     18  O   UNL     1     -18.830  -4.431   5.739  0.00  0.00    -0.495 OA
ATOM     19  C   UNL     1     -20.155  -4.954   5.851  0.00  0.00    +0.277 C 
ENDBRANCH  16  18
ENDBRANCH  11  12
ENDBRANCH  10  11
ENDBRANCH   5  10
ENDBRANCH   1   2
BRANCH   1  20
ATOM     20  C   UNL     1      -9.116  -0.304   1.482  0.00  0.00    +0.157 C 
BRANCH  20  21
ATOM     21  C   UNL     1      -8.049   0.761   1.483  0.00  0.00    +0.175 C 
ATOM     22  O   UNL     1      -8.362   1.933   1.490  0.00  0.00    -0.291 OA
BRANCH  21  26
ATOM     23  C   UNL     1      -3.758  -1.986   1.450  0.00  0.00    +0.063 C 
ATOM     24  C   UNL     1      -4.748  -0.850   1.460  0.00  0.00    +0.017 A 
ATOM     25  C   UNL     1      -6.085  -0.982   1.465  0.00  0.00    +0.034 A 
ATOM     26  C   UNL     1      -6.635   0.380   1.475  0.00  0.00    +0.039 A 
ATOM     27  C   UNL     1      -5.544   1.228   1.481  0.00  0.00    +0.026 A 
ATOM     28  N   UNL     1      -4.429   0.477   1.466  0.00  0.00    -0.347 N 
ATOM     29  C   UNL     1      -5.595   2.735   1.498  0.00  0.00    +0.064 C 
BRANCH  28  30
ATOM     30  C   UNL     1      -3.063   1.008   1.463  0.00  0.00    +0.127 C 
BRANCH  30  31
ATOM     31  C   UNL     1      -2.594   1.202   0.020  0.00  0.00    +0.064 C 
BRANCH  31  32
ATOM     32  C   UNL     1      -1.190   1.748   0.017  0.00  0.00    -0.009 A 
ATOM     33  C   UNL     1      -0.013   1.076   0.008  0.00  0.00    +0.011 A 
ATOM     34  C   UNL     1       1.169   1.793   0.001  0.00  0.00    +0.008 A 
ATOM     35  C   UNL     1       1.115   3.148   0.008  0.00  0.00    +0.045 A 
ATOM     36  S   UNL     1      -0.644   3.448   0.027  0.00  0.00    -0.102 S 
ENDBRANCH  31  32
ENDBRANCH  30  31
ENDBRANCH  28  30
ENDBRANCH  21  26
ENDBRANCH  20  21
ENDBRANCH   1  20
TORSDOF 12
