REMARK  Name = ZINC65621987
REMARK  3 active torsions:
REMARK  status: ('A' for Active; 'I' for Inactive)
REMARK    1  A    between atoms: N_13  and  C_14
REMARK    2  A    between atoms: C_17  and  N_24
REMARK    3  A    between atoms: C_19  and  C_20
REMARK                            x       y       z     vdW  Elec       q    Type
REMARK                         _______ _______ _______ _____ _____    ______ ____
ROOT
ATOM      1  C   UNL     1       6.365  -2.838   2.372  0.00  0.00    +0.047 A 
ATOM      2  C   UNL     1       6.240  -4.214   2.514  0.00  0.00    +0.026 A 
ATOM      3  C   UNL     1       7.140  -4.912   3.293  0.00  0.00    +0.029 A 
ATOM      4  C   UNL     1       8.171  -4.239   3.935  0.00  0.00    +0.066 A 
ATOM      5  C   UNL     1       8.296  -2.863   3.794  0.00  0.00    +0.042 A 
ATOM      6  C   UNL     1       7.399  -2.166   3.010  0.00  0.00    +0.078 A 
ENDROOT
BRANCH   1  19
ATOM      7  C   UNL     1       0.264   1.822   0.120  0.00  0.00    +0.000 A 
ATOM      8  C   UNL     1       1.516   2.359  -0.116  0.00  0.00    +0.000 A 
ATOM      9  C   UNL     1       2.617   1.529  -0.167  0.00  0.00    +0.005 A 
ATOM     10  C   UNL     1       2.478   0.161   0.020  0.00  0.00    -0.027 A 
ATOM     11  C   UNL     1       1.233  -0.374   0.265  0.00  0.00    -0.041 A 
ATOM     12  C   UNL     1       0.124   0.463   0.308  0.00  0.00    +0.004 A 
ATOM     13  C   UNL     1       1.009  -1.843   0.508  0.00  0.00    +0.054 C 
ATOM     14  C   UNL     1       2.175  -2.669  -0.034  0.00  0.00    +0.114 C 
ATOM     15  N   UNL     1       3.425  -2.042   0.425  0.00  0.00    -0.281 N 
ATOM     16  C   UNL     1       3.720  -0.690  -0.062  0.00  0.00    +0.144 C 
ATOM     17  C   UNL     1       4.266  -2.685   1.259  0.00  0.00    +0.307 C 
ATOM     18  O   UNL     1       3.956  -3.766   1.722  0.00  0.00    -0.252 OA
ATOM     19  N   UNL     1       5.452  -2.130   1.581  0.00  0.00    -0.269 N 
ATOM     20  H   UNL     1       5.672  -1.240   1.265  0.00  0.00    +0.156 HD
ENDBRANCH   1  19
BRANCH   4  21
ATOM     21  N   UNL     1       9.086  -4.948   4.727  0.00  0.00    -0.240 N 
ATOM     22  C   UNL     1       9.141  -6.292   4.869  0.00  0.00    +0.114 A 
ATOM     23  C   UNL     1      10.159  -6.575   5.714  0.00  0.00    +0.041 A 
ATOM     24  C   UNL     1      10.747  -5.366   6.102  0.00  0.00    +0.135 A 
ATOM     25  N   UNL     1      10.108  -4.391   5.506  0.00  0.00    -0.175 NA
ENDBRANCH   4  21
BRANCH   6  26
ATOM     26  C   UNL     1       7.538  -0.674   2.851  0.00  0.00    +0.419 C 
ATOM     27  F   UNL     1       8.645  -0.228   3.581  0.00  0.00    -0.166 F 
ATOM     28  F   UNL     1       7.717  -0.363   1.498  0.00  0.00    -0.166 F 
ATOM     29  F   UNL     1       6.383  -0.044   3.325  0.00  0.00    -0.166 F 
ENDBRANCH   6  26
TORSDOF 3
