REMARK  Name = ZINC36496048
REMARK  15 active torsions:
REMARK  status: ('A' for Active; 'I' for Inactive)
REMARK    1  A    between atoms: C_1  and  C_2
REMARK    2  A    between atoms: C_2  and  C_3
REMARK    3  A    between atoms: C_3  and  C_4
REMARK    4  A    between atoms: C_4  and  C_5
REMARK    5  A    between atoms: C_5  and  C_6
REMARK    6  A    between atoms: C_7  and  C_8
REMARK    7  A    between atoms: N_10  and  C_11
REMARK    8  A    between atoms: N_10  and  C_17
REMARK    9  A    between atoms: C_11  and  C_12
REMARK   10  A    between atoms: C_17  and  C_19
REMARK   11  A    between atoms: C_17  and  C_24
REMARK   12  A    between atoms: N_26  and  C_27
REMARK   13  A    between atoms: C_27  and  S_28
REMARK   14  A    between atoms: S_28  and  C_31
REMARK   15  A    between atoms: C_34  and  C_37
REMARK                            x       y       z     vdW  Elec       q    Type
REMARK                         _______ _______ _______ _____ _____    ______ ____
ROOT
ATOM      1  C   UNL     1      -3.838  -7.523   1.534  0.00  0.00    +0.229 C 
ENDROOT
BRANCH   1   2
ATOM      2  C   UNL     1      -5.265  -7.488   1.052  0.00  0.00    +0.134 A 
ATOM      3  C   UNL     1      -5.754  -8.156  -0.008  0.00  0.00    +0.047 A 
ATOM      4  C   UNL     1      -7.129  -7.837  -0.095  0.00  0.00    +0.041 A 
ATOM      5  C   UNL     1      -7.398  -6.992   0.917  0.00  0.00    +0.195 A 
ATOM      6  O   UNL     1      -6.267  -6.789   1.612  0.00  0.00    -0.465 OA
ENDBRANCH   1   2
BRANCH   1   7
ATOM      7  C   UNL     1      -3.799  -8.029   2.953  0.00  0.00    +0.242 C 
ATOM      8  O   UNL     1      -3.343  -7.331   3.834  0.00  0.00    -0.273 OA
ATOM      9  N   UNL     1      -4.271  -9.258   3.243  0.00  0.00    -0.294 N 
ATOM     10  H   UNL     1      -4.635  -9.817   2.539  0.00  0.00    +0.150 HD
BRANCH   9  11
ATOM     11  C   UNL     1      -4.233  -9.751   4.622  0.00  0.00    +0.278 C 
BRANCH  11  12
ATOM     12  S   UNL     1      -5.826  -9.423   5.426  0.00  0.00    +0.013 S 
ATOM     13  O   UNL     1      -5.827  -9.951   6.745  0.00  0.00    -0.168 OA
ATOM     14  O   UNL     1      -6.230  -8.083   5.182  0.00  0.00    -0.168 OA
BRANCH  12  15
ATOM     15  C   UNL     1      -6.989 -10.411   4.544  0.00  0.00    +0.090 A 
ATOM     16  C   UNL     1      -7.636  -9.894   3.438  0.00  0.00    +0.027 A 
ATOM     17  C   UNL     1      -8.549 -10.669   2.746  0.00  0.00    +0.005 A 
ATOM     18  C   UNL     1      -8.813 -11.961   3.162  0.00  0.00    -0.050 A 
ATOM     19  C   UNL     1      -8.165 -12.478   4.268  0.00  0.00    +0.005 A 
ATOM     20  C   UNL     1      -7.249 -11.704   4.957  0.00  0.00    +0.027 A 
ATOM     21  C   UNL     1      -9.808 -12.806   2.409  0.00  0.00    +0.044 C 
ENDBRANCH  12  15
ENDBRANCH  11  12
ENDBRANCH   9  11
ENDBRANCH   1   7
BRANCH   1  24
ATOM     22  C   UNL     1      -2.139  -5.943   0.789  0.00  0.00    +0.240 C 
ATOM     23  O   UNL     1      -1.601  -6.852   0.186  0.00  0.00    -0.271 OA
ATOM     24  N   UNL     1      -3.272  -6.173   1.482  0.00  0.00    -0.273 N 
BRANCH  22  26
ATOM     25  C   UNL     1      -0.454  -4.360   0.053  0.00  0.00    -0.022 C 
ATOM     26  C   UNL     1      -1.554  -4.594   0.762  0.00  0.00    +0.063 C 
BRANCH  25  27
ATOM     27  C   UNL     1       0.146  -2.978   0.025  0.00  0.00    +0.027 C 
BRANCH  27  28
ATOM     28  C   UNL     1       1.612  -3.049   0.456  0.00  0.00    +0.004 C 
BRANCH  28  29
ATOM     29  C   UNL     1       2.220  -1.645   0.427  0.00  0.00    +0.000 C 
BRANCH  29  31
ATOM     30  C   UNL     1       4.295  -0.312   0.830  0.00  0.00    +0.004 C 
ATOM     31  C   UNL     1       3.687  -1.716   0.858  0.00  0.00    -0.003 C 
ENDBRANCH  29  31
ENDBRANCH  28  29
ENDBRANCH  27  28
ENDBRANCH  25  27
ENDBRANCH  22  26
BRANCH  24  32
ATOM     32  C   UNL     1      -3.937  -5.072   2.184  0.00  0.00    +0.183 C 
BRANCH  32  33
ATOM     33  C   UNL     1      -4.801  -4.308   1.214  0.00  0.00    +0.122 A 
ATOM     34  C   UNL     1      -6.144  -4.238   1.243  0.00  0.00    +0.046 A 
ATOM     35  C   UNL     1      -6.536  -3.422   0.157  0.00  0.00    +0.041 A 
ATOM     36  C   UNL     1      -5.409  -3.041  -0.470  0.00  0.00    +0.195 A 
ATOM     37  O   UNL     1      -4.361  -3.576   0.177  0.00  0.00    -0.466 OA
ENDBRANCH  32  33
ENDBRANCH  24  32
ENDBRANCH   1  24
TORSDOF 13
