REMARK  Name = ZINC09813561
REMARK  7 active torsions:
REMARK  status: ('A' for Active; 'I' for Inactive)
REMARK    1  A    between atoms: C_3  and  C_6
REMARK    2  A    between atoms: C_6  and  C_8
REMARK    3  A    between atoms: C_6  and  N_59
REMARK    4  A    between atoms: C_8  and  N_9
REMARK    5  A    between atoms: C_10  and  C_12
REMARK    6  A    between atoms: C_14  and  S_19
REMARK    7  A    between atoms: S_19  and  N_22
REMARK                            x       y       z     vdW  Elec       q    Type
REMARK                         _______ _______ _______ _____ _____    ______ ____
ROOT
ATOM      1  N   UNL     1       6.735   1.305  -2.090  0.00  0.00    -0.312 N 
ATOM      2  C   UNL     1       6.249   0.208  -2.703  0.00  0.00    +0.246 C 
ATOM      3  O   UNL     1       6.528  -0.012  -3.866  0.00  0.00    -0.270 OA
ATOM      4  H   UNL     1       6.512   1.481  -1.162  0.00  0.00    +0.149 HD
ENDROOT
BRANCH   2   5
ATOM      5  C   UNL     1       5.377  -0.727  -1.963  0.00  0.00    +0.057 A 
ATOM      6  C   UNL     1       5.054  -0.478  -0.628  0.00  0.00    +0.043 A 
ATOM      7  C   UNL     1       4.239  -1.355   0.057  0.00  0.00    +0.106 A 
ATOM      8  C   UNL     1       3.746  -2.483  -0.574  0.00  0.00    +0.030 A 
ATOM      9  C   UNL     1       4.056  -2.735  -1.898  0.00  0.00    +0.022 A 
ATOM     10  C   UNL     1       4.871  -1.865  -2.597  0.00  0.00    +0.053 A 
ATOM     11 CL   UNL     1       5.265  -2.185  -4.257  0.00  0.00    -0.083 Cl
BRANCH   7  12
ATOM     12  S   UNL     1       3.831  -1.041   1.742  0.00  0.00    +0.061 S 
ATOM     13  O   UNL     1       4.863  -0.214   2.262  0.00  0.00    -0.153 OA
ATOM     14  O   UNL     1       3.497  -2.296   2.319  0.00  0.00    -0.153 OA
BRANCH  12  15
ATOM     15  N   UNL     1       2.447  -0.133   1.750  0.00  0.00    -0.177 NA
ATOM     16  C   UNL     1       1.127  -0.779   1.782  0.00  0.00    +0.109 C 
ATOM     17  C   UNL     1       0.287  -0.241   0.619  0.00  0.00    +0.017 C 
ATOM     18  C   UNL     1       0.240   1.286   0.692  0.00  0.00    +0.003 C 
ATOM     19  C   UNL     1       1.658   1.848   0.563  0.00  0.00    +0.017 C 
ATOM     20  C   UNL     1       2.514   1.335   1.725  0.00  0.00    +0.109 C 
ENDBRANCH  12  15
ENDBRANCH   7  12
ENDBRANCH   2   5
BRANCH   1  21
ATOM     21  C   UNL     1       7.600   2.233  -2.823  0.00  0.00    +0.097 C 
BRANCH  21  22
ATOM     22  C   UNL     1       7.913   3.443  -1.942  0.00  0.00    +0.016 C 
BRANCH  22  27
ATOM     23  C   UNL     1       7.900   4.882  -3.906  0.00  0.00    -0.078 C 
ATOM     24  C   UNL     1       8.569   6.230  -4.274  0.00  0.00    -0.020 C 
ATOM     25  C   UNL     1       8.894   6.844  -2.892  0.00  0.00    -0.020 C 
ATOM     26  C   UNL     1       8.930   5.650  -1.921  0.00  0.00    -0.078 C 
ATOM     27  N   UNL     1       8.676   4.457  -2.730  0.00  0.00    +0.387 N 
ATOM     28  H   UNL     1       9.568   4.047  -3.033  0.00  0.00    -0.081 HD
ENDBRANCH  22  27
BRANCH  22  31
ATOM     29  C   UNL     1       9.366   2.384   1.276  0.00  0.00    +0.041 A 
ATOM     30  C   UNL     1       8.262   2.778   0.485  0.00  0.00    +0.043 A 
ATOM     31  C   UNL     1       8.732   3.002  -0.755  0.00  0.00    +0.093 A 
ATOM     32  O   UNL     1      10.053   2.760  -0.759  0.00  0.00    -0.469 OA
ATOM     33  C   UNL     1      10.444   2.391   0.472  0.00  0.00    +0.195 A 
ENDBRANCH  22  31
ENDBRANCH  21  22
ENDBRANCH   1  21
TORSDOF 7
