REMARK  Name = ZINC65192342
REMARK  7 active torsions:
REMARK  status: ('A' for Active; 'I' for Inactive)
REMARK    1  A    between atoms: C_4  and  N_7
REMARK    2  A    between atoms: C_11  and  S_12
REMARK    3  A    between atoms: S_12  and  C_13
REMARK    4  A    between atoms: C_13  and  C_14
REMARK    5  A    between atoms: N_16  and  N_17
REMARK    6  A    between atoms: N_20  and  C_21
REMARK    7  A    between atoms: C_21  and  C_22
REMARK                            x       y       z     vdW  Elec       q    Type
REMARK                         _______ _______ _______ _____ _____    ______ ____
ROOT
ATOM      1  S   UNL     1       4.468   0.223   2.475  0.00  0.00    -0.078 S 
ENDROOT
BRANCH   1   6
ATOM      2  N   UNL     1       3.624  -0.652  -0.036  0.00  0.00    -0.291 N 
ATOM      3  C   UNL     1       4.104  -1.447  -1.045  0.00  0.00    +0.047 A 
ATOM      4  C   UNL     1       5.309  -1.906  -0.653  0.00  0.00    +0.064 A 
ATOM      5  N   UNL     1       5.572  -1.411   0.563  0.00  0.00    -0.226 NA
ATOM      6  C   UNL     1       4.571  -0.650   0.948  0.00  0.00    +0.174 A 
ATOM      7  C   UNL     1       6.173  -2.824  -1.484  0.00  0.00    +0.057 C 
ATOM      8  C   UNL     1       5.303  -3.447  -2.581  0.00  0.00    +0.007 C 
ATOM      9  C   UNL     1       4.523  -2.345  -3.304  0.00  0.00    +0.007 C 
ATOM     10  C   UNL     1       3.453  -1.777  -2.363  0.00  0.00    +0.056 C 
BRANCH   2  14
ATOM     11  C   UNL     1      -0.017   1.379   0.010  0.00  0.00    +0.000 A 
ATOM     12  C   UNL     1       1.170   2.089   0.002  0.00  0.00    +0.002 A 
ATOM     13  C   UNL     1       2.377   1.419  -0.013  0.00  0.00    +0.026 A 
ATOM     14  C   UNL     1       2.399   0.031  -0.021  0.00  0.00    +0.049 A 
ATOM     15  C   UNL     1       1.207  -0.680  -0.013  0.00  0.00    +0.026 A 
ATOM     16  C   UNL     1       0.002  -0.004   0.002  0.00  0.00    +0.002 A 
ENDBRANCH   2  14
ENDBRANCH   1   6
BRANCH   1  17
ATOM     17  C   UNL     1       6.022  -0.184   3.319  0.00  0.00    +0.174 C 
BRANCH  17  18
ATOM     18  C   UNL     1       6.062   0.507   4.657  0.00  0.00    +0.239 C 
ATOM     19  O   UNL     1       5.135   1.206   5.008  0.00  0.00    -0.273 OA
ATOM     20  N   UNL     1       7.130   0.350   5.465  0.00  0.00    -0.233 N 
ATOM     21  H   UNL     1       7.872  -0.209   5.185  0.00  0.00    +0.173 HD
BRANCH  20  22
ATOM     22  N   UNL     1       7.168   0.993   6.709  0.00  0.00    -0.218 N 
ATOM     23  C   UNL     1       8.235   0.835   7.517  0.00  0.00    +0.316 C 
ATOM     24  O   UNL     1       8.268   1.393   8.596  0.00  0.00    -0.251 OA
ATOM     25  N   UNL     1       9.266   0.059   7.127  0.00  0.00    -0.298 N 
ATOM     26  H   UNL     1       6.426   1.551   6.989  0.00  0.00    +0.174 HD
ATOM     27  H   UNL     1       9.240  -0.386   6.266  0.00  0.00    +0.150 HD
BRANCH  25  28
ATOM     28  C   UNL     1      10.427  -0.112   8.005  0.00  0.00    +0.109 C 
BRANCH  28  29
ATOM     29  C   UNL     1      11.445  -1.034   7.331  0.00  0.00    +0.006 C 
ATOM     30  C   UNL     1      11.748  -2.370   8.011  0.00  0.00    +0.005 C 
ATOM     31  C   UNL     1      12.784  -1.245   8.039  0.00  0.00    +0.005 C 
ENDBRANCH  28  29
ENDBRANCH  25  28
ENDBRANCH  20  22
ENDBRANCH  17  18
ENDBRANCH   1  17
TORSDOF 7
