REMARK  Name = ZINC04571588
REMARK  4 active torsions:
REMARK  status: ('A' for Active; 'I' for Inactive)
REMARK    1  A    between atoms: C_1  and  C_2
REMARK    2  A    between atoms: C_11  and  O_22
REMARK    3  A    between atoms: C_13  and  C_16
REMARK    4  A    between atoms: N_20  and  C_21
REMARK                            x       y       z     vdW  Elec       q    Type
REMARK                         _______ _______ _______ _____ _____    ______ ____
ROOT
ATOM      1  C   UNL     1      -0.019   1.526   0.010  0.00  0.00    +0.008 C 
ATOM      2  C   UNL     1       0.002  -0.004   0.002  0.00  0.00    -0.009 C 
ATOM      3  C   UNL     1      -1.434  -0.537   0.019  0.00  0.00    +0.008 C 
ATOM      4  C   UNL     1      -1.433  -2.045  -0.237  0.00  0.00    +0.037 C 
ATOM      5  C   UNL     1      -0.467  -2.706   0.737  0.00  0.00    -0.023 A 
ATOM      6  C   UNL     1       0.483  -1.985   1.377  0.00  0.00    -0.004 A 
ATOM      7  S   UNL     1       1.344  -3.164   2.381  0.00  0.00    -0.078 S 
ATOM      8  C   UNL     1       0.503  -4.535   1.978  0.00  0.00    +0.080 A 
ATOM      9  C   UNL     1      -0.471  -4.120   1.062  0.00  0.00    +0.068 A 
ATOM     10  C   UNL     1      -1.397  -5.154   0.532  0.00  0.00    +0.220 C 
ATOM     11  N   UNL     1      -1.097  -6.406   0.750  0.00  0.00    -0.221 NA
ATOM     12  C   UNL     1       0.114  -6.860   1.422  0.00  0.00    +0.240 C 
ATOM     13  N   UNL     1       0.623  -5.850   2.368  0.00  0.00    -0.312 N 
ATOM     14  C   UNL     1       0.739  -0.515   1.249  0.00  0.00    +0.046 C 
ATOM     15  H   UNL     1       1.020  -6.098   3.217  0.00  0.00    +0.149 HD
ENDROOT
BRANCH  12  16
ATOM     16  C   UNL     1       1.174  -7.140   0.388  0.00  0.00    +0.061 A 
ATOM     17  C   UNL     1       2.506  -7.027   0.569  0.00  0.00    +0.026 A 
ATOM     18  C   UNL     1       3.128  -7.383  -0.644  0.00  0.00    +0.019 A 
ATOM     19  C   UNL     1       2.154  -7.699  -1.520  0.00  0.00    +0.086 A 
ATOM     20  N   UNL     1       0.952  -7.558  -0.891  0.00  0.00    -0.350 N 
ATOM     21  C   UNL     1      -0.360  -7.810  -1.491  0.00  0.00    +0.148 C 
ENDBRANCH  12  16
BRANCH  10  22
ATOM     22  O   UNL     1      -2.512  -4.810  -0.154  0.00  0.00    -0.492 OA
ATOM     23  H   UNL     1      -3.039  -5.565  -0.450  0.00  0.00    +0.294 HD
ENDBRANCH  10  22
TORSDOF 2
