REMARK  Name = ZINC63926276
REMARK  8 active torsions:
REMARK  status: ('A' for Active; 'I' for Inactive)
REMARK    1  A    between atoms: C_1  and  C_2
REMARK    2  A    between atoms: C_2  and  C_4
REMARK    3  A    between atoms: C_9  and  N_10
REMARK    4  A    between atoms: C_11  and  C_13
REMARK    5  A    between atoms: C_13  and  S_14
REMARK    6  A    between atoms: S_14  and  C_15
REMARK    7  A    between atoms: C_18  and  C_27
REMARK    8  A    between atoms: N_19  and  C_20
REMARK                            x       y       z     vdW  Elec       q    Type
REMARK                         _______ _______ _______ _____ _____    ______ ____
ROOT
ATOM      1  C   UNL     1       0.740  -7.652   2.164  0.00  0.00    +0.197 A 
ATOM      2  N   UNL     1       0.536  -7.094   3.348  0.00  0.00    -0.122 NA
ATOM      3  N   UNL     1       0.589  -7.985   4.273  0.00  0.00    -0.128 NA
ATOM      4  C   UNL     1       0.830  -9.174   3.738  0.00  0.00    +0.168 A 
ATOM      5  N   UNL     1       0.927  -8.987   2.369  0.00  0.00    -0.270 N 
ENDROOT
BRANCH   4   6
ATOM      6  C   UNL     1       0.957 -10.389   4.427  0.00  0.00    +0.025 C 
ATOM      7  C   UNL     1       0.851 -10.594   5.803  0.00  0.00    +0.006 A 
ATOM      8  C   UNL     1       0.599  -9.719   6.881  0.00  0.00    +0.010 A 
ATOM      9  C   UNL     1       0.549 -10.206   8.147  0.00  0.00    +0.001 A 
ATOM     10  C   UNL     1       0.742 -11.562   8.417  0.00  0.00    +0.002 A 
ATOM     11  C   UNL     1       0.988 -12.460   7.431  0.00  0.00    +0.026 A 
ATOM     12  C   UNL     1       1.054 -12.025   6.082  0.00  0.00    +0.043 A 
ATOM     13  N   UNL     1       1.275 -12.686   4.963  0.00  0.00    -0.380 N 
ATOM     14  C   UNL     1       1.232 -11.753   3.833  0.00  0.00    +0.152 C 
ATOM     15  H   UNL     1       1.437 -13.640   4.897  0.00  0.00    +0.160 HD
ENDBRANCH   4   6
BRANCH   5  16
ATOM     16  C   UNL     1       1.170  -9.967   1.397  0.00  0.00    +0.051 A 
ATOM     17  C   UNL     1       0.237 -10.970   1.171  0.00  0.00    +0.028 A 
ATOM     18  C   UNL     1       0.479 -11.934   0.213  0.00  0.00    +0.022 A 
ATOM     19  C   UNL     1       1.650 -11.901  -0.523  0.00  0.00    +0.041 A 
ATOM     20  C   UNL     1       2.582 -10.902  -0.301  0.00  0.00    +0.022 A 
ATOM     21  C   UNL     1       2.342  -9.932   0.652  0.00  0.00    +0.028 A 
ATOM     22 CL   UNL     1       1.952 -13.115  -1.728  0.00  0.00    -0.084 Cl
ENDBRANCH   5  16
BRANCH   1  23
ATOM     23  S   UNL     1       0.757  -6.823   0.610  0.00  0.00    -0.076 S 
BRANCH  23  24
ATOM     24  C   UNL     1       0.449  -5.087   1.035  0.00  0.00    +0.173 C 
BRANCH  24  26
ATOM     25  N   UNL     1       0.226  -2.927  -0.150  0.00  0.00    -0.284 N 
ATOM     26  C   UNL     1       0.438  -4.256  -0.223  0.00  0.00    +0.228 C 
ATOM     27  O   UNL     1       0.621  -4.784  -1.299  0.00  0.00    -0.275 OA
ATOM     28  H   UNL     1       0.156  -2.494   0.714  0.00  0.00    +0.155 HD
BRANCH  25  34
ATOM     29  C   UNL     1       0.596  -0.861  -1.363  0.00  0.00    +0.038 A 
ATOM     30  C   UNL     1       0.473  -0.120  -2.545  0.00  0.00    +0.013 A 
ATOM     31  C   UNL     1      -0.129  -0.683  -3.648  0.00  0.00    +0.001 A 
ATOM     32  C   UNL     1      -0.615  -1.980  -3.596  0.00  0.00    +0.002 A 
ATOM     33  C   UNL     1      -0.502  -2.724  -2.438  0.00  0.00    +0.024 A 
ATOM     34  C   UNL     1       0.106  -2.178  -1.317  0.00  0.00    +0.044 A 
BRANCH  29  36
ATOM     35  C   UNL     1       1.858   1.102  -0.271  0.00  0.00    +0.091 C 
ATOM     36  C   UNL     1       1.236  -0.268  -0.183  0.00  0.00    +0.162 C 
ATOM     37  O   UNL     1       1.266  -0.881   0.863  0.00  0.00    -0.292 OA
ENDBRANCH  29  36
ENDBRANCH  25  34
ENDBRANCH  24  26
ENDBRANCH  23  24
ENDBRANCH   1  23
TORSDOF 7
