REMARK  Name = ZINC03906261
REMARK  4 active torsions:
REMARK  status: ('A' for Active; 'I' for Inactive)
REMARK    1  A    between atoms: C_1  and  C_2
REMARK    2  A    between atoms: C_7  and  N_8
REMARK    3  A    between atoms: N_8  and  C_9
REMARK    4  A    between atoms: C_10  and  C_19
REMARK                            x       y       z     vdW  Elec       q    Type
REMARK                         _______ _______ _______ _____ _____    ______ ____
ROOT
ATOM      1  C   UNL     1       2.365   1.310  -0.202  0.00  0.00    +0.138 A 
ATOM      2  C   UNL     1       2.680   2.462   0.494  0.00  0.00    +0.147 A 
ATOM      3  N   UNL     1       1.905   3.457   0.022  0.00  0.00    -0.223 NA
ATOM      4  C   UNL     1       1.122   2.983  -0.934  0.00  0.00    +0.140 A 
ATOM      5  N   UNL     1       1.387   1.643  -1.097  0.00  0.00    -0.286 N 
ATOM      6  C   UNL     1       0.705   0.911  -2.032  0.00  0.00    +0.114 A 
ATOM      7  C   UNL     1      -0.231   1.493  -2.811  0.00  0.00    +0.058 A 
ATOM      8  C   UNL     1      -0.527   2.860  -2.663  0.00  0.00    +0.025 A 
ATOM      9  C   UNL     1       0.141   3.601  -1.739  0.00  0.00    +0.048 A 
ATOM     10 CL   UNL     1      -1.078   0.548  -3.995  0.00  0.00    -0.082 Cl
ENDROOT
BRANCH   2  11
ATOM     11  C   UNL     1       3.688   2.581   1.566  0.00  0.00    +0.156 A 
ATOM     12  C   UNL     1       4.481   3.662   1.800  0.00  0.00    +0.051 A 
ATOM     13  C   UNL     1       5.286   3.341   2.912  0.00  0.00    +0.042 A 
ATOM     14  C   UNL     1       4.949   2.096   3.297  0.00  0.00    +0.196 A 
ATOM     15  O   UNL     1       3.979   1.641   2.485  0.00  0.00    -0.461 OA
ENDBRANCH   2  11
BRANCH   1  16
ATOM     16  N   UNL     1       2.936   0.050  -0.025  0.00  0.00    -0.298 N 
ATOM     17  H   UNL     1       3.817  -0.139  -0.385  0.00  0.00    +0.154 HD
BRANCH  16  24
ATOM     18  C   UNL     1       4.058  -2.564   0.070  0.00  0.00    +0.045 C 
ATOM     19  C   UNL     1       2.751  -2.231   0.742  0.00  0.00    -0.029 A 
ATOM     20  C   UNL     1       2.061  -3.207   1.435  0.00  0.00    +0.005 A 
ATOM     21  C   UNL     1       0.859  -2.904   2.048  0.00  0.00    +0.000 A 
ATOM     22  C   UNL     1       0.345  -1.622   1.973  0.00  0.00    +0.002 A 
ATOM     23  C   UNL     1       1.031  -0.640   1.287  0.00  0.00    +0.023 A 
ATOM     24  C   UNL     1       2.240  -0.941   0.670  0.00  0.00    +0.035 A 
ENDBRANCH  16  24
ENDBRANCH   1  16
TORSDOF 3
