REMARK  Name = ZINC13141257
REMARK  9 active torsions:
REMARK  status: ('A' for Active; 'I' for Inactive)
REMARK    1  A    between atoms: C_1  and  C_2
REMARK    2  A    between atoms: C_5  and  C_8
REMARK    3  A    between atoms: C_8  and  C_10
REMARK    4  A    between atoms: C_14  and  N_15
REMARK    5  A    between atoms: C_16  and  C_18
REMARK    6  A    between atoms: C_18  and  O_19
REMARK    7  A    between atoms: O_19  and  C_20
REMARK    8  A    between atoms: C_20  and  C_22
REMARK    9  A    between atoms: C_25  and  O_28
REMARK                            x       y       z     vdW  Elec       q    Type
REMARK                         _______ _______ _______ _____ _____    ______ ____
ROOT
ATOM      1  C   UNL     1       7.246   2.105   0.039  0.00  0.00    +0.054 A 
ATOM      2  C   UNL     1       8.195   3.206   0.021  0.00  0.00    -0.024 A 
ATOM      3  C   UNL     1       7.648   4.436  -0.082  0.00  0.00    -0.005 A 
ATOM      4  S   UNL     1       5.903   4.151  -0.162  0.00  0.00    -0.077 S 
ATOM      5  C   UNL     1       5.895   2.422  -0.049  0.00  0.00    +0.083 A 
ATOM      6  C   UNL     1       8.373   5.746  -0.124  0.00  0.00    +0.043 C 
ATOM      7  C   UNL     1       9.817   5.515   0.343  0.00  0.00    +0.005 C 
ATOM      8  C   UNL     1      10.386   4.298  -0.393  0.00  0.00    +0.005 C 
ATOM      9  C   UNL     1       9.706   3.023   0.108  0.00  0.00    +0.037 C 
ENDROOT
BRANCH   5  10
ATOM     10  N   UNL     1       4.808   1.564  -0.052  0.00  0.00    -0.277 N 
ATOM     11  C   UNL     1       3.556   2.062  -0.033  0.00  0.00    +0.255 C 
ATOM     12  O   UNL     1       3.381   3.262  -0.013  0.00  0.00    -0.272 OA
ATOM     13  H   UNL     1       4.948   0.604  -0.069  0.00  0.00    +0.155 HD
BRANCH  11  14
ATOM     14  C   UNL     1       2.373   1.129  -0.037  0.00  0.00    +0.328 C 
BRANCH  14  15
ATOM     15  O   UNL     1       1.145   1.903  -0.014  0.00  0.00    -0.452 OA
BRANCH  15  16
ATOM     16  C   UNL     1      -0.013   1.214  -0.014  0.00  0.00    +0.340 C 
ATOM     17  O   UNL     1       0.003  -0.001  -0.033  0.00  0.00    -0.245 OA
BRANCH  16  18
ATOM     18  C   UNL     1      -1.300   1.934   0.003  0.00  0.00    +0.059 A 
ATOM     19  C   UNL     1      -1.320   3.332   0.031  0.00  0.00    +0.018 A 
ATOM     20  C   UNL     1      -2.524   4.001   0.041  0.00  0.00    +0.046 A 
ATOM     21  C   UNL     1      -3.717   3.288   0.035  0.00  0.00    +0.117 A 
ATOM     22  C   UNL     1      -3.701   1.898   0.013  0.00  0.00    +0.046 A 
ATOM     23  C   UNL     1      -2.502   1.222  -0.003  0.00  0.00    +0.018 A 
BRANCH  21  24
ATOM     24  O   UNL     1      -4.901   3.951   0.051  0.00  0.00    -0.507 OA
ATOM     25  H   UNL     1      -5.241   4.129   0.938  0.00  0.00    +0.292 HD
ENDBRANCH  21  24
ENDBRANCH  16  18
ENDBRANCH  15  16
ENDBRANCH  14  15
ENDBRANCH  11  14
ENDBRANCH   5  10
BRANCH   1  26
ATOM     26  C   UNL     1       7.696   0.715   0.147  0.00  0.00    +0.196 C 
ATOM     27  O   UNL     1       8.016   0.100  -0.854  0.00  0.00    -0.287 OA
BRANCH  26  32
ATOM     28  C   UNL     1       7.948  -1.838   5.299  0.00  0.00    +0.044 C 
ATOM     29  C   UNL     1       7.882  -1.169   3.950  0.00  0.00    -0.050 A 
ATOM     30  C   UNL     1       8.345  -1.834   2.828  0.00  0.00    +0.004 A 
ATOM     31  C   UNL     1       8.287  -1.228   1.590  0.00  0.00    +0.012 A 
ATOM     32  C   UNL     1       7.760   0.059   1.471  0.00  0.00    +0.022 A 
ATOM     33  C   UNL     1       7.300   0.727   2.607  0.00  0.00    +0.012 A 
ATOM     34  C   UNL     1       7.359   0.107   3.838  0.00  0.00    +0.004 A 
ENDBRANCH  26  32
ENDBRANCH   1  26
TORSDOF 8
