REMARK  Name = ZINC39962507
REMARK  6 active torsions:
REMARK  status: ('A' for Active; 'I' for Inactive)
REMARK    1  A    between atoms: C_1  and  O_2
REMARK    2  A    between atoms: O_2  and  C_3
REMARK    3  A    between atoms: C_6  and  C_9
REMARK    4  A    between atoms: C_11  and  C_15
REMARK    5  A    between atoms: C_19  and  S_29
REMARK    6  A    between atoms: N_21  and  C_22
REMARK                            x       y       z     vdW  Elec       q    Type
REMARK                         _______ _______ _______ _____ _____    ______ ____
ROOT
ATOM      1  C   UNL     1      -7.097  -4.886  -1.204  0.00  0.00    +0.188 C 
ATOM      2  N   UNL     1      -6.526  -6.258  -1.230  0.00  0.00    -0.232 NA
ATOM      3  N   UNL     1      -7.469  -6.992  -2.088  0.00  0.00    -0.226 NA
ATOM      4  C   UNL     1      -8.797  -6.442  -1.731  0.00  0.00    +0.214 C 
ATOM      5  N   UNL     1      -8.558  -5.098  -1.170  0.00  0.00    -0.284 N 
ATOM      6  H   UNL     1      -5.599  -6.257  -1.630  0.00  0.00    +0.143 HD
ATOM      7  H   UNL     1      -7.428  -7.984  -1.905  0.00  0.00    +0.143 HD
ENDROOT
BRANCH   5   8
ATOM      8  C   UNL     1      -9.523  -4.203  -0.699  0.00  0.00    +0.051 A 
ATOM      9  C   UNL     1     -10.102  -3.284  -1.564  0.00  0.00    +0.025 A 
ATOM     10  C   UNL     1     -11.055  -2.401  -1.095  0.00  0.00    +0.002 A 
ATOM     11  C   UNL     1     -11.432  -2.431   0.235  0.00  0.00    +0.002 A 
ATOM     12  C   UNL     1     -10.858  -3.344   1.100  0.00  0.00    +0.022 A 
ATOM     13  C   UNL     1      -9.908  -4.234   0.636  0.00  0.00    +0.062 A 
ATOM     14 CL   UNL     1      -9.193  -5.385   1.721  0.00  0.00    -0.082 Cl
ENDBRANCH   5   8
BRANCH   1  17
ATOM     15  C   UNL     1      -4.963  -2.620   0.035  0.00  0.00    +0.091 C 
ATOM     16  C   UNL     1      -5.128  -3.957   0.039  0.00  0.00    +0.034 C 
ATOM     17  C   UNL     1      -6.635  -4.138   0.048  0.00  0.00    +0.189 C 
ATOM     18  N   UNL     1      -7.139  -2.755   0.047  0.00  0.00    -0.176 NA
ATOM     19  N   UNL     1      -6.170  -1.994   0.045  0.00  0.00    -0.154 NA
BRANCH  15  23
ATOM     20  C   UNL     1      -1.200  -0.637   0.010  0.00  0.00    +0.120 A 
ATOM     21  C   UNL     1      -2.374   0.104   0.019  0.00  0.00    +0.046 A 
ATOM     22  C   UNL     1      -3.595  -0.536   0.027  0.00  0.00    +0.013 A 
ATOM     23  C   UNL     1      -3.651  -1.928   0.026  0.00  0.00    +0.002 A 
ATOM     24  C   UNL     1      -2.471  -2.670   0.016  0.00  0.00    +0.013 A 
ATOM     25  C   UNL     1      -1.252  -2.025   0.003  0.00  0.00    +0.046 A 
BRANCH  20  27
ATOM     26  C   UNL     1      -0.017   1.425   0.010  0.00  0.00    +0.277 C 
ATOM     27  O   UNL     1       0.002  -0.004   0.002  0.00  0.00    -0.495 OA
ENDBRANCH  20  27
ENDBRANCH  15  23
ENDBRANCH   1  17
BRANCH   4  28
ATOM     28  S   UNL     1      -9.838  -6.320  -3.211  0.00  0.00    -0.139 S 
ATOM     29  H   UNL     1      -9.950  -7.591  -3.635  0.00  0.00    +0.105 HD
ENDBRANCH   4  28
TORSDOF 5
