REMARK  Name = ZINC06135271
REMARK  12 active torsions:
REMARK  status: ('A' for Active; 'I' for Inactive)
REMARK    1  A    between atoms: C_1  and  C_2
REMARK    2  A    between atoms: C_2  and  C_3
REMARK    3  A    between atoms: C_10  and  C_15
REMARK    4  A    between atoms: C_15  and  C_17
REMARK    5  A    between atoms: C_15  and  N_72
REMARK    6  A    between atoms: N_21  and  C_22
REMARK    7  A    between atoms: C_22  and  C_23
REMARK    8  A    between atoms: C_22  and  C_24
REMARK    9  A    between atoms: C_22  and  C_25
REMARK   10  A    between atoms: N_28  and  C_31
REMARK   11  A    between atoms: C_34  and  O_37
REMARK   12  A    between atoms: O_37  and  C_38
REMARK                            x       y       z     vdW  Elec       q    Type
REMARK                         _______ _______ _______ _____ _____    ______ ____
ROOT
ATOM      1  C   UNL     1       6.245  -0.656  -0.096  0.00  0.00    +0.039 C 
ENDROOT
BRANCH   1   9
ATOM      2  C   UNL     1       0.274   0.886  -0.607  0.00  0.00    -0.047 A 
ATOM      3  C   UNL     1       0.477   2.254  -0.737  0.00  0.00    +0.005 A 
ATOM      4  C   UNL     1       1.750   2.781  -0.717  0.00  0.00    +0.026 A 
ATOM      5  C   UNL     1       2.845   1.936  -0.565  0.00  0.00    +0.049 A 
ATOM      6  C   UNL     1       2.635   0.550  -0.434  0.00  0.00    -0.001 A 
ATOM      7  C   UNL     1       1.334   0.037  -0.457  0.00  0.00    +0.013 A 
ATOM      8  C   UNL     1       3.793  -0.331  -0.274  0.00  0.00    +0.017 A 
ATOM      9  C   UNL     1       5.031   0.223  -0.258  0.00  0.00    +0.011 A 
ATOM     10  C   UNL     1       5.187   1.619  -0.393  0.00  0.00    +0.251 A 
ATOM     11  O   UNL     1       6.308   2.096  -0.377  0.00  0.00    -0.268 OA
ATOM     12  N   UNL     1       4.129   2.436  -0.540  0.00  0.00    -0.322 N 
ATOM     13  H   UNL     1       4.276   3.421  -0.633  0.00  0.00    +0.169 HD
BRANCH   2  15
ATOM     14  C   UNL     1      -1.519  -0.002  -2.072  0.00  0.00    +0.009 C 
ATOM     15  C   UNL     1      -1.128   0.334  -0.631  0.00  0.00    +0.032 C 
ENDBRANCH   2  15
ENDBRANCH   1   9
BRANCH   1  21
ATOM     16  C   UNL     1       6.514  -0.637  -2.502  0.00  0.00    -0.058 C 
ATOM     17  C   UNL     1       7.489  -0.302  -3.633  0.00  0.00    +0.086 C 
ATOM     18  N   UNL     1       8.688  -1.144  -3.507  0.00  0.00    -0.333 N 
ATOM     19  C   UNL     1       9.348  -0.925  -2.213  0.00  0.00    +0.086 C 
ATOM     20  C   UNL     1       8.372  -1.259  -1.083  0.00  0.00    -0.058 C 
ATOM     21  N   UNL     1       7.183  -0.391  -1.208  0.00  0.00    +0.391 N 
ATOM     22  H   UNL     1       7.480   0.591  -1.167  0.00  0.00    -0.080 HD
BRANCH  18  23
ATOM     23  C   UNL     1       9.573  -0.917  -4.567  0.00  0.00    +0.030 A 
ATOM     24  C   UNL     1      10.882  -0.532  -4.309  0.00  0.00    +0.027 A 
ATOM     25  C   UNL     1      11.757  -0.315  -5.355  0.00  0.00    +0.047 A 
ATOM     26  C   UNL     1      11.325  -0.468  -6.664  0.00  0.00    +0.120 A 
ATOM     27  C   UNL     1      10.016  -0.847  -6.923  0.00  0.00    +0.047 A 
ATOM     28  C   UNL     1       9.142  -1.071  -5.878  0.00  0.00    +0.027 A 
BRANCH  26  29
ATOM     29  O   UNL     1      12.185  -0.247  -7.694  0.00  0.00    -0.495 OA
ATOM     30  C   UNL     1      13.518   0.140  -7.354  0.00  0.00    +0.277 C 
ENDBRANCH  26  29
ENDBRANCH  18  23
ENDBRANCH   1  21
BRANCH   1  31
ATOM     31  C   UNL     1       6.928  -0.332   1.208  0.00  0.00    +0.143 A 
ATOM     32  N   UNL     1       7.574   0.770   1.500  0.00  0.00    -0.115 NA
ATOM     33  N   UNL     1       8.013   0.666   2.707  0.00  0.00    -0.023 NA
ATOM     34  N   UNL     1       7.664  -0.474   3.192  0.00  0.00    -0.043 NA
ATOM     35  N   UNL     1       6.988  -1.117   2.300  0.00  0.00    -0.225 N 
BRANCH  35  36
ATOM     36  C   UNL     1       6.401  -2.451   2.447  0.00  0.00    +0.059 C 
ATOM     37  C   UNL     1       7.048  -3.406   1.442  0.00  0.00    +0.036 C 
ATOM     38  C   UNL     1       6.646  -2.963   3.868  0.00  0.00    +0.036 C 
ATOM     39  C   UNL     1       4.896  -2.377   2.184  0.00  0.00    +0.036 C 
ENDBRANCH  35  36
ENDBRANCH   1  31
TORSDOF 7
