REMARK  Name = ZINC12572362
REMARK  3 active torsions:
REMARK  status: ('A' for Active; 'I' for Inactive)
REMARK    1  A    between atoms: N_9  and  S_10
REMARK    2  A    between atoms: S_10  and  C_13
REMARK    3  A    between atoms: C_16  and  N_19
REMARK                            x       y       z     vdW  Elec       q    Type
REMARK                         _______ _______ _______ _____ _____    ______ ____
ROOT
ATOM      1  C   UNL     1       5.547  -0.335   1.657  0.00  0.00    +0.109 A 
ATOM      2  C   UNL     1       5.734   0.933   2.180  0.00  0.00    +0.031 A 
ATOM      3  C   UNL     1       6.155   1.091   3.483  0.00  0.00    +0.029 A 
ATOM      4  C   UNL     1       6.394  -0.037   4.279  0.00  0.00    +0.065 A 
ATOM      5  C   UNL     1       6.202  -1.317   3.741  0.00  0.00    +0.029 A 
ATOM      6  C   UNL     1       5.776  -1.456   2.438  0.00  0.00    +0.031 A 
ENDROOT
BRANCH   4   7
ATOM      7  N   UNL     1       6.810   0.109   5.565  0.00  0.00    -0.242 NA
ATOM      8  C   UNL     1       7.968  -0.378   5.938  0.00  0.00    +0.135 C 
ATOM      9  C   UNL     1       9.013  -0.979   5.080  0.00  0.00    +0.027 A 
ATOM     10  C   UNL     1       9.104  -1.206   3.710  0.00  0.00    +0.012 A 
ATOM     11  C   UNL     1      10.236  -1.801   3.190  0.00  0.00    +0.001 A 
ATOM     12  C   UNL     1      11.274  -2.170   4.028  0.00  0.00    +0.002 A 
ATOM     13  C   UNL     1      11.193  -1.948   5.389  0.00  0.00    +0.024 A 
ATOM     14  C   UNL     1      10.062  -1.350   5.932  0.00  0.00    +0.043 A 
ATOM     15  N   UNL     1       9.733  -1.020   7.243  0.00  0.00    -0.280 N 
ATOM     16  C   UNL     1       8.521  -0.442   7.315  0.00  0.00    +0.267 C 
ATOM     17  O   UNL     1       7.975  -0.046   8.326  0.00  0.00    -0.268 OA
ATOM     18  H   UNL     1      10.306  -1.183   8.008  0.00  0.00    +0.155 HD
ENDBRANCH   4   7
BRANCH   1  19
ATOM     19  S   UNL     1       5.008  -0.525  -0.010  0.00  0.00    +0.075 S 
ATOM     20  O   UNL     1       5.426  -1.817  -0.427  0.00  0.00    -0.150 OA
ATOM     21  O   UNL     1       5.389   0.659  -0.697  0.00  0.00    -0.150 OA
BRANCH  19  30
ATOM     22  C   UNL     1       0.583   2.547  -0.297  0.00  0.00    +0.000 A 
ATOM     23  C   UNL     1       1.921   2.893  -0.348  0.00  0.00    +0.002 A 
ATOM     24  C   UNL     1       2.893   1.920  -0.253  0.00  0.00    +0.025 A 
ATOM     25  C   UNL     1       2.535   0.579  -0.103  0.00  0.00    +0.054 A 
ATOM     26  C   UNL     1       1.191   0.243  -0.053  0.00  0.00    -0.023 A 
ATOM     27  C   UNL     1       0.221   1.221  -0.149  0.00  0.00    +0.005 A 
ATOM     28  C   UNL     1       1.076  -1.256   0.112  0.00  0.00    +0.058 C 
ATOM     29  C   UNL     1       2.531  -1.753   0.151  0.00  0.00    +0.136 C 
ATOM     30  N   UNL     1       3.352  -0.548   0.011  0.00  0.00    -0.202 N 
ENDBRANCH  19  30
ENDBRANCH   1  19
TORSDOF 3
