REMARK  Name = ZINC35755240
REMARK  9 active torsions:
REMARK  status: ('A' for Active; 'I' for Inactive)
REMARK    1  A    between atoms: C_1  and  C_2
REMARK    2  A    between atoms: C_2  and  N_3
REMARK    3  A    between atoms: C_4  and  C_6
REMARK    4  A    between atoms: C_8  and  C_22
REMARK    5  A    between atoms: N_13  and  C_14
REMARK    6  A    between atoms: C_14  and  C_15
REMARK    7  A    between atoms: C_18  and  C_21
REMARK    8  A    between atoms: C_26  and  N_28
REMARK    9  A    between atoms: C_29  and  C_31
REMARK                            x       y       z     vdW  Elec       q    Type
REMARK                         _______ _______ _______ _____ _____    ______ ____
ROOT
ATOM      1  C   UNL     1       1.565  -2.492   3.040  0.00  0.00    +0.210 C 
ATOM      2  C   UNL     1       0.467  -2.458   4.129  0.00  0.00    +0.238 C 
ATOM      3  O   UNL     1      -0.082  -3.788   4.043  0.00  0.00    -0.440 OA
ATOM      4  C   UNL     1       0.874  -4.601   3.563  0.00  0.00    +0.405 C 
ATOM      5  O   UNL     1       0.847  -5.811   3.677  0.00  0.00    -0.226 OA
ATOM      6  N   UNL     1       1.870  -3.933   2.941  0.00  0.00    -0.248 N 
ENDROOT
BRANCH   2   7
ATOM      7  C   UNL     1      -0.579  -1.422   3.807  0.00  0.00    -0.003 A 
ATOM      8  C   UNL     1      -1.634  -1.741   2.972  0.00  0.00    +0.007 A 
ATOM      9  C   UNL     1      -2.595  -0.793   2.675  0.00  0.00    +0.002 A 
ATOM     10  C   UNL     1      -2.505   0.476   3.211  0.00  0.00    +0.023 A 
ATOM     11  C   UNL     1      -1.446   0.800   4.050  0.00  0.00    +0.034 A 
ATOM     12  C   UNL     1      -0.485  -0.156   4.351  0.00  0.00    +0.030 A 
BRANCH  11  13
ATOM     13  N   UNL     1      -1.352   2.085   4.594  0.00  0.00    -0.279 N 
ATOM     14  C   UNL     1      -2.470   2.770   4.902  0.00  0.00    +0.284 C 
ATOM     15  O   UNL     1      -3.559   2.237   4.797  0.00  0.00    -0.266 OA
ATOM     16  H   UNL     1      -0.481   2.483   4.750  0.00  0.00    +0.155 HD
BRANCH  14  17
ATOM     17  C   UNL     1      -2.376   4.159   5.364  0.00  0.00    +0.189 A 
ATOM     18  C   UNL     1      -3.424   4.962   5.712  0.00  0.00    +0.054 A 
ATOM     19  C   UNL     1      -2.877   6.198   6.090  0.00  0.00    +0.042 A 
ATOM     20  C   UNL     1      -1.536   6.097   5.957  0.00  0.00    +0.196 A 
ATOM     21  O   UNL     1      -1.237   4.865   5.524  0.00  0.00    -0.458 OA
ENDBRANCH  14  17
ENDBRANCH  11  13
ENDBRANCH   2   7
BRANCH   1  23
ATOM     22  N   UNL     1       1.001  -0.635   1.506  0.00  0.00    -0.314 N 
ATOM     23  C   UNL     1       1.039  -1.964   1.730  0.00  0.00    +0.238 C 
ATOM     24  O   UNL     1       0.648  -2.734   0.879  0.00  0.00    -0.274 OA
ATOM     25  H   UNL     1       1.313  -0.019   2.187  0.00  0.00    +0.149 HD
BRANCH  22  27
ATOM     26  C   UNL     1       0.555   1.406   0.235  0.00  0.00    +0.024 C 
ATOM     27  C   UNL     1       0.489  -0.122   0.233  0.00  0.00    +0.101 C 
ENDBRANCH  22  27
ENDBRANCH   1  23
BRANCH   6  28
ATOM     28  C   UNL     1       3.040  -4.526   2.288  0.00  0.00    +0.147 C 
BRANCH  28  29
ATOM     29  C   UNL     1       4.159  -4.661   3.288  0.00  0.00    -0.030 A 
ATOM     30  C   UNL     1       5.061  -3.627   3.459  0.00  0.00    +0.005 A 
ATOM     31  C   UNL     1       6.088  -3.751   4.377  0.00  0.00    +0.003 A 
ATOM     32  C   UNL     1       6.213  -4.909   5.122  0.00  0.00    -0.050 A 
ATOM     33  C   UNL     1       5.310  -5.942   4.951  0.00  0.00    +0.003 A 
ATOM     34  C   UNL     1       4.281  -5.816   4.037  0.00  0.00    +0.005 A 
ATOM     35  C   UNL     1       7.333  -5.044   6.121  0.00  0.00    +0.044 C 
ENDBRANCH  28  29
ENDBRANCH   6  28
TORSDOF 7
