REMARK  Name = ZINC23648551
REMARK  13 active torsions:
REMARK  status: ('A' for Active; 'I' for Inactive)
REMARK    1  A    between atoms: C_1  and  C_2
REMARK    2  A    between atoms: C_2  and  C_3
REMARK    3  A    between atoms: C_3  and  C_5
REMARK    4  A    between atoms: C_3  and  C_6
REMARK    5  A    between atoms: C_11  and  N_12
REMARK    6  A    between atoms: C_13  and  C_15
REMARK    7  A    between atoms: C_15  and  C_17
REMARK    8  A    between atoms: C_15  and  S_18
REMARK    9  A    between atoms: S_18  and  C_19
REMARK   10  A    between atoms: C_22  and  C_25
REMARK   11  A    between atoms: N_23  and  N_24
REMARK   12  A    between atoms: C_28  and  O_31
REMARK   13  A    between atoms: O_31  and  C_32
REMARK                            x       y       z     vdW  Elec       q    Type
REMARK                         _______ _______ _______ _____ _____    ______ ____
ROOT
ATOM      1  C   UNL     1      -2.567  -0.084   7.165  0.00  0.00    +0.209 A 
ATOM      2  N   UNL     1      -3.142   1.073   6.927  0.00  0.00    -0.121 NA
ATOM      3  N   UNL     1      -3.583   1.581   8.023  0.00  0.00    -0.127 NA
ATOM      4  C   UNL     1      -3.316   0.779   9.027  0.00  0.00    +0.182 A 
ATOM      5  N   UNL     1      -2.663  -0.315   8.508  0.00  0.00    -0.224 N 
ENDROOT
BRANCH   4   6
ATOM      6  C   UNL     1      -3.659   1.005  10.447  0.00  0.00    +0.021 A 
ATOM      7  C   UNL     1      -3.058   0.235  11.444  0.00  0.00    +0.015 A 
ATOM      8  C   UNL     1      -3.378   0.452  12.767  0.00  0.00    +0.046 A 
ATOM      9  C   UNL     1      -4.304   1.429  13.108  0.00  0.00    +0.127 A 
ATOM     10  C   UNL     1      -4.908   2.194  12.120  0.00  0.00    +0.046 A 
ATOM     11  C   UNL     1      -4.590   1.986  10.794  0.00  0.00    +0.015 A 
BRANCH   9  12
ATOM     12  O   UNL     1      -4.620   1.637  14.414  0.00  0.00    -0.434 OA
BRANCH  12  13
ATOM     13  C   UNL     1      -3.962   0.815  15.379  0.00  0.00    +0.541 C 
ATOM     14  F   UNL     1      -4.260  -0.529  15.129  0.00  0.00    -0.166 F 
ATOM     15  F   UNL     1      -2.579   1.009  15.292  0.00  0.00    -0.166 F 
ENDBRANCH  12  13
ENDBRANCH   9  12
ENDBRANCH   4   6
BRANCH   5  16
ATOM     16  N   UNL     1      -2.202  -1.403   9.194  0.00  0.00    -0.295 N 
ATOM     17  H   UNL     1      -2.344  -1.468  10.283  0.00  0.00    +0.163 HD
ATOM     18  H   UNL     1      -1.690  -2.215   8.657  0.00  0.00    +0.163 HD
ENDBRANCH   5  16
BRANCH   1  19
ATOM     19  S   UNL     1      -1.820  -1.145   5.973  0.00  0.00    -0.072 S 
BRANCH  19  20
ATOM     20  C   UNL     1      -2.098  -0.174   4.471  0.00  0.00    +0.137 C 
ATOM     21  C   UNL     1      -3.600  -0.075   4.198  0.00  0.00    +0.029 C 
BRANCH  20  23
ATOM     22  N   UNL     1      -1.044  -0.120   2.233  0.00  0.00    -0.284 N 
ATOM     23  C   UNL     1      -1.419  -0.846   3.306  0.00  0.00    +0.230 C 
ATOM     24  O   UNL     1      -1.208  -2.040   3.333  0.00  0.00    -0.274 OA
ATOM     25  H   UNL     1      -1.151   0.975   2.246  0.00  0.00    +0.155 HD
BRANCH  22  31
ATOM     26  C   UNL     1       0.468  -0.140   0.350  0.00  0.00    -0.023 A 
ATOM     27  C   UNL     1       0.979  -0.771  -0.767  0.00  0.00    +0.006 A 
ATOM     28  C   UNL     1       0.517  -2.023  -1.128  0.00  0.00    +0.000 A 
ATOM     29  C   UNL     1      -0.467  -2.642  -0.379  0.00  0.00    +0.002 A 
ATOM     30  C   UNL     1      -0.987  -2.014   0.735  0.00  0.00    +0.023 A 
ATOM     31  C   UNL     1      -0.520  -0.759   1.104  0.00  0.00    +0.037 A 
BRANCH  26  32
ATOM     32  C   UNL     1       0.977   1.222   0.747  0.00  0.00    +0.017 C 
ATOM     33  C   UNL     1       2.450   1.119   1.147  0.00  0.00    +0.012 C 
BRANCH  32  35
ATOM     34  C   UNL     1       1.235   3.594   0.004  0.00  0.00    +0.004 C 
ATOM     35  C   UNL     1       0.835   2.184  -0.435  0.00  0.00    +0.004 C 
ENDBRANCH  32  35
ENDBRANCH  26  32
ENDBRANCH  22  31
ENDBRANCH  20  23
ENDBRANCH  19  20
ENDBRANCH   1  19
TORSDOF 10
