REMARK  Name = ZINC39770020
REMARK  4 active torsions:
REMARK  status: ('A' for Active; 'I' for Inactive)
REMARK    1  A    between atoms: C_3  and  C_6
REMARK    2  A    between atoms: N_7  and  N_8
REMARK    3  A    between atoms: C_9  and  C_11
REMARK    4  A    between atoms: C_14  and  C_17
REMARK                            x       y       z     vdW  Elec       q    Type
REMARK                         _______ _______ _______ _____ _____    ______ ____
ROOT
ATOM      1  C   UNL     1       7.738  -1.778  -0.083  0.00  0.00    +0.240 C 
ATOM      2  C   UNL     1       8.265  -1.597  -1.496  0.00  0.00    +0.036 C 
ATOM      3  C   UNL     1       8.925  -2.731  -1.741  0.00  0.00    +0.068 C 
ATOM      4  N   UNL     1       8.865  -3.561  -0.675  0.00  0.00    -0.158 NA
ATOM      5  N   UNL     1       8.230  -3.115   0.289  0.00  0.00    -0.170 NA
ENDROOT
BRANCH   3   6
ATOM      6  C   UNL     1       9.640  -3.044  -3.030  0.00  0.00    +0.015 C 
ATOM      7  C   UNL     1       9.033  -4.301  -3.657  0.00  0.00    +0.016 C 
ATOM      8  C   UNL     1       9.759  -4.619  -4.966  0.00  0.00    -0.010 C 
ATOM      9  C   UNL     1      11.243  -4.856  -4.682  0.00  0.00    +0.007 C 
ATOM     10  C   UNL     1      11.850  -3.599  -4.054  0.00  0.00    -0.010 C 
ATOM     11  C   UNL     1      11.124  -3.281  -2.745  0.00  0.00    +0.016 C 
ATOM     12  C   UNL     1      11.697  -2.423  -5.021  0.00  0.00    +0.007 C 
ATOM     13  C   UNL     1      10.213  -2.185  -5.305  0.00  0.00    -0.010 C 
ATOM     14  C   UNL     1       9.606  -3.442  -5.932  0.00  0.00    +0.007 C 
ATOM     15  C   UNL     1       9.487  -1.868  -3.996  0.00  0.00    +0.016 C 
ENDBRANCH   3   6
BRANCH   1  17
ATOM     16  N   UNL     1       5.586  -0.558  -0.056  0.00  0.00    -0.205 N 
ATOM     17  C   UNL     1       6.232  -1.742  -0.068  0.00  0.00    +0.263 C 
ATOM     18  O   UNL     1       5.600  -2.777  -0.067  0.00  0.00    -0.271 OA
ATOM     19  H   UNL     1       6.091   0.270  -0.057  0.00  0.00    +0.177 HD
BRANCH  16  21
ATOM     20  C   UNL     1       3.563   0.617  -0.029  0.00  0.00    +0.176 C 
ATOM     21  N   UNL     1       4.186  -0.524  -0.041  0.00  0.00    -0.185 NA
BRANCH  20  24
ATOM     22  C   UNL     1      -0.016   1.345   0.009  0.00  0.00    +0.042 A 
ATOM     23  C   UNL     1       1.323   1.776  -0.001  0.00  0.00    +0.051 A 
ATOM     24  C   UNL     1       2.098   0.653  -0.015  0.00  0.00    +0.147 A 
ATOM     25  O   UNL     1       1.279  -0.418  -0.012  0.00  0.00    -0.462 OA
ATOM     26  C   UNL     1       0.002  -0.004   0.002  0.00  0.00    +0.196 A 
ENDBRANCH  20  24
ENDBRANCH  16  21
ENDBRANCH   1  17
TORSDOF 4
