REMARK  Name = ZINC44714294
REMARK  7 active torsions:
REMARK  status: ('A' for Active; 'I' for Inactive)
REMARK    1  A    between atoms: C_1  and  C_2
REMARK    2  A    between atoms: C_3  and  C_9
REMARK    3  A    between atoms: C_4  and  C_8
REMARK    4  A    between atoms: C_9  and  C_11
REMARK    5  A    between atoms: C_9  and  N_12
REMARK    6  A    between atoms: C_13  and  C_15
REMARK    7  A    between atoms: C_26  and  C_28
REMARK                            x       y       z     vdW  Elec       q    Type
REMARK                         _______ _______ _______ _____ _____    ______ ____
ROOT
ATOM      1  C   UNL     1       2.517  -1.344  -5.204  0.00  0.00    +0.100 C 
ATOM      2  C   UNL     1       1.929  -2.697  -5.665  0.00  0.00    +0.121 C 
ATOM      3  N   UNL     1       1.415  -2.436  -7.030  0.00  0.00    -0.295 N 
ATOM      4  C   UNL     1       2.430  -1.547  -7.643  0.00  0.00    +0.115 C 
ATOM      5  C   UNL     1       2.848  -0.594  -6.505  0.00  0.00    -0.004 C 
ATOM      6  C   UNL     1       4.344  -0.304  -6.583  0.00  0.00    -0.010 C 
ATOM      7  C   UNL     1       4.640   0.493  -7.856  0.00  0.00    -0.082 C 
ATOM      8  N   UNL     1       3.878   1.748  -7.838  0.00  0.00    +0.379 N 
ATOM      9  C   UNL     1       2.439   1.460  -7.858  0.00  0.00    -0.082 C 
ATOM     10  C   UNL     1       2.050   0.704  -6.585  0.00  0.00    -0.010 C 
ATOM     11  C   UNL     1       0.280  -2.902  -7.588  0.00  0.00    +0.265 C 
ATOM     12  O   UNL     1      -0.506  -3.546  -6.920  0.00  0.00    -0.268 OA
ATOM     13  H   UNL     1       4.104   2.266  -7.002  0.00  0.00    -0.086 HD
ATOM     14  H   UNL     1       4.121   2.299  -8.648  0.00  0.00    -0.086 HD
ENDROOT
BRANCH  11  15
ATOM     15  C   UNL     1      -0.010  -2.630  -9.016  0.00  0.00    +0.126 A 
ATOM     16  C   UNL     1      -1.247  -3.020  -9.550  0.00  0.00    +0.033 A 
ATOM     17  C   UNL     1      -1.527  -2.775 -10.864  0.00  0.00    +0.012 A 
ATOM     18  C   UNL     1      -0.548  -2.130 -11.644  0.00  0.00    +0.000 A 
ATOM     19  C   UNL     1      -0.769  -1.847 -13.002  0.00  0.00    +0.010 A 
ATOM     20  C   UNL     1       0.200  -1.222 -13.725  0.00  0.00    +0.001 A 
ATOM     21  C   UNL     1       1.411  -0.858 -13.137  0.00  0.00    +0.002 A 
ATOM     22  C   UNL     1       1.660  -1.117 -11.825  0.00  0.00    +0.028 A 
ATOM     23  C   UNL     1       0.683  -1.762 -11.043  0.00  0.00    +0.072 A 
ATOM     24  N   UNL     1       0.899  -2.022  -9.753  0.00  0.00    -0.242 NA
ENDBRANCH  11  15
BRANCH   1  26
ATOM     25  N   UNL     1       1.905   0.262  -3.425  0.00  0.00    -0.308 N 
ATOM     26  C   UNL     1       1.500  -0.576  -4.400  0.00  0.00    +0.219 C 
ATOM     27  O   UNL     1       0.317  -0.712  -4.630  0.00  0.00    -0.275 OA
ATOM     28  H   UNL     1       2.852   0.371  -3.242  0.00  0.00    +0.149 HD
BRANCH  25  29
ATOM     29  C   UNL     1       0.917   1.009  -2.643  0.00  0.00    +0.104 C 
ATOM     30  C   UNL     1       0.419   0.139  -1.487  0.00  0.00    +0.033 C 
BRANCH  29  33
ATOM     31  C   UNL     1      -0.342   3.873  -2.661  0.00  0.00    +0.065 C 
ATOM     32  C   UNL     1       1.007   3.499  -2.102  0.00  0.00    +0.038 A 
ATOM     33  C   UNL     1       1.552   2.260  -2.094  0.00  0.00    +0.015 A 
ATOM     34  C   UNL     1       2.808   2.346  -1.486  0.00  0.00    +0.065 A 
ATOM     35  N   UNL     1       3.010   3.592  -1.141  0.00  0.00    -0.179 NA
ATOM     36  N   UNL     1       1.890   4.340  -1.524  0.00  0.00    -0.281 N 
ATOM     37  H   UNL     1       1.768   5.294  -1.395  0.00  0.00    +0.189 HD
ATOM     38  C   UNL     1       3.764   1.202  -1.266  0.00  0.00    +0.068 C 
ENDBRANCH  29  33
ENDBRANCH  25  29
ENDBRANCH   1  26
TORSDOF 4
