REMARK  Name = ZINC63439617
REMARK  6 active torsions:
REMARK  status: ('A' for Active; 'I' for Inactive)
REMARK    1  A    between atoms: C_1  and  C_2
REMARK    2  A    between atoms: C_2  and  C_3
REMARK    3  A    between atoms: C_2  and  C_4
REMARK    4  A    between atoms: C_2  and  N_5
REMARK    5  A    between atoms: C_7  and  C_10
REMARK    6  A    between atoms: C_15  and  C_17
REMARK                            x       y       z     vdW  Elec       q    Type
REMARK                         _______ _______ _______ _____ _____    ______ ____
ROOT
ATOM      1  C   UNL     1       3.548  -1.167  -3.313  0.00  0.00    +0.046 C 
ATOM      2  C   UNL     1       3.623  -1.715  -4.578  0.00  0.00    +0.152 C 
ATOM      3  C   UNL     1       4.838  -1.969  -5.369  0.00  0.00    +0.364 C 
ATOM      4  O   UNL     1       5.989  -1.740  -5.048  0.00  0.00    -0.243 OA
ATOM      5  O   UNL     1       4.402  -2.510  -6.527  0.00  0.00    -0.402 OA
ATOM      6  C   UNL     1       3.058  -2.595  -6.484  0.00  0.00    +0.232 C 
ATOM      7  N   UNL     1       2.586  -2.143  -5.356  0.00  0.00    -0.205 NA
ENDROOT
BRANCH   6   8
ATOM      8  C   UNL     1       2.225  -3.138  -7.576  0.00  0.00    +0.042 A 
ATOM      9  C   UNL     1       0.835  -3.179  -7.443  0.00  0.00    +0.051 A 
ATOM     10  C   UNL     1       0.061  -3.688  -8.467  0.00  0.00    +0.127 A 
ATOM     11  C   UNL     1       0.660  -4.157  -9.625  0.00  0.00    +0.076 A 
ATOM     12  C   UNL     1       2.038  -4.119  -9.763  0.00  0.00    +0.127 A 
ATOM     13  C   UNL     1       2.822  -3.606  -8.747  0.00  0.00    +0.051 A 
ATOM     14  F   UNL     1       2.616  -4.579 -10.894  0.00  0.00    -0.205 F 
ATOM     15  F   UNL     1      -1.284  -3.729  -8.340  0.00  0.00    -0.205 F 
ENDBRANCH   6   8
BRANCH   1  18
ATOM     16  N   UNL     1       0.688  -0.476  -1.203  0.00  0.00    -0.266 N 
ATOM     17  C   UNL     1       2.015  -0.457  -1.409  0.00  0.00    +0.117 A 
ATOM     18  C   UNL     1       2.246  -0.991  -2.667  0.00  0.00    +0.015 A 
ATOM     19  C   UNL     1       0.983  -1.333  -3.210  0.00  0.00    +0.142 A 
ATOM     20  N   UNL     1       0.070  -1.029  -2.331  0.00  0.00    -0.179 NA
BRANCH  16  22
ATOM     21  C   UNL     1      -0.019   1.526   0.010  0.00  0.00    +0.036 C 
ATOM     22  C   UNL     1       0.002  -0.004   0.002  0.00  0.00    +0.055 C 
ATOM     23  C   UNL     1       0.742  -0.511   1.242  0.00  0.00    +0.036 C 
ATOM     24  C   UNL     1      -1.433  -0.534   0.013  0.00  0.00    +0.036 C 
ENDBRANCH  16  22
ENDBRANCH   1  18
TORSDOF 3
