REMARK  Name = ZINC04603961
REMARK  6 active torsions:
REMARK  status: ('A' for Active; 'I' for Inactive)
REMARK    1  A    between atoms: C_1  and  C_2
REMARK    2  A    between atoms: C_2  and  C_3
REMARK    3  A    between atoms: C_10  and  C_14
REMARK    4  A    between atoms: C_10  and  O_18
REMARK    5  A    between atoms: C_19  and  C_21
REMARK    6  A    between atoms: C_24  and  C_26
REMARK                            x       y       z     vdW  Elec       q    Type
REMARK                         _______ _______ _______ _____ _____    ______ ____
ROOT
ATOM      1  C   UNL     1      -1.284  -6.930   0.619  0.00  0.00    -0.010 C 
ATOM      2  C   UNL     1       0.204  -6.716   0.887  0.00  0.00    +0.009 C 
ATOM      3  C   UNL     1       0.795  -5.749  -0.151  0.00  0.00    +0.053 C 
ATOM      4  C   UNL     1      -0.094  -4.523  -0.158  0.00  0.00    +0.045 C 
ATOM      5  N   UNL     1       0.228  -3.314   0.004  0.00  0.00    -0.183 NA
ATOM      6  N   UNL     1      -0.853  -2.437   0.100  0.00  0.00    -0.145 N 
ATOM      7  C   UNL     1      -2.102  -3.215   0.004  0.00  0.00    +0.260 C 
ATOM      8  C   UNL     1      -1.605  -4.638  -0.287  0.00  0.00    +0.097 C 
ATOM      9  C   UNL     1      -2.068  -5.625   0.788  0.00  0.00    +0.018 C 
ATOM     10  C   UNL     1      -0.770  -1.100   0.249  0.00  0.00    +0.304 C 
ATOM     11  O   UNL     1      -1.785  -0.430   0.316  0.00  0.00    -0.265 OA
ENDROOT
BRANCH  10  12
ATOM     12  C   UNL     1       0.542  -0.451   0.331  0.00  0.00    +0.191 A 
ATOM     13  C   UNL     1       0.768   0.887   0.481  0.00  0.00    +0.055 A 
ATOM     14  C   UNL     1       2.161   1.060   0.510  0.00  0.00    +0.045 A 
ATOM     15  C   UNL     1       2.717  -0.164   0.378  0.00  0.00    +0.103 A 
ATOM     16  O   UNL     1       1.739  -1.072   0.270  0.00  0.00    -0.455 OA
ATOM     17  C   UNL     1       4.195  -0.459   0.356  0.00  0.00    +0.086 C 
ENDBRANCH  10  12
BRANCH   7  18
ATOM     18  C   UNL     1      -2.869  -3.170   1.327  0.00  0.00    +0.438 C 
ATOM     19  F   UNL     1      -3.323  -1.867   1.559  0.00  0.00    -0.166 F 
ATOM     20  F   UNL     1      -3.962  -4.041   1.262  0.00  0.00    -0.166 F 
ATOM     21  F   UNL     1      -2.023  -3.562   2.370  0.00  0.00    -0.166 F 
ENDBRANCH   7  18
BRANCH   1  23
ATOM     22  C   UNL     1      -0.825  -8.827  -0.942  0.00  0.00    +0.004 C 
ATOM     23  C   UNL     1      -1.467  -7.444  -0.811  0.00  0.00    +0.000 C 
ENDBRANCH   1  23
BRANCH   7  24
ATOM     24  O   UNL     1      -2.914  -2.735  -1.069  0.00  0.00    -0.363 OA
ATOM     25  H   UNL     1      -3.194  -1.815  -0.970  0.00  0.00    +0.212 HD
ENDBRANCH   7  24
TORSDOF 4
