REMARK  Name = ZINC15067438
REMARK  9 active torsions:
REMARK  status: ('A' for Active; 'I' for Inactive)
REMARK    1  A    between atoms: C_1  and  C_2
REMARK    2  A    between atoms: C_2  and  C_4
REMARK    3  A    between atoms: C_2  and  N_28
REMARK    4  A    between atoms: C_7  and  S_16
REMARK    5  A    between atoms: N_8  and  C_9
REMARK    6  A    between atoms: S_16  and  C_17
REMARK    7  A    between atoms: C_17  and  C_18
REMARK    8  A    between atoms: C_22  and  C_24
REMARK    9  A    between atoms: C_29  and  C_31
REMARK                            x       y       z     vdW  Elec       q    Type
REMARK                         _______ _______ _______ _____ _____    ______ ____
ROOT
ATOM      1  C   UNL     1      -0.147   9.862  -1.624  0.00  0.00    +0.159 A 
ATOM      2  N   UNL     1      -0.131   9.562  -0.356  0.00  0.00    -0.131 NA
ATOM      3  N   UNL     1      -0.112   8.286  -0.203  0.00  0.00    -0.122 NA
ATOM      4  C   UNL     1      -0.116   7.695  -1.375  0.00  0.00    +0.196 A 
ATOM      5  N   UNL     1      -0.133   8.683  -2.321  0.00  0.00    -0.273 N 
ENDROOT
BRANCH   5   6
ATOM      6  C   UNL     1      -0.137   8.522  -3.715  0.00  0.00    +0.052 A 
ATOM      7  C   UNL     1       0.941   8.966  -4.469  0.00  0.00    +0.026 A 
ATOM      8  C   UNL     1       0.937   8.803  -5.840  0.00  0.00    +0.003 A 
ATOM      9  C   UNL     1      -0.144   8.207  -6.464  0.00  0.00    +0.020 A 
ATOM     10  C   UNL     1      -1.222   7.769  -5.716  0.00  0.00    +0.043 A 
ATOM     11  C   UNL     1      -1.221   7.925  -4.342  0.00  0.00    +0.046 A 
ATOM     12 CL   UNL     1      -2.578   7.022  -6.503  0.00  0.00    -0.083 Cl
ENDBRANCH   5   6
BRANCH   1  14
ATOM     13  C   UNL     1      -1.572  11.845  -2.056  0.00  0.00    +0.036 C 
ATOM     14  C   UNL     1      -0.172  11.248  -2.214  0.00  0.00    +0.139 C 
BRANCH  14  15
ATOM     15  N   UNL     1       0.800  12.093  -1.516  0.00  0.00    -0.302 N 
ATOM     16  C   UNL     1       1.329  13.167  -2.136  0.00  0.00    +0.248 C 
ATOM     17  O   UNL     1       0.998  13.434  -3.276  0.00  0.00    -0.270 OA
ATOM     18  H   UNL     1       1.064  11.880  -0.607  0.00  0.00    +0.150 HD
BRANCH  16  19
ATOM     19  C   UNL     1       2.307  14.017  -1.434  0.00  0.00    +0.074 A 
ATOM     20  C   UNL     1       2.982  15.213  -1.958  0.00  0.00    +0.054 A 
ATOM     21  C   UNL     1       3.775  15.652  -0.968  0.00  0.00    +0.195 A 
ATOM     22  O   UNL     1       3.649  14.836   0.090  0.00  0.00    -0.470 OA
ATOM     23  C   UNL     1       2.779  13.854  -0.165  0.00  0.00    +0.207 A 
ENDBRANCH  16  19
ENDBRANCH  14  15
ENDBRANCH   1  14
BRANCH   4  24
ATOM     24  S   UNL     1      -0.095   5.958  -1.674  0.00  0.00    -0.081 S 
BRANCH  24  25
ATOM     25  C   UNL     1      -0.070   5.347   0.030  0.00  0.00    +0.112 C 
BRANCH  25  26
ATOM     26  C   UNL     1      -0.050   3.840   0.022  0.00  0.00    -0.037 A 
ATOM     27  C   UNL     1       1.157   3.165   0.008  0.00  0.00    +0.004 A 
ATOM     28  C   UNL     1       1.175   1.783   0.000  0.00  0.00    +0.001 A 
ATOM     29  C   UNL     1      -0.013   1.076   0.008  0.00  0.00    +0.012 A 
ATOM     30  C   UNL     1      -1.219   1.750   0.017  0.00  0.00    +0.055 A 
ATOM     31  C   UNL     1      -1.238   3.133   0.030  0.00  0.00    +0.016 A 
BRANCH  30  32
ATOM     32  C   UNL     1      -2.514   0.979   0.019  0.00  0.00    +0.417 C 
ATOM     33  F   UNL     1      -2.239  -0.392   0.010  0.00  0.00    -0.166 F 
ATOM     34  F   UNL     1      -3.246   1.301   1.167  0.00  0.00    -0.166 F 
ATOM     35  F   UNL     1      -3.257   1.314  -1.118  0.00  0.00    -0.166 F 
ENDBRANCH  30  32
ENDBRANCH  25  26
ENDBRANCH  24  25
ENDBRANCH   4  24
TORSDOF 8
