REMARK  Name = ZINC25767375
REMARK  1 active torsions:
REMARK  status: ('A' for Active; 'I' for Inactive)
REMARK    1  A    between atoms: C_6  and  C_7
REMARK                            x       y       z     vdW  Elec       q    Type
REMARK                         _______ _______ _______ _____ _____    ______ ____
ROOT
ATOM      1  C   UNL     1       2.378   1.466  -0.017  0.00  0.00    +0.014 A 
ATOM      2  C   UNL     1       1.166   2.121   0.002  0.00  0.00    +0.017 A 
ATOM      3  C   UNL     1      -0.017   1.395   0.010  0.00  0.00    +0.030 A 
ATOM      4  C   UNL     1       0.002  -0.004   0.002  0.00  0.00    +0.048 A 
ATOM      5  C   UNL     1       1.221  -0.662  -0.019  0.00  0.00    +0.037 A 
ATOM      6  C   UNL     1       2.412   0.069  -0.029  0.00  0.00    +0.039 A 
ATOM      7  N   UNL     1      -1.175  -0.748   0.021  0.00  0.00    -0.284 N 
ATOM      8  C   UNL     1      -2.379  -0.325  -0.355  0.00  0.00    +0.227 C 
ATOM      9  O   UNL     1      -3.307  -1.104  -0.288  0.00  0.00    -0.275 OA
ATOM     10  C   UNL     1      -2.654   1.066  -0.858  0.00  0.00    +0.170 C 
ATOM     11  S   UNL     1      -1.572   2.232   0.022  0.00  0.00    -0.114 S 
ATOM     12  H   UNL     1      -1.162  -1.791   0.371  0.00  0.00    +0.155 HD
ENDROOT
BRANCH   6  13
ATOM     13  C   UNL     1       3.707  -0.635  -0.051  0.00  0.00    +0.250 C 
ATOM     14  O   UNL     1       3.738  -1.851  -0.062  0.00  0.00    -0.270 OA
ATOM     15  N   UNL     1       4.857   0.068  -0.061  0.00  0.00    -0.261 N 
ATOM     16  C   UNL     1       6.077  -0.596  -0.082  0.00  0.00    +0.165 A 
ATOM     17  N   UNL     1       6.314  -1.887  -0.090  0.00  0.00    -0.229 NA
ATOM     18  C   UNL     1       7.559  -2.386  -0.116  0.00  0.00    +0.054 A 
ATOM     19  C   UNL     1       8.561  -1.476  -0.123  0.00  0.00    +0.014 A 
ATOM     20  S   UNL     1       7.681   0.068  -0.098  0.00  0.00    -0.057 S 
ATOM     21  C   UNL     1       9.913  -2.121  -0.149  0.00  0.00    +0.045 C 
ATOM     22  C   UNL     1       9.642  -3.576  -0.593  0.00  0.00    +0.011 C 
ATOM     23  C   UNL     1       8.185  -3.781  -0.134  0.00  0.00    +0.056 C 
ATOM     24  H   UNL     1       4.829   1.167  -0.051  0.00  0.00    +0.157 HD
ENDBRANCH   6  13
TORSDOF 1
