REMARK  Name = ZINC66264640
REMARK  5 active torsions:
REMARK  status: ('A' for Active; 'I' for Inactive)
REMARK    1  A    between atoms: C_1  and  N_2
REMARK    2  A    between atoms: C_4  and  C_7
REMARK    3  A    between atoms: C_9  and  C_12
REMARK    4  A    between atoms: C_12  and  N_13
REMARK    5  A    between atoms: C_18  and  C_20
REMARK                            x       y       z     vdW  Elec       q    Type
REMARK                         _______ _______ _______ _____ _____    ______ ____
ROOT
ATOM      1  N   UNL     1       1.459  -7.385  -1.444  0.00  0.00    -0.223 N 
ATOM      2  C   UNL     1       1.969  -7.256  -0.205  0.00  0.00    +0.268 A 
ATOM      3  O   UNL     1       1.286  -6.795   0.695  0.00  0.00    -0.266 OA
ATOM      4  C   UNL     1       3.299  -7.659   0.046  0.00  0.00    +0.074 A 
ATOM      5  C   UNL     1       4.019  -8.169  -0.994  0.00  0.00    +0.035 A 
ATOM      6  C   UNL     1       3.392  -8.263  -2.259  0.00  0.00    +0.094 A 
ATOM      7  N   UNL     1       2.149  -7.871  -2.412  0.00  0.00    -0.168 NA
ENDROOT
BRANCH   6   8
ATOM      8  C   UNL     1       4.141  -8.812  -3.416  0.00  0.00    +0.037 A 
ATOM      9  C   UNL     1       5.458  -9.240  -3.257  0.00  0.00    +0.013 A 
ATOM     10  C   UNL     1       6.150  -9.750  -4.336  0.00  0.00    +0.001 A 
ATOM     11  C   UNL     1       5.541  -9.837  -5.575  0.00  0.00    +0.003 A 
ATOM     12  C   UNL     1       4.235  -9.415  -5.741  0.00  0.00    +0.039 A 
ATOM     13  C   UNL     1       3.529  -8.907  -4.666  0.00  0.00    +0.133 A 
ATOM     14  F   UNL     1       2.251  -8.499  -4.827  0.00  0.00    -0.205 F 
ENDBRANCH   6   8
BRANCH   1  15
ATOM     15  C   UNL     1       0.079  -6.963  -1.695  0.00  0.00    +0.203 C 
BRANCH  15  18
ATOM     16  C   UNL     1       0.040  -3.288  -1.538  0.00  0.00    +0.112 A 
ATOM     17  N   UNL     1       0.053  -4.569  -1.198  0.00  0.00    -0.242 NA
ATOM     18  C   UNL     1       0.063  -5.515  -2.110  0.00  0.00    +0.071 A 
ATOM     19  C   UNL     1       0.059  -5.186  -3.428  0.00  0.00    +0.072 A 
ATOM     20  S   UNL     1       0.033  -3.401  -3.322  0.00  0.00    -0.075 S 
BRANCH  16  24
ATOM     21  C   UNL     1      -0.018   1.461   0.010  0.00  0.00    +0.172 C 
ATOM     22  N   UNL     1       0.002  -0.004   0.002  0.00  0.00    -0.274 N 
ATOM     23  C   UNL     1       0.008  -0.787  -1.094  0.00  0.00    +0.118 A 
ATOM     24  C   UNL     1       0.027  -2.087  -0.673  0.00  0.00    +0.045 A 
ATOM     25  C   UNL     1       0.034  -2.075   0.738  0.00  0.00    +0.145 A 
ATOM     26  N   UNL     1       0.025  -0.830   1.132  0.00  0.00    -0.179 NA
ENDBRANCH  16  24
ENDBRANCH  15  18
ENDBRANCH   1  15
TORSDOF 4
