REMARK  Name = ZINC04036139
REMARK  8 active torsions:
REMARK  status: ('A' for Active; 'I' for Inactive)
REMARK    1  A    between atoms: C_1  and  O_2
REMARK    2  A    between atoms: O_2  and  C_3
REMARK    3  A    between atoms: C_5  and  C_13
REMARK    4  A    between atoms: C_7  and  O_11
REMARK    5  A    between atoms: C_8  and  O_9
REMARK    6  A    between atoms: O_9  and  C_10
REMARK    7  A    between atoms: O_11  and  C_12
REMARK    8  A    between atoms: C_18  and  C_28
REMARK                            x       y       z     vdW  Elec       q    Type
REMARK                         _______ _______ _______ _____ _____    ______ ____
ROOT
ATOM      1  C   UNL     1       0.644   6.250  -0.044  0.00  0.00    +0.032 C 
ATOM      2  C   UNL     1      -0.567   6.975  -0.628  0.00  0.00    +0.059 C 
ATOM      3  C   UNL     1      -0.138   7.843  -1.800  0.00  0.00    +0.017 C 
ATOM      4  C   UNL     1       1.081   8.405  -1.819  0.00  0.00    +0.036 C 
ATOM      5  C   UNL     1       1.637   9.280  -2.918  0.00  0.00    +0.136 C 
ATOM      6  N   UNL     1       0.656   9.714  -3.889  0.00  0.00    -0.331 N 
ATOM      7  C   UNL     1       0.007   8.796  -4.711  0.00  0.00    +0.049 A 
ATOM      8  C   UNL     1       0.206   8.790  -6.083  0.00  0.00    +0.025 A 
ATOM      9  C   UNL     1      -0.421   7.830  -6.858  0.00  0.00    +0.002 A 
ATOM     10  C   UNL     1      -1.238   6.880  -6.272  0.00  0.00    +0.002 A 
ATOM     11  C   UNL     1      -1.453   6.894  -4.904  0.00  0.00    +0.025 A 
ATOM     12  C   UNL     1      -0.846   7.868  -4.133  0.00  0.00    +0.052 A 
ATOM     13  N   UNL     1      -1.081   7.991  -2.766  0.00  0.00    -0.316 N 
ATOM     14  C   UNL     1       1.983   8.190  -0.750  0.00  0.00    +0.163 C 
ATOM     15  O   UNL     1       3.069   8.735  -0.780  0.00  0.00    -0.292 OA
ATOM     16  C   UNL     1       1.646   7.314   0.419  0.00  0.00    +0.088 C 
ATOM     17  H   UNL     1       0.413  10.782  -3.986  0.00  0.00    +0.147 HD
ATOM     18  H   UNL     1      -2.119   8.227  -2.490  0.00  0.00    +0.152 HD
ENDROOT
BRANCH   5  19
ATOM     19  C   UNL     1       2.717   8.514  -3.638  0.00  0.00    -0.020 A 
ATOM     20  C   UNL     1       4.023   8.969  -3.609  0.00  0.00    +0.006 A 
ATOM     21  C   UNL     1       5.014   8.268  -4.269  0.00  0.00    +0.003 A 
ATOM     22  C   UNL     1       4.702   7.112  -4.960  0.00  0.00    +0.038 A 
ATOM     23  C   UNL     1       3.395   6.656  -4.989  0.00  0.00    +0.124 A 
ATOM     24  C   UNL     1       2.403   7.356  -4.323  0.00  0.00    +0.044 A 
ATOM     25  F   UNL     1       3.088   5.526  -5.663  0.00  0.00    -0.205 F 
ENDBRANCH   5  19
BRANCH   1  28
ATOM     26  C   UNL     1       0.026   3.256   2.179  0.00  0.00    +0.165 A 
ATOM     27  C   UNL     1       0.417   4.037   1.102  0.00  0.00    +0.053 A 
ATOM     28  C   UNL     1       0.217   5.405   1.129  0.00  0.00    -0.036 A 
ATOM     29  C   UNL     1      -0.373   6.000   2.228  0.00  0.00    +0.053 A 
ATOM     30  C   UNL     1      -0.766   5.226   3.310  0.00  0.00    +0.165 A 
ATOM     31  C   UNL     1      -0.572   3.850   3.285  0.00  0.00    +0.204 A 
BRANCH  26  33
ATOM     32  C   UNL     1       0.837   1.369   0.981  0.00  0.00    +0.277 C 
ATOM     33  O   UNL     1       0.222   1.911   2.152  0.00  0.00    -0.491 OA
ENDBRANCH  26  33
BRANCH  31  34
ATOM     34  O   UNL     1      -0.962   3.087   4.342  0.00  0.00    -0.488 OA
ATOM     35  C   UNL     1      -0.003   2.879   5.381  0.00  0.00    +0.277 C 
ENDBRANCH  31  34
BRANCH  30  36
ATOM     36  O   UNL     1      -1.346   5.812   4.391  0.00  0.00    -0.491 OA
ATOM     37  C   UNL     1      -1.519   7.230   4.346  0.00  0.00    +0.277 C 
ENDBRANCH  30  36
ENDBRANCH   1  28
TORSDOF 5
