REMARK  Name = ZINC04713156
REMARK  4 active torsions:
REMARK  status: ('A' for Active; 'I' for Inactive)
REMARK    1  A    between atoms: C_1  and  C_2
REMARK    2  A    between atoms: C_2  and  N_10
REMARK    3  A    between atoms: N_10  and  N_11
REMARK    4  A    between atoms: C_16  and  C_18
REMARK                            x       y       z     vdW  Elec       q    Type
REMARK                         _______ _______ _______ _____ _____    ______ ____
ROOT
ATOM      1  N   UNL     1      -0.076  -1.911  -1.471  0.00  0.00    -0.251 N 
ATOM      2  C   UNL     1       0.017  -2.459  -2.740  0.00  0.00    +0.140 A 
ATOM      3  C   UNL     1      -0.064  -3.841  -2.923  0.00  0.00    +0.085 A 
ATOM      4  C   UNL     1       0.035  -4.344  -4.208  0.00  0.00    +0.135 A 
ATOM      5  N   UNL     1       0.202  -3.506  -5.221  0.00  0.00    -0.216 NA
ATOM      6  C   UNL     1       0.275  -2.198  -5.017  0.00  0.00    +0.163 A 
ATOM      7  N   UNL     1       0.180  -1.677  -3.802  0.00  0.00    -0.211 NA
ATOM      8 CL   UNL     1      -0.059  -6.054  -4.491  0.00  0.00    -0.062 Cl
ATOM      9  H   UNL     1      -0.195  -2.489  -0.701  0.00  0.00    +0.171 HD
ENDROOT
BRANCH   6  10
ATOM     10  C   UNL     1       0.463  -1.294  -6.178  0.00  0.00    +0.019 A 
ATOM     11  C   UNL     1       0.548   0.083  -5.986  0.00  0.00    +0.011 A 
ATOM     12  C   UNL     1       0.722   0.919  -7.071  0.00  0.00    +0.001 A 
ATOM     13  C   UNL     1       0.812   0.392  -8.346  0.00  0.00    +0.000 A 
ATOM     14  C   UNL     1       0.728  -0.975  -8.543  0.00  0.00    +0.001 A 
ATOM     15  C   UNL     1       0.560  -1.821  -7.465  0.00  0.00    +0.011 A 
ENDBRANCH   6  10
BRANCH   1  16
ATOM     16  N   UNL     1       0.000  -0.523  -1.300  0.00  0.00    -0.269 N 
ATOM     17  H   UNL     1       0.043   0.059  -2.075  0.00  0.00    +0.170 HD
BRANCH  16  19
ATOM     18  C   UNL     1       0.074  -0.906   1.137  0.00  0.00    +0.062 C 
ATOM     19  C   UNL     1       0.015   0.001  -0.066  0.00  0.00    +0.026 C 
ATOM     20  C   UNL     1      -0.025   1.389   0.106  0.00  0.00    -0.007 C 
ATOM     21  C   UNL     1       0.035   2.243  -1.018  0.00  0.00    +0.013 C 
ATOM     22  C   UNL     1      -0.003   3.589  -0.849  0.00  0.00    +0.051 C 
ATOM     23  C   UNL     1      -0.102   4.134   0.445  0.00  0.00    +0.179 C 
ATOM     24  O   UNL     1      -0.137   5.349   0.596  0.00  0.00    -0.288 OA
ATOM     25  C   UNL     1      -0.163   3.285   1.567  0.00  0.00    +0.051 C 
ATOM     26  C   UNL     1      -0.130   1.939   1.403  0.00  0.00    +0.013 C 
ENDBRANCH  16  19
ENDBRANCH   1  16
TORSDOF 3
