REMARK  Name = ZINC06033046
REMARK  5 active torsions:
REMARK  status: ('A' for Active; 'I' for Inactive)
REMARK    1  A    between atoms: C_1  and  C_2
REMARK    2  A    between atoms: C_5  and  C_9
REMARK    3  A    between atoms: N_11  and  N_12
REMARK    4  A    between atoms: C_13  and  C_14
REMARK    5  A    between atoms: C_17  and  N_19
REMARK                            x       y       z     vdW  Elec       q    Type
REMARK                         _______ _______ _______ _____ _____    ______ ____
ROOT
ATOM      1  C   UNL     1      -2.520   3.870   0.048  0.00  0.00    +0.263 C 
ATOM      2  O   UNL     1      -2.533   5.084   0.054  0.00  0.00    -0.268 OA
ATOM      3  N   UNL     1      -3.681   3.184   0.056  0.00  0.00    -0.203 N 
ATOM      4  H   UNL     1      -3.671   2.214   0.050  0.00  0.00    +0.178 HD
ENDROOT
BRANCH   1   9
ATOM      5  C   UNL     1       2.490   1.041  -0.016  0.00  0.00    +0.045 C 
ATOM      6  C   UNL     1       1.177   1.782   0.000  0.00  0.00    -0.036 A 
ATOM      7  C   UNL     1      -0.013   1.076   0.008  0.00  0.00    +0.005 A 
ATOM      8  C   UNL     1      -1.217   1.747   0.017  0.00  0.00    +0.013 A 
ATOM      9  C   UNL     1      -1.235   3.144   0.031  0.00  0.00    +0.039 A 
ATOM     10  C   UNL     1      -0.030   3.852   0.023  0.00  0.00    +0.028 A 
ATOM     11  C   UNL     1       1.168   3.167   0.007  0.00  0.00    +0.021 A 
ATOM     12 BR   UNL     1       2.800   4.122  -0.004  0.00  0.00    -0.050 Br
ENDBRANCH   1   9
BRANCH   3  13
ATOM     13  N   UNL     1      -4.804   3.818   0.070  0.00  0.00    -0.184 NA
ATOM     14  C   UNL     1      -5.957   3.137   0.078  0.00  0.00    +0.176 C 
BRANCH  14  15
ATOM     15  C   UNL     1      -7.159   3.815   0.094  0.00  0.00    +0.150 A 
ATOM     16  C   UNL     1      -8.508   3.216   0.098  0.00  0.00    +0.053 A 
ATOM     17  C   UNL     1      -9.382   4.262   0.117  0.00  0.00    +0.076 A 
ATOM     18  C   UNL     1      -8.634   5.442   0.116  0.00  0.00    +0.280 A 
ATOM     19  O   UNL     1      -7.329   5.158   0.102  0.00  0.00    -0.433 OA
BRANCH  18  20
ATOM     20  N   UNL     1      -9.208   6.816   0.129  0.00  0.00    +0.093 N 
ATOM     21  O   UNL     1     -10.514   6.984   0.141  0.00  0.00    -0.123 OA
ATOM     22  O   UNL     1      -8.409   7.863   0.127  0.00  0.00    -0.123 OA
ENDBRANCH  18  20
ENDBRANCH  14  15
ENDBRANCH   3  13
TORSDOF 4
