REMARK  Name = ZINC12909756
REMARK  5 active torsions:
REMARK  status: ('A' for Active; 'I' for Inactive)
REMARK    1  A    between atoms: C_1  and  C_2
REMARK    2  A    between atoms: N_10  and  N_14
REMARK    3  A    between atoms: C_15  and  C_17
REMARK    4  A    between atoms: C_17  and  N_18
REMARK    5  A    between atoms: C_19  and  C_21
REMARK                            x       y       z     vdW  Elec       q    Type
REMARK                         _______ _______ _______ _____ _____    ______ ____
ROOT
ATOM      1  N   UNL     1       3.848  11.258   0.026  0.00  0.00    -0.222 N 
ATOM      2  C   UNL     1       3.107  10.133   0.027  0.00  0.00    +0.247 C 
ATOM      3  O   UNL     1       1.896  10.204   0.038  0.00  0.00    -0.273 OA
ATOM      4  H   UNL     1       4.816  11.201   0.017  0.00  0.00    +0.174 HD
ENDROOT
BRANCH   1  14
ATOM      5  C   UNL     1       0.441  18.399   0.655  0.00  0.00    +0.007 C 
ATOM      6  C   UNL     1       1.210  17.167   1.138  0.00  0.00    -0.014 C 
ATOM      7  C   UNL     1       0.336  15.923   0.972  0.00  0.00    +0.006 C 
ATOM      8  C   UNL     1       1.101  14.693   1.466  0.00  0.00    +0.035 C 
ATOM      9  C   UNL     1       2.391  14.539   0.667  0.00  0.00    +0.114 C 
ATOM     10  C   UNL     1       3.262  15.782   0.803  0.00  0.00    +0.035 C 
ATOM     11  C   UNL     1       2.488  17.008   0.311  0.00  0.00    +0.006 C 
ATOM     12  C   UNL     1       3.148  13.312   1.122  0.00  0.00    +0.263 C 
ATOM     13  O   UNL     1       3.597  13.094   2.227  0.00  0.00    -0.271 OA
ATOM     14  N   UNL     1       3.220  12.511   0.039  0.00  0.00    -0.137 N 
ATOM     15  C   UNL     1       2.622  13.063  -1.024  0.00  0.00    +0.326 C 
ATOM     16  O   UNL     1       2.561  12.534  -2.116  0.00  0.00    -0.251 OA
ATOM     17  N   UNL     1       2.093  14.270  -0.746  0.00  0.00    -0.284 N 
ATOM     18  H   UNL     1       1.613  14.849  -1.358  0.00  0.00    +0.151 HD
ENDBRANCH   1  14
BRANCH   2  19
ATOM     19  C   UNL     1       3.782   8.786   0.013  0.00  0.00    +0.202 C 
BRANCH  19  20
ATOM     20  N   UNL     1       2.767   7.730   0.017  0.00  0.00    -0.302 N 
ATOM     21  C   UNL     1       3.140   6.435   0.006  0.00  0.00    +0.253 C 
ATOM     22  O   UNL     1       4.322   6.143  -0.006  0.00  0.00    -0.270 OA
ATOM     23  H   UNL     1       1.825   7.963   0.027  0.00  0.00    +0.150 HD
BRANCH  21  24
ATOM     24  C   UNL     1       2.122   5.377   0.010  0.00  0.00    +0.093 A 
ATOM     25  C   UNL     1       2.301   4.028   0.001  0.00  0.00    +0.068 A 
ATOM     26  C   UNL     1       1.184   3.173   0.007  0.00  0.00    +0.008 A 
ATOM     27  C   UNL     1       1.164   1.754   0.000  0.00  0.00    +0.010 A 
ATOM     28  C   UNL     1      -0.013   1.076   0.008  0.00  0.00    +0.001 A 
ATOM     29  C   UNL     1      -1.235   1.737   0.017  0.00  0.00    +0.001 A 
ATOM     30  C   UNL     1      -1.261   3.117   0.031  0.00  0.00    +0.016 A 
ATOM     31  C   UNL     1      -0.075   3.819   0.023  0.00  0.00    +0.021 A 
ATOM     32  S   UNL     1       0.346   5.544   0.028  0.00  0.00    -0.082 S 
ATOM     33 CL   UNL     1       3.905   3.364  -0.018  0.00  0.00    -0.082 Cl
ENDBRANCH  21  24
ENDBRANCH  19  20
ENDBRANCH   2  19
TORSDOF 4
