REMARK  Name = ZINC41585202
REMARK  12 active torsions:
REMARK  status: ('A' for Active; 'I' for Inactive)
REMARK    1  A    between atoms: C_1  and  C_2
REMARK    2  A    between atoms: C_10  and  C_27
REMARK    3  A    between atoms: C_11  and  O_26
REMARK    4  A    between atoms: C_12  and  C_13
REMARK    5  A    between atoms: C_13  and  N_14
REMARK    6  A    between atoms: N_17  and  C_20
REMARK    7  A    between atoms: C_27  and  C_28
REMARK    8  A    between atoms: C_28  and  C_29
REMARK    9  A    between atoms: C_29  and  O_31
REMARK   10  A    between atoms: O_31  and  C_32
REMARK   11  A    between atoms: C_32  and  C_33
REMARK   12  A    between atoms: C_32  and  C_34
REMARK                            x       y       z     vdW  Elec       q    Type
REMARK                         _______ _______ _______ _____ _____    ______ ____
ROOT
ATOM      1  C   UNL     1       0.044   1.537   0.036  0.00  0.00    +0.045 C 
ATOM      2  C   UNL     1       0.055   0.030   0.018  0.00  0.00    -0.033 A 
ATOM      3  C   UNL     1       0.062  -0.653  -1.156  0.00  0.00    +0.096 A 
ATOM      4  C   UNL     1       0.072  -2.063  -1.146  0.00  0.00    +0.337 A 
ATOM      5  O   UNL     1       0.079  -2.664  -2.206  0.00  0.00    -0.245 OA
ATOM      6  O   UNL     1       0.074  -2.761   0.000  0.00  0.00    -0.422 OA
ATOM      7  C   UNL     1       0.067  -2.143   1.201  0.00  0.00    +0.144 A 
ATOM      8  C   UNL     1       0.063  -0.737   1.266  0.00  0.00    +0.021 A 
ATOM      9  C   UNL     1       0.061  -0.093   2.508  0.00  0.00    +0.019 A 
ATOM     10  C   UNL     1       0.068  -0.832   3.655  0.00  0.00    -0.004 A 
ATOM     11  C   UNL     1       0.078  -2.224   3.598  0.00  0.00    +0.125 A 
ATOM     12  C   UNL     1       0.069  -2.879   2.376  0.00  0.00    +0.021 A 
ENDROOT
BRANCH  11  13
ATOM     13  O   UNL     1       0.086  -2.946   4.748  0.00  0.00    -0.506 OA
ATOM     14  H   UNL     1      -0.796  -3.161   5.083  0.00  0.00    +0.292 HD
ENDBRANCH  11  13
BRANCH  12  15
ATOM     15  C   UNL     1       0.080  -4.385   2.326  0.00  0.00    -0.035 C 
BRANCH  15  16
ATOM     16  N   UNL     1       1.468  -4.865   2.312  0.00  0.00    +0.385 N 
ATOM     17  C   UNL     1       2.126  -4.420   1.078  0.00  0.00    -0.059 C 
ATOM     18  C   UNL     1       3.604  -4.821   1.115  0.00  0.00    +0.086 C 
ATOM     19  N   UNL     1       3.689  -6.269   1.360  0.00  0.00    -0.333 N 
ATOM     20  C   UNL     1       2.924  -6.827   2.486  0.00  0.00    +0.086 C 
ATOM     21  C   UNL     1       1.478  -6.332   2.384  0.00  0.00    -0.059 C 
ATOM     22  H   UNL     1       1.961  -4.487   3.108  0.00  0.00    -0.081 HD
BRANCH  19  23
ATOM     23  C   UNL     1       4.473  -7.091   0.547  0.00  0.00    +0.030 A 
ATOM     24  C   UNL     1       5.098  -6.566  -0.577  0.00  0.00    +0.023 A 
ATOM     25  C   UNL     1       5.873  -7.381  -1.378  0.00  0.00    +0.002 A 
ATOM     26  C   UNL     1       6.027  -8.719  -1.063  0.00  0.00    +0.000 A 
ATOM     27  C   UNL     1       5.406  -9.245   0.055  0.00  0.00    +0.002 A 
ATOM     28  C   UNL     1       4.634  -8.434   0.864  0.00  0.00    +0.023 A 
ENDBRANCH  19  23
ENDBRANCH  15  16
ENDBRANCH  12  15
BRANCH  10  29
ATOM     29  C   UNL     1       0.066  -0.138   4.993  0.00  0.00    +0.050 C 
BRANCH  29  30
ATOM     30  C   UNL     1       1.503  -0.005   5.500  0.00  0.00    +0.125 C 
BRANCH  30  31
ATOM     31  C   UNL     1       1.501   0.689   6.838  0.00  0.00    +0.308 C 
ATOM     32  O   UNL     1       0.457   1.041   7.335  0.00  0.00    -0.251 OA
BRANCH  31  33
ATOM     33  O   UNL     1       2.659   0.916   7.478  0.00  0.00    -0.462 OA
BRANCH  33  34
ATOM     34  C   UNL     1       2.583   1.578   8.742  0.00  0.00    +0.170 C 
ATOM     35  C   UNL     1       2.440   0.538   9.855  0.00  0.00    +0.052 C 
ATOM     36  C   UNL     1       3.857   2.395   8.968  0.00  0.00    +0.052 C 
ENDBRANCH  33  34
ENDBRANCH  31  33
ENDBRANCH  30  31
ENDBRANCH  29  30
ENDBRANCH  10  29
TORSDOF 9
