REMARK  Name = ZINC40307451
REMARK  6 active torsions:
REMARK  status: ('A' for Active; 'I' for Inactive)
REMARK    1  A    between atoms: C_1  and  C_2
REMARK    2  A    between atoms: C_2  and  N_3
REMARK    3  A    between atoms: C_5  and  N_10
REMARK    4  A    between atoms: C_11  and  C_13
REMARK    5  A    between atoms: C_15  and  N_21
REMARK    6  A    between atoms: C_16  and  C_20
REMARK                            x       y       z     vdW  Elec       q    Type
REMARK                         _______ _______ _______ _____ _____    ______ ____
ROOT
ATOM      1  N   UNL     1      -3.898  -1.453   2.463  0.00  0.00    -0.280 N 
ATOM      2  C   UNL     1      -5.194  -1.823   2.496  0.00  0.00    +0.248 C 
ATOM      3  O   UNL     1      -5.791  -2.038   1.460  0.00  0.00    -0.270 OA
ATOM      4  H   UNL     1      -3.402  -1.351   3.290  0.00  0.00    +0.155 HD
ENDROOT
BRANCH   2   5
ATOM      5  C   UNL     1      -5.888  -1.966   3.793  0.00  0.00    +0.041 A 
ATOM      6  C   UNL     1      -7.228  -2.355   3.830  0.00  0.00    +0.036 A 
ATOM      7  C   UNL     1      -7.874  -2.488   5.050  0.00  0.00    +0.031 A 
ATOM      8  C   UNL     1      -7.187  -2.235   6.232  0.00  0.00    +0.005 A 
ATOM      9  C   UNL     1      -5.858  -1.850   6.196  0.00  0.00    +0.129 A 
ATOM     10  C   UNL     1      -5.205  -1.720   4.984  0.00  0.00    +0.051 A 
ATOM     11  F   UNL     1      -5.196  -1.606   7.348  0.00  0.00    -0.205 F 
ATOM     12  C   UNL     1      -7.892  -2.380   7.556  0.00  0.00    +0.048 C 
BRANCH   7  13
ATOM     13  N   UNL     1      -9.215  -2.876   5.091  0.00  0.00    -0.358 N 
ATOM     14  H   UNL     1      -9.694  -3.052   4.266  0.00  0.00    +0.142 HD
ATOM     15  H   UNL     1      -9.667  -2.969   5.944  0.00  0.00    +0.142 HD
ENDBRANCH   7  13
ENDBRANCH   2   5
BRANCH   1  18
ATOM     16  N   UNL     1      -2.078   0.229  -0.207  0.00  0.00    -0.314 N 
ATOM     17  C   UNL     1      -2.693  -0.011   0.981  0.00  0.00    +0.112 A 
ATOM     18  C   UNL     1      -3.267  -1.217   1.232  0.00  0.00    +0.050 A 
ATOM     19  C   UNL     1      -3.228  -2.227   0.255  0.00  0.00    +0.030 A 
ATOM     20  C   UNL     1      -2.610  -1.979  -0.935  0.00  0.00    +0.072 A 
ATOM     21  C   UNL     1      -2.030  -0.719  -1.162  0.00  0.00    +0.251 A 
ATOM     22  O   UNL     1      -1.479  -0.485  -2.226  0.00  0.00    -0.268 OA
BRANCH  16  24
ATOM     23  C   UNL     1      -2.500   2.474  -1.082  0.00  0.00    +0.027 C 
ATOM     24  C   UNL     1      -1.466   1.536  -0.455  0.00  0.00    +0.121 C 
ENDBRANCH  16  24
ENDBRANCH   1  18
TORSDOF 4
