REMARK  Name = ZINC01840391
REMARK  5 active torsions:
REMARK  status: ('A' for Active; 'I' for Inactive)
REMARK    1  A    between atoms: C_1  and  C_2
REMARK    2  A    between atoms: C_2  and  C_3
REMARK    3  A    between atoms: C_8  and  N_9
REMARK    4  A    between atoms: C_10  and  C_12
REMARK    5  A    between atoms: C_15  and  C_17
REMARK                            x       y       z     vdW  Elec       q    Type
REMARK                         _______ _______ _______ _____ _____    ______ ____
ROOT
ATOM      1  N   UNL     1      -1.372  -1.005   2.269  0.00  0.00    -0.279 N 
ATOM      2  C   UNL     1      -1.646  -2.192   2.844  0.00  0.00    +0.284 C 
ATOM      3  O   UNL     1      -2.788  -2.615   2.854  0.00  0.00    -0.266 OA
ATOM      4  H   UNL     1      -0.454  -0.698   2.203  0.00  0.00    +0.155 HD
ENDROOT
BRANCH   1  10
ATOM      5  C   UNL     1      -2.335   1.169   1.848  0.00  0.00    -0.025 A 
ATOM      6  C   UNL     1      -3.360   1.947   1.346  0.00  0.00    +0.019 A 
ATOM      7  C   UNL     1      -4.464   1.348   0.767  0.00  0.00    +0.014 A 
ATOM      8  C   UNL     1      -4.546  -0.031   0.690  0.00  0.00    +0.016 A 
ATOM      9  C   UNL     1      -3.524  -0.814   1.191  0.00  0.00    +0.024 A 
ATOM     10  C   UNL     1      -2.411  -0.215   1.767  0.00  0.00    +0.037 A 
ATOM     11  I   UNL     1      -6.016   2.531   0.006  0.00  0.00    -0.044 I 
BRANCH   5  13
ATOM     12  C   UNL     1      -0.022   1.964   1.433  0.00  0.00    +0.009 C 
ATOM     13  C   UNL     1      -1.132   1.823   2.478  0.00  0.00    +0.033 C 
ENDBRANCH   5  13
ENDBRANCH   1  10
BRANCH   2  14
ATOM     14  C   UNL     1      -0.570  -2.974   3.458  0.00  0.00    +0.190 A 
ATOM     15  C   UNL     1      -0.712  -4.195   4.082  0.00  0.00    +0.055 A 
ATOM     16  C   UNL     1       0.562  -4.576   4.516  0.00  0.00    +0.051 A 
ATOM     17  C   UNL     1       1.424  -3.581   4.153  0.00  0.00    +0.137 A 
ATOM     18  O   UNL     1       0.732  -2.622   3.517  0.00  0.00    -0.450 OA
BRANCH  17  19
ATOM     19  C   UNL     1       2.877  -3.563   4.416  0.00  0.00    +0.036 A 
ATOM     20  C   UNL     1       3.360  -3.811   5.703  0.00  0.00    +0.014 A 
ATOM     21  C   UNL     1       4.718  -3.798   5.941  0.00  0.00    +0.021 A 
ATOM     22  C   UNL     1       5.603  -3.527   4.911  0.00  0.00    +0.042 A 
ATOM     23  C   UNL     1       5.132  -3.275   3.634  0.00  0.00    +0.040 A 
ATOM     24  C   UNL     1       3.775  -3.291   3.380  0.00  0.00    +0.053 A 
ATOM     25 CL   UNL     1       3.185  -2.974   1.778  0.00  0.00    -0.083 Cl
ATOM     26 CL   UNL     1       7.311  -3.505   5.222  0.00  0.00    -0.083 Cl
ENDBRANCH  17  19
ENDBRANCH   2  14
TORSDOF 4
