REMARK  Name = ZINC24019408
REMARK  10 active torsions:
REMARK  status: ('A' for Active; 'I' for Inactive)
REMARK    1  A    between atoms: C_1  and  C_2
REMARK    2  A    between atoms: C_4  and  C_28
REMARK    3  A    between atoms: C_6  and  N_8
REMARK    4  A    between atoms: C_9  and  C_11
REMARK    5  A    between atoms: C_11  and  C_13
REMARK    6  A    between atoms: C_11  and  S_14
REMARK    7  A    between atoms: S_14  and  C_15
REMARK    8  A    between atoms: C_17  and  C_20
REMARK    9  A    between atoms: C_23  and  O_26
REMARK   10  A    between atoms: O_26  and  C_27
REMARK                            x       y       z     vdW  Elec       q    Type
REMARK                         _______ _______ _______ _____ _____    ______ ____
ROOT
ATOM      1  S   UNL     1       6.433   0.645   0.344  0.00  0.00    -0.074 S 
ENDROOT
BRANCH   1   2
ATOM      2  C   UNL     1       4.672   0.576   0.322  0.00  0.00    +0.185 A 
ATOM      3  N   UNL     1       3.818   1.632   0.471  0.00  0.00    -0.201 NA
ATOM      4  C   UNL     1       2.552   1.100   0.388  0.00  0.00    +0.182 A 
ATOM      5  N   UNL     1       2.689  -0.192   0.201  0.00  0.00    -0.152 NA
ATOM      6  N   UNL     1       3.936  -0.500   0.159  0.00  0.00    -0.253 N 
ATOM      7  H   UNL     1       4.239  -1.546   0.004  0.00  0.00    +0.191 HD
BRANCH   4   8
ATOM      8  C   UNL     1       1.278   1.843   0.490  0.00  0.00    +0.021 A 
ATOM      9  C   UNL     1       0.062   1.166   0.379  0.00  0.00    +0.015 A 
ATOM     10  C   UNL     1      -1.123   1.863   0.469  0.00  0.00    +0.046 A 
ATOM     11  C   UNL     1      -1.110   3.235   0.681  0.00  0.00    +0.120 A 
ATOM     12  C   UNL     1       0.098   3.913   0.792  0.00  0.00    +0.046 A 
ATOM     13  C   UNL     1       1.288   3.223   0.698  0.00  0.00    +0.015 A 
BRANCH  11  14
ATOM     14  O   UNL     1      -2.281   3.918   0.775  0.00  0.00    -0.495 OA
ATOM     15  C   UNL     1      -3.486   3.160   0.652  0.00  0.00    +0.277 C 
ENDBRANCH  11  14
ENDBRANCH   4   8
ENDBRANCH   1   2
BRANCH   1  16
ATOM     16  C   UNL     1       6.818  -1.104   0.082  0.00  0.00    +0.137 C 
ATOM     17  C   UNL     1       6.323  -1.920   1.278  0.00  0.00    +0.029 C 
BRANCH  16  19
ATOM     18  N   UNL     1       8.806  -2.328  -0.736  0.00  0.00    -0.285 N 
ATOM     19  C   UNL     1       8.309  -1.274  -0.059  0.00  0.00    +0.230 C 
ATOM     20  O   UNL     1       9.062  -0.463   0.438  0.00  0.00    -0.274 OA
ATOM     21  H   UNL     1       8.129  -3.109  -1.112  0.00  0.00    +0.155 HD
BRANCH  18  27
ATOM     22  C   UNL     1      12.817  -5.122  -1.263  0.00  0.00    +0.044 C 
ATOM     23  C   UNL     1      12.154  -3.769  -1.222  0.00  0.00    -0.048 A 
ATOM     24  C   UNL     1      12.907  -2.625  -1.409  0.00  0.00    +0.006 A 
ATOM     25  C   UNL     1      12.302  -1.382  -1.373  0.00  0.00    -0.048 A 
ATOM     26  C   UNL     1      10.943  -1.280  -1.151  0.00  0.00    +0.026 A 
ATOM     27  C   UNL     1      10.184  -2.427  -0.962  0.00  0.00    +0.034 A 
ATOM     28  C   UNL     1      10.795  -3.674  -0.992  0.00  0.00    +0.026 A 
ATOM     29  C   UNL     1      13.127  -0.137  -1.578  0.00  0.00    +0.044 C 
ENDBRANCH  18  27
ENDBRANCH  16  19
ENDBRANCH   1  16
TORSDOF 6
