REMARK  Name = ZINC66930061
REMARK  7 active torsions:
REMARK  status: ('A' for Active; 'I' for Inactive)
REMARK    1  A    between atoms: C_10  and  C_11
REMARK    2  A    between atoms: C_10  and  O_25
REMARK    3  A    between atoms: C_11  and  N_12
REMARK    4  A    between atoms: C_13  and  C_15
REMARK    5  A    between atoms: C_15  and  C_16
REMARK    6  A    between atoms: C_16  and  N_17
REMARK    7  A    between atoms: C_18  and  C_20
REMARK                            x       y       z     vdW  Elec       q    Type
REMARK                         _______ _______ _______ _____ _____    ______ ____
ROOT
ATOM      1  N   UNL     1       4.733   1.477  -0.622  0.00  0.00    -0.312 N 
ATOM      2  C   UNL     1       5.418   2.343  -1.394  0.00  0.00    +0.215 C 
ATOM      3  O   UNL     1       5.983   1.949  -2.393  0.00  0.00    -0.276 OA
ATOM      4  H   UNL     1       4.281   1.792   0.177  0.00  0.00    +0.149 HD
ENDROOT
BRANCH   1   5
ATOM      5  C   UNL     1       4.671   0.060  -0.987  0.00  0.00    +0.143 C 
BRANCH   5  15
ATOM      6  C   UNL     1       3.635  -4.797  -1.159  0.00  0.00    +0.000 A 
ATOM      7  C   UNL     1       3.604  -3.797  -2.113  0.00  0.00    +0.000 A 
ATOM      8  C   UNL     1       3.643  -2.475  -1.720  0.00  0.00    +0.007 A 
ATOM      9  C   UNL     1       3.714  -2.140  -0.374  0.00  0.00    -0.011 A 
ATOM     10  C   UNL     1       3.749  -3.136   0.575  0.00  0.00    -0.041 A 
ATOM     11  C   UNL     1       3.706  -4.467   0.178  0.00  0.00    +0.004 A 
ATOM     12  C   UNL     1       3.843  -2.847   2.051  0.00  0.00    +0.035 C 
ATOM     13  C   UNL     1       3.451  -1.399   2.340  0.00  0.00    +0.008 C 
ATOM     14  C   UNL     1       4.257  -0.485   1.410  0.00  0.00    +0.041 C 
ATOM     15  C   UNL     1       3.746  -0.677  -0.016  0.00  0.00    +0.107 C 
BRANCH  15  16
ATOM     16  O   UNL     1       2.427  -0.138  -0.121  0.00  0.00    -0.382 OA
ATOM     17  H   UNL     1       2.042  -0.209  -1.006  0.00  0.00    +0.211 HD
ENDBRANCH  15  16
ENDBRANCH   5  15
ENDBRANCH   1   5
BRANCH   2  18
ATOM     18  C   UNL     1       5.482   3.801  -1.018  0.00  0.00    +0.114 C 
BRANCH  18  19
ATOM     19  C   UNL     1       6.315   4.559  -2.054  0.00  0.00    +0.113 C 
BRANCH  19  20
ATOM     20  N   UNL     1       6.378   5.976  -1.688  0.00  0.00    -0.315 N 
ATOM     21  C   UNL     1       7.063   6.842  -2.461  0.00  0.00    +0.216 C 
ATOM     22  O   UNL     1       7.628   6.447  -3.459  0.00  0.00    -0.276 OA
ATOM     23  H   UNL     1       5.926   6.291  -0.890  0.00  0.00    +0.149 HD
BRANCH  21  24
ATOM     24  C   UNL     1       7.127   8.300  -2.085  0.00  0.00    +0.075 C 
ATOM     25  C   UNL     1       5.712   8.915  -2.111  0.00  0.00    +0.013 C 
ATOM     26  C   UNL     1       5.930  10.345  -2.664  0.00  0.00    +0.001 C 
ATOM     27  C   UNL     1       7.027  10.133  -3.737  0.00  0.00    +0.001 C 
ATOM     28  C   UNL     1       7.962   9.074  -3.119  0.00  0.00    +0.013 C 
ENDBRANCH  21  24
ENDBRANCH  19  20
ENDBRANCH  18  19
ENDBRANCH   2  18
TORSDOF 7
