REMARK  Name = ZINC45810638
REMARK  11 active torsions:
REMARK  status: ('A' for Active; 'I' for Inactive)
REMARK    1  A    between atoms: C_1  and  C_2
REMARK    2  A    between atoms: C_2  and  C_3
REMARK    3  A    between atoms: C_3  and  C_5
REMARK    4  A    between atoms: C_3  and  C_6
REMARK    5  A    between atoms: C_6  and  C_8
REMARK    6  A    between atoms: C_6  and  N_28
REMARK    7  A    between atoms: N_10  and  N_11
REMARK    8  A    between atoms: C_12  and  C_14
REMARK    9  A    between atoms: C_17  and  S_20
REMARK   10  A    between atoms: S_20  and  N_23
REMARK   11  A    between atoms: C_29  and  C_31
REMARK                            x       y       z     vdW  Elec       q    Type
REMARK                         _______ _______ _______ _____ _____    ______ ____
ROOT
ATOM      1  C   UNL     1      -2.395   1.214   1.607  0.00  0.00    +0.250 C 
ATOM      2  O   UNL     1      -3.525   1.647   1.686  0.00  0.00    -0.272 OA
ATOM      3  N   UNL     1      -1.345   2.058   1.650  0.00  0.00    -0.233 N 
ATOM      4  H   UNL     1      -0.446   1.721   1.509  0.00  0.00    +0.173 HD
ENDROOT
BRANCH   3   5
ATOM      5  N   UNL     1      -1.552   3.421   1.898  0.00  0.00    -0.230 N 
ATOM      6  C   UNL     1      -0.502   4.265   1.941  0.00  0.00    +0.260 C 
ATOM      7  O   UNL     1       0.625   3.843   1.765  0.00  0.00    -0.269 OA
ATOM      8  H   UNL     1      -2.451   3.757   2.038  0.00  0.00    +0.173 HD
BRANCH   6   9
ATOM      9  C   UNL     1      -0.720   5.704   2.203  0.00  0.00    +0.038 A 
ATOM     10  C   UNL     1      -2.012   6.190   2.411  0.00  0.00    +0.015 A 
ATOM     11  C   UNL     1      -2.208   7.534   2.655  0.00  0.00    +0.029 A 
ATOM     12  C   UNL     1      -1.129   8.398   2.693  0.00  0.00    +0.106 A 
ATOM     13  C   UNL     1       0.154   7.923   2.487  0.00  0.00    +0.029 A 
ATOM     14  C   UNL     1       0.365   6.580   2.248  0.00  0.00    +0.015 A 
BRANCH  12  15
ATOM     15  S   UNL     1      -1.389  10.113   3.005  0.00  0.00    +0.061 S 
ATOM     16  O   UNL     1      -0.276  10.800   2.449  0.00  0.00    -0.153 OA
ATOM     17  O   UNL     1      -2.728  10.396   2.623  0.00  0.00    -0.153 OA
BRANCH  15  18
ATOM     18  N   UNL     1      -1.308  10.330   4.645  0.00  0.00    -0.177 NA
ATOM     19  C   UNL     1      -2.441  10.242   5.578  0.00  0.00    +0.109 C 
ATOM     20  C   UNL     1      -1.896  10.541   6.990  0.00  0.00    +0.018 C 
ATOM     21  C   UNL     1      -0.596  11.336   6.699  0.00  0.00    +0.018 C 
ATOM     22  C   UNL     1      -0.087  10.637   5.412  0.00  0.00    +0.109 C 
ENDBRANCH  15  18
ENDBRANCH  12  15
ENDBRANCH   6   9
ENDBRANCH   3   5
BRANCH   1  23
ATOM     23  C   UNL     1      -2.165  -0.268   1.460  0.00  0.00    +0.163 C 
BRANCH  23  24
ATOM     24  N   UNL     1      -3.366  -0.993   1.881  0.00  0.00    -0.300 N 
ATOM     25  C   UNL     1      -3.268  -2.264   2.320  0.00  0.00    +0.245 C 
ATOM     26  O   UNL     1      -2.182  -2.808   2.365  0.00  0.00    -0.270 OA
ATOM     27  H   UNL     1      -4.233  -0.558   1.844  0.00  0.00    +0.150 HD
BRANCH  25  28
ATOM     28  C   UNL     1      -4.480  -2.995   2.744  0.00  0.00    +0.037 A 
ATOM     29  C   UNL     1      -5.729  -2.375   2.688  0.00  0.00    +0.013 A 
ATOM     30  C   UNL     1      -6.857  -3.063   3.085  0.00  0.00    +0.001 A 
ATOM     31  C   UNL     1      -6.751  -4.365   3.540  0.00  0.00    +0.000 A 
ATOM     32  C   UNL     1      -5.516  -4.986   3.600  0.00  0.00    +0.001 A 
ATOM     33  C   UNL     1      -4.382  -4.311   3.199  0.00  0.00    +0.013 A 
ENDBRANCH  25  28
ENDBRANCH  23  24
BRANCH  23  34
ATOM     34  C   UNL     1      -1.859  -0.595  -0.003  0.00  0.00    +0.015 C 
ATOM     35  C   UNL     1      -3.103  -0.333  -0.855  0.00  0.00    +0.010 C 
BRANCH  34  37
ATOM     36  C   UNL     1      -0.134  -2.296   0.607  0.00  0.00    +0.004 C 
ATOM     37  C   UNL     1      -1.458  -2.066  -0.125  0.00  0.00    +0.002 C 
ENDBRANCH  34  37
ENDBRANCH  23  34
ENDBRANCH   1  23
TORSDOF 9
