REMARK  Name = ZINC13266862
REMARK  6 active torsions:
REMARK  status: ('A' for Active; 'I' for Inactive)
REMARK    1  A    between atoms: C_5  and  N_7
REMARK    2  A    between atoms: C_13  and  C_28
REMARK    3  A    between atoms: C_17  and  S_18
REMARK    4  A    between atoms: S_18  and  C_19
REMARK    5  A    between atoms: C_19  and  C_20
REMARK    6  A    between atoms: N_22  and  C_23
REMARK                            x       y       z     vdW  Elec       q    Type
REMARK                         _______ _______ _______ _____ _____    ______ ____
ROOT
ATOM      1  N   UNL     1       2.333   1.481  -0.012  0.00  0.00    -0.253 N 
ATOM      2  C   UNL     1       2.472   0.135  -0.021  0.00  0.00    +0.267 A 
ATOM      3  O   UNL     1       3.572  -0.386  -0.034  0.00  0.00    -0.267 OA
ATOM      4  C   UNL     1       1.245  -0.676  -0.013  0.00  0.00    +0.065 A 
ATOM      5  C   UNL     1       1.289  -2.071  -0.022  0.00  0.00    +0.016 A 
ATOM      6  C   UNL     1       0.128  -2.788  -0.015  0.00  0.00    +0.016 A 
ATOM      7  C   UNL     1      -1.113  -2.137   0.000  0.00  0.00    +0.065 A 
ATOM      8  C   UNL     1      -1.180  -0.749   0.009  0.00  0.00    +0.043 A 
ATOM      9  C   UNL     1       0.002  -0.004   0.002  0.00  0.00    +0.080 A 
ATOM     10  N   UNL     1      -0.016   1.350   0.009  0.00  0.00    -0.223 NA
ATOM     11  C   UNL     1       1.091   2.051   0.003  0.00  0.00    +0.177 A 
ENDROOT
BRANCH   1  16
ATOM     12  C   UNL     1       5.149   3.513  -1.228  0.00  0.00    +0.002 A 
ATOM     13  C   UNL     1       5.723   3.909  -0.034  0.00  0.00    +0.003 A 
ATOM     14  C   UNL     1       5.175   3.502   1.169  0.00  0.00    +0.040 A 
ATOM     15  C   UNL     1       4.051   2.697   1.180  0.00  0.00    +0.147 A 
ATOM     16  C   UNL     1       3.473   2.297  -0.019  0.00  0.00    +0.087 A 
ATOM     17  C   UNL     1       4.029   2.704  -1.224  0.00  0.00    +0.029 A 
ATOM     18  F   UNL     1       3.516   2.299   2.355  0.00  0.00    -0.203 F 
ENDBRANCH   1  16
BRANCH   7  19
ATOM     19  C   UNL     1      -2.360  -2.933   0.007  0.00  0.00    +0.387 C 
ATOM     20  O   UNL     1      -3.437  -2.373   0.020  0.00  0.00    -0.241 OA
ATOM     21  O   UNL     1      -2.300  -4.278  -0.001  0.00  0.00    -0.241 OA
ENDBRANCH   7  19
BRANCH  11  22
ATOM     22  S   UNL     1       0.972   3.809   0.013  0.00  0.00    -0.078 S 
BRANCH  22  23
ATOM     23  C   UNL     1      -0.828   4.002   0.030  0.00  0.00    +0.173 C 
BRANCH  23  24
ATOM     24  C   UNL     1      -1.175   5.468   0.041  0.00  0.00    +0.224 C 
ATOM     25  O   UNL     1      -0.293   6.301   0.037  0.00  0.00    -0.275 OA
ATOM     26  N   UNL     1      -2.466   5.855   0.055  0.00  0.00    -0.312 N 
ATOM     27  H   UNL     1      -3.172   5.189   0.058  0.00  0.00    +0.149 HD
BRANCH  26  28
ATOM     28  C   UNL     1      -2.804   7.281   0.065  0.00  0.00    +0.073 C 
ATOM     29  C   UNL     1      -2.859   7.800   1.517  0.00  0.00    +0.022 C 
ATOM     30  C   UNL     1      -4.031   8.812   1.514  0.00  0.00    +0.002 C 
ATOM     31  C   UNL     1      -5.064   8.136   0.578  0.00  0.00    +0.002 C 
ATOM     32  C   UNL     1      -4.206   7.495  -0.531  0.00  0.00    +0.022 C 
ENDBRANCH  26  28
ENDBRANCH  23  24
ENDBRANCH  22  23
ENDBRANCH  11  22
TORSDOF 6
