REMARK  Name = ZINC35972996
REMARK  13 active torsions:
REMARK  status: ('A' for Active; 'I' for Inactive)
REMARK    1  A    between atoms: C_1  and  C_2
REMARK    2  A    between atoms: C_2  and  C_3
REMARK    3  A    between atoms: C_4  and  C_25
REMARK    4  A    between atoms: C_5  and  O_16
REMARK    5  A    between atoms: N_6  and  C_8
REMARK    6  A    between atoms: C_11  and  O_14
REMARK    7  A    between atoms: O_14  and  C_15
REMARK    8  A    between atoms: O_16  and  C_17
REMARK    9  A    between atoms: C_25  and  N_26
REMARK   10  A    between atoms: N_26  and  C_27
REMARK   11  A    between atoms: C_27  and  C_28
REMARK   12  A    between atoms: N_36  and  C_37
REMARK   13  A    between atoms: C_37  and  C_38
REMARK                            x       y       z     vdW  Elec       q    Type
REMARK                         _______ _______ _______ _____ _____    ______ ____
ROOT
ATOM      1  C   UNL     1       0.674  -0.215  -1.704  0.00  0.00    +0.072 A 
ATOM      2  C   UNL     1      -0.237  -0.672  -2.661  0.00  0.00    +0.055 A 
ATOM      3  C   UNL     1       0.463  -1.333  -3.622  0.00  0.00    +0.229 A 
ATOM      4  N   UNL     1       1.776  -1.289  -3.273  0.00  0.00    -0.200 N 
ATOM      5  N   UNL     1       1.877  -0.578  -2.071  0.00  0.00    -0.168 NA
ENDROOT
BRANCH   4   6
ATOM      6  C   UNL     1       2.842  -1.852  -3.992  0.00  0.00    +0.069 A 
ATOM      7  C   UNL     1       2.754  -3.158  -4.455  0.00  0.00    +0.031 A 
ATOM      8  C   UNL     1       3.803  -3.711  -5.163  0.00  0.00    +0.048 A 
ATOM      9  C   UNL     1       4.944  -2.962  -5.411  0.00  0.00    +0.120 A 
ATOM     10  C   UNL     1       5.032  -1.657  -4.949  0.00  0.00    +0.048 A 
ATOM     11  C   UNL     1       3.981  -1.101  -4.246  0.00  0.00    +0.031 A 
BRANCH   9  12
ATOM     12  O   UNL     1       5.976  -3.507  -6.108  0.00  0.00    -0.495 OA
ATOM     13  C   UNL     1       7.120  -2.679  -6.327  0.00  0.00    +0.277 C 
ENDBRANCH   9  12
ENDBRANCH   4   6
BRANCH   1  15
ATOM     14  C   UNL     1       0.785   2.019  -0.634  0.00  0.00    +0.010 C 
ATOM     15  C   UNL     1       0.330   0.568  -0.463  0.00  0.00    +0.054 C 
ENDBRANCH   1  15
BRANCH   3  16
ATOM     16  O   UNL     1      -0.055  -1.927  -4.726  0.00  0.00    -0.435 OA
BRANCH  16  17
ATOM     17  C   UNL     1      -0.597  -3.167  -4.589  0.00  0.00    +0.166 A 
ATOM     18  C   UNL     1      -0.609  -3.786  -3.349  0.00  0.00    +0.052 A 
ATOM     19  C   UNL     1      -1.161  -5.045  -3.211  0.00  0.00    +0.042 A 
ATOM     20  C   UNL     1      -1.702  -5.690  -4.310  0.00  0.00    +0.126 A 
ATOM     21  C   UNL     1      -1.691  -5.075  -5.550  0.00  0.00    +0.080 A 
ATOM     22  C   UNL     1      -1.145  -3.812  -5.691  0.00  0.00    +0.168 A 
ATOM     23  F   UNL     1      -1.139  -3.209  -6.900  0.00  0.00    -0.202 F 
ATOM     24  F   UNL     1      -2.240  -6.922  -4.172  0.00  0.00    -0.205 F 
ENDBRANCH  16  17
ENDBRANCH   3  16
BRANCH   2  25
ATOM     25  C   UNL     1      -1.730  -0.468  -2.633  0.00  0.00    +0.151 C 
BRANCH  25  26
ATOM     26  N   UNL     1      -2.079   0.700  -3.444  0.00  0.00    -0.279 N 
ATOM     27  C   UNL     1      -2.158   1.919  -2.873  0.00  0.00    +0.303 C 
ATOM     28  O   UNL     1      -1.877   2.058  -1.698  0.00  0.00    -0.253 OA
ATOM     29  N   UNL     1      -2.549   2.981  -3.604  0.00  0.00    -0.299 N 
ATOM     30  H   UNL     1      -2.773   2.870  -4.541  0.00  0.00    +0.150 HD
BRANCH  29  31
ATOM     31  C   UNL     1      -2.635   4.306  -2.983  0.00  0.00    +0.102 C 
ATOM     32  C   UNL     1      -3.099   5.327  -4.022  0.00  0.00    +0.024 C 
ENDBRANCH  29  31
BRANCH  26  33
ATOM     33  C   UNL     1      -2.342   0.545  -4.877  0.00  0.00    +0.141 C 
BRANCH  33  34
ATOM     34  C   UNL     1      -3.830   0.268  -5.096  0.00  0.00    +0.136 C 
ATOM     35  C   UNL     1      -4.124   0.066  -6.603  0.00  0.00    +0.035 C 
ATOM     36  C   UNL     1      -5.414  -0.797  -6.539  0.00  0.00    +0.031 C 
ATOM     37  C   UNL     1      -5.175  -1.650  -5.275  0.00  0.00    +0.160 C 
ATOM     38  O   UNL     1      -4.205  -0.969  -4.469  0.00  0.00    -0.375 OA
ENDBRANCH  33  34
ENDBRANCH  26  33
ENDBRANCH  25  26
ENDBRANCH   2  25
TORSDOF 10
