REMARK  Name = ZINC57608226
REMARK  10 active torsions:
REMARK  status: ('A' for Active; 'I' for Inactive)
REMARK    1  A    between atoms: C_1  and  C_2
REMARK    2  A    between atoms: C_7  and  C_14
REMARK    3  A    between atoms: C_14  and  C_16
REMARK    4  A    between atoms: C_14  and  N_28
REMARK    5  A    between atoms: N_20  and  C_21
REMARK    6  A    between atoms: C_21  and  C_22
REMARK    7  A    between atoms: N_28  and  C_29
REMARK    8  A    between atoms: N_28  and  C_36
REMARK    9  A    between atoms: C_29  and  C_30
REMARK   10  A    between atoms: C_36  and  C_37
REMARK                            x       y       z     vdW  Elec       q    Type
REMARK                         _______ _______ _______ _____ _____    ______ ____
ROOT
ATOM      1  C   UNL     1       0.456  -6.841   1.005  0.00  0.00    +0.163 C 
ENDROOT
BRANCH   1   8
ATOM      2  C   UNL     1       2.210  -0.918   6.051  0.00  0.00    +0.044 C 
ATOM      3  C   UNL     1       2.106  -2.091   5.110  0.00  0.00    -0.048 A 
ATOM      4  C   UNL     1       3.241  -2.829   4.804  0.00  0.00    +0.004 A 
ATOM      5  C   UNL     1       3.168  -3.895   3.953  0.00  0.00    +0.010 A 
ATOM      6  C   UNL     1       1.939  -4.247   3.385  0.00  0.00    -0.001 A 
ATOM      7  C   UNL     1       1.825  -5.384   2.470  0.00  0.00    +0.021 A 
ATOM      8  C   UNL     1       0.608  -5.678   1.951  0.00  0.00    +0.042 A 
ATOM      9  C   UNL     1      -0.518  -4.897   2.292  0.00  0.00    +0.254 A 
ATOM     10  O   UNL     1      -1.603  -5.179   1.813  0.00  0.00    -0.268 OA
ATOM     11  N   UNL     1      -0.423  -3.851   3.131  0.00  0.00    -0.322 N 
ATOM     12  H   UNL     1      -1.217  -3.336   3.344  0.00  0.00    +0.169 HD
ATOM     13  C   UNL     1       0.786  -3.501   3.693  0.00  0.00    +0.049 A 
ATOM     14  C   UNL     1       0.883  -2.422   4.566  0.00  0.00    +0.029 A 
ENDBRANCH   1   8
BRANCH   1  15
ATOM     15  C   UNL     1       1.735  -7.637   0.979  0.00  0.00    +0.173 A 
ATOM     16  N   UNL     1       2.313  -8.224   1.999  0.00  0.00    -0.111 NA
ATOM     17  N   UNL     1       3.383  -8.801   1.572  0.00  0.00    -0.023 NA
ATOM     18  N   UNL     1       3.502  -8.598   0.306  0.00  0.00    -0.044 NA
ATOM     19  N   UNL     1       2.503  -7.889  -0.098  0.00  0.00    -0.223 N 
BRANCH  19  20
ATOM     20  C   UNL     1       2.253  -7.439  -1.469  0.00  0.00    +0.182 C 
BRANCH  20  21
ATOM     21  C   UNL     1       2.931  -6.113  -1.694  0.00  0.00    -0.026 A 
ATOM     22  C   UNL     1       2.270  -4.938  -1.387  0.00  0.00    +0.005 A 
ATOM     23  C   UNL     1       2.892  -3.721  -1.594  0.00  0.00    +0.000 A 
ATOM     24  C   UNL     1       4.175  -3.679  -2.107  0.00  0.00    +0.000 A 
ATOM     25  C   UNL     1       4.836  -4.853  -2.413  0.00  0.00    +0.000 A 
ATOM     26  C   UNL     1       4.216  -6.071  -2.203  0.00  0.00    +0.005 A 
ENDBRANCH  20  21
ENDBRANCH  19  20
ENDBRANCH   1  15
BRANCH   1  27
ATOM     27  N   UNL     1      -0.646  -7.700   1.459  0.00  0.00    -0.277 NA
BRANCH  27  28
ATOM     28  C   UNL     1      -1.087  -8.602   0.386  0.00  0.00    +0.122 C 
BRANCH  28  29
ATOM     29  C   UNL     1      -1.978  -7.849  -0.568  0.00  0.00    -0.015 A 
ATOM     30  C   UNL     1      -3.323  -7.671  -0.281  0.00  0.00    +0.008 A 
ATOM     31  C   UNL     1      -4.105  -6.972  -1.187  0.00  0.00    +0.020 A 
ATOM     32  C   UNL     1      -3.522  -6.478  -2.339  0.00  0.00    +0.111 A 
ATOM     33  N   UNL     1      -2.239  -6.666  -2.579  0.00  0.00    -0.263 NA
ATOM     34  C   UNL     1      -1.464  -7.321  -1.737  0.00  0.00    +0.115 A 
ENDBRANCH  28  29
ENDBRANCH  27  28
BRANCH  27  35
ATOM     35  C   UNL     1      -0.264  -8.458   2.659  0.00  0.00    +0.160 C 
BRANCH  35  36
ATOM     36  C   UNL     1      -0.310  -7.551   3.861  0.00  0.00    +0.119 A 
ATOM     37  C   UNL     1      -1.412  -7.229   4.562  0.00  0.00    +0.046 A 
ATOM     38  C   UNL     1      -1.000  -6.360   5.598  0.00  0.00    +0.041 A 
ATOM     39  C   UNL     1       0.330  -6.203   5.468  0.00  0.00    +0.195 A 
ATOM     40  O   UNL     1       0.743  -6.930   4.418  0.00  0.00    -0.467 OA
ENDBRANCH  35  36
ENDBRANCH  27  35
ENDBRANCH   1  27
TORSDOF 9
