REMARK  Name = ZINC36051395
REMARK  11 active torsions:
REMARK  status: ('A' for Active; 'I' for Inactive)
REMARK    1  A    between atoms: C_1  and  C_2
REMARK    2  A    between atoms: C_5  and  N_8
REMARK    3  A    between atoms: C_10  and  C_31
REMARK    4  A    between atoms: C_14  and  C_16
REMARK    5  A    between atoms: C_16  and  N_17
REMARK    6  A    between atoms: N_17  and  C_18
REMARK    7  A    between atoms: C_18  and  C_19
REMARK    8  A    between atoms: C_19  and  O_20
REMARK    9  A    between atoms: O_20  and  C_21
REMARK   10  A    between atoms: C_22  and  C_24
REMARK   11  A    between atoms: C_24  and  C_25
REMARK                            x       y       z     vdW  Elec       q    Type
REMARK                         _______ _______ _______ _____ _____    ______ ____
ROOT
ATOM      1  N   UNL     1       0.059  -4.172  -0.021  0.00  0.00    -0.287 N 
ATOM      2  C   UNL     1      -0.777  -4.995  -0.736  0.00  0.00    +0.122 A 
ATOM      3  C   UNL     1      -0.412  -6.270  -0.451  0.00  0.00    +0.091 A 
ATOM      4  N   UNL     1       0.622  -6.224   0.417  0.00  0.00    -0.214 NA
ATOM      5  C   UNL     1       0.914  -4.974   0.676  0.00  0.00    +0.207 A 
ATOM      6  N   UNL     1       1.924  -4.537   1.522  0.00  0.00    -0.254 N 
ATOM      7  C   UNL     1       2.706  -5.434   2.156  0.00  0.00    +0.237 C 
ATOM      8  O   UNL     1       2.527  -6.621   1.988  0.00  0.00    -0.274 OA
ATOM      9  H   UNL     1       2.067  -3.588   1.657  0.00  0.00    +0.158 HD
ENDROOT
BRANCH   1  14
ATOM     10  C   UNL     1      -0.018   1.503   0.010  0.00  0.00    +0.044 C 
ATOM     11  C   UNL     1       0.002  -0.004   0.002  0.00  0.00    -0.050 A 
ATOM     12  C   UNL     1       0.006  -0.688  -1.200  0.00  0.00    +0.005 A 
ATOM     13  C   UNL     1       0.025  -2.068  -1.211  0.00  0.00    +0.026 A 
ATOM     14  C   UNL     1       0.040  -2.771  -0.013  0.00  0.00    +0.049 A 
ATOM     15  C   UNL     1       0.037  -2.082   1.192  0.00  0.00    +0.026 A 
ATOM     16  C   UNL     1       0.023  -0.700   1.196  0.00  0.00    +0.005 A 
ENDBRANCH   1  14
BRANCH   3  17
ATOM     17  C   UNL     1      -1.038  -7.499  -0.997  0.00  0.00    +0.002 A 
ATOM     18  C   UNL     1      -2.100  -7.403  -1.895  0.00  0.00    +0.011 A 
ATOM     19  C   UNL     1      -2.679  -8.550  -2.400  0.00  0.00    +0.020 A 
ATOM     20  C   UNL     1      -2.206  -9.793  -2.017  0.00  0.00    +0.041 A 
ATOM     21  C   UNL     1      -1.151  -9.894  -1.126  0.00  0.00    +0.020 A 
ATOM     22  C   UNL     1      -0.562  -8.753  -0.619  0.00  0.00    +0.011 A 
ATOM     23 CL   UNL     1      -2.939 -11.231  -2.656  0.00  0.00    -0.084 Cl
ENDBRANCH   3  17
BRANCH   7  24
ATOM     24  C   UNL     1       3.803  -4.960   3.075  0.00  0.00    +0.203 C 
BRANCH  24  25
ATOM     25  N   UNL     1       4.503  -6.117   3.637  0.00  0.00    -0.290 N 
ATOM     26  C   UNL     1       4.080  -6.665   4.793  0.00  0.00    +0.220 C 
ATOM     27  O   UNL     1       3.119  -6.199   5.369  0.00  0.00    -0.275 OA
BRANCH  25  28
ATOM     28  C   UNL     1       5.664  -6.680   2.942  0.00  0.00    +0.136 C 
BRANCH  28  29
ATOM     29  C   UNL     1       6.937  -5.991   3.437  0.00  0.00    +0.178 C 
BRANCH  29  30
ATOM     30  O   UNL     1       7.138  -6.298   4.818  0.00  0.00    -0.381 OA
ATOM     31  C   UNL     1       8.308  -5.701   5.382  0.00  0.00    +0.194 C 
ENDBRANCH  29  30
ENDBRANCH  28  29
ENDBRANCH  25  28
BRANCH  26  32
ATOM     32  C   UNL     1       4.800  -7.856   5.372  0.00  0.00    +0.131 C 
BRANCH  32  33
ATOM     33  C   UNL     1       4.132  -8.271   6.657  0.00  0.00    -0.039 A 
ATOM     34  C   UNL     1       4.544  -7.723   7.858  0.00  0.00    +0.004 A 
ATOM     35  C   UNL     1       3.932  -8.104   9.037  0.00  0.00    +0.000 A 
ATOM     36  C   UNL     1       2.908  -9.032   9.016  0.00  0.00    +0.000 A 
ATOM     37  C   UNL     1       2.495  -9.579   7.815  0.00  0.00    +0.000 A 
ATOM     38  C   UNL     1       3.105  -9.195   6.635  0.00  0.00    +0.004 A 
ENDBRANCH  32  33
ENDBRANCH  26  32
ENDBRANCH  24  25
ENDBRANCH   7  24
TORSDOF 9
