REMARK  Name = ZINC55543029
REMARK  5 active torsions:
REMARK  status: ('A' for Active; 'I' for Inactive)
REMARK    1  A    between atoms: C_1  and  C_2
REMARK    2  A    between atoms: C_7  and  N_8
REMARK    3  A    between atoms: N_11  and  C_14
REMARK    4  A    between atoms: C_14  and  C_15
REMARK    5  A    between atoms: C_18  and  N_21
REMARK                            x       y       z     vdW  Elec       q    Type
REMARK                         _______ _______ _______ _____ _____    ______ ____
ROOT
ATOM      1  N   UNL     1       0.025  -0.016   2.415  0.00  0.00    -0.327 N 
ATOM      2  C   UNL     1      -1.236   0.334   3.087  0.00  0.00    +0.120 C 
ATOM      3  C   UNL     1      -1.209   1.828   3.425  0.00  0.00    +0.103 C 
ATOM      4  N   UNL     1       0.008   2.132   4.190  0.00  0.00    -0.295 NA
ATOM      5  C   UNL     1       1.216   1.872   3.396  0.00  0.00    +0.103 C 
ATOM      6  C   UNL     1       1.288   0.373   3.060  0.00  0.00    +0.120 C 
ENDROOT
BRANCH   1  13
ATOM      7  C   UNL     1      -0.018   1.503   0.010  0.00  0.00    +0.045 C 
ATOM      8  C   UNL     1       0.002  -0.004   0.002  0.00  0.00    -0.029 A 
ATOM      9  C   UNL     1       0.006  -0.689  -1.198  0.00  0.00    +0.005 A 
ATOM     10  C   UNL     1       0.024  -2.071  -1.206  0.00  0.00    +0.000 A 
ATOM     11  C   UNL     1       0.039  -2.773  -0.014  0.00  0.00    +0.002 A 
ATOM     12  C   UNL     1       0.036  -2.095   1.188  0.00  0.00    +0.023 A 
ATOM     13  C   UNL     1       0.023  -0.706   1.200  0.00  0.00    +0.033 A 
ENDBRANCH   1  13
BRANCH   4  14
ATOM     14  C   UNL     1      -0.011   3.517   4.681  0.00  0.00    +0.119 C 
BRANCH  14  15
ATOM     15  C   UNL     1       1.119   3.719   5.657  0.00  0.00    -0.033 A 
ATOM     16  C   UNL     1       0.921   3.478   7.003  0.00  0.00    +0.007 A 
ATOM     17  C   UNL     1       1.958   3.663   7.899  0.00  0.00    +0.033 A 
ATOM     18  C   UNL     1       3.192   4.090   7.448  0.00  0.00    +0.126 A 
ATOM     19  C   UNL     1       3.391   4.330   6.101  0.00  0.00    +0.033 A 
ATOM     20  C   UNL     1       2.356   4.141   5.205  0.00  0.00    +0.007 A 
BRANCH  18  21
ATOM     21  N   UNL     1       4.302   4.289   8.406  0.00  0.00    +0.056 N 
ATOM     22  O   UNL     1       4.129   4.079   9.584  0.00  0.00    -0.126 OA
ATOM     23  O   UNL     1       5.383   4.662   8.012  0.00  0.00    -0.126 OA
ENDBRANCH  18  21
ENDBRANCH  14  15
ENDBRANCH   4  14
TORSDOF 4
