REMARK  Name = ZINC00919159
REMARK  9 active torsions:
REMARK  status: ('A' for Active; 'I' for Inactive)
REMARK    1  A    between atoms: C_1  and  C_2
REMARK    2  A    between atoms: C_4  and  C_39
REMARK    3  A    between atoms: C_5  and  S_9
REMARK    4  A    between atoms: C_6  and  C_8
REMARK    5  A    between atoms: S_9  and  N_12
REMARK    6  A    between atoms: N_12  and  C_13
REMARK    7  A    between atoms: N_12  and  C_23
REMARK    8  A    between atoms: C_13  and  C_14
REMARK    9  A    between atoms: C_23  and  C_24
REMARK                            x       y       z     vdW  Elec       q    Type
REMARK                         _______ _______ _______ _____ _____    ______ ____
ROOT
ATOM      1  N   UNL     1      -1.960  -1.155  -0.018  0.00  0.00    -0.168 NA
ENDROOT
BRANCH   1   2
ATOM      2  S   UNL     1      -2.373  -0.449  -1.458  0.00  0.00    +0.062 S 
ATOM      3  O   UNL     1      -1.617  -1.108  -2.465  0.00  0.00    -0.153 OA
ATOM      4  O   UNL     1      -3.792  -0.386  -1.488  0.00  0.00    -0.153 OA
BRANCH   2   9
ATOM      5  C   UNL     1      -0.401   5.251  -1.280  0.00  0.00    +0.044 C 
ATOM      6  C   UNL     1      -0.893   3.828  -1.325  0.00  0.00    -0.050 A 
ATOM      7  C   UNL     1      -0.036   2.811  -1.703  0.00  0.00    +0.008 A 
ATOM      8  C   UNL     1      -0.488   1.505  -1.744  0.00  0.00    -0.024 A 
ATOM      9  C   UNL     1      -1.797   1.216  -1.406  0.00  0.00    +0.111 A 
ATOM     10  C   UNL     1      -2.655   2.233  -1.032  0.00  0.00    -0.024 A 
ATOM     11  C   UNL     1      -2.202   3.538  -0.986  0.00  0.00    +0.008 A 
ATOM     12  C   UNL     1      -4.084   1.918  -0.670  0.00  0.00    +0.046 C 
ATOM     13  C   UNL     1       0.447   0.397  -2.157  0.00  0.00    +0.046 C 
ENDBRANCH   2   9
ENDBRANCH   1   2
BRANCH   1  14
ATOM     14  C   UNL     1      -0.783  -2.023   0.061  0.00  0.00    +0.145 C 
BRANCH  14  15
ATOM     15  C   UNL     1      -1.215  -3.464  -0.031  0.00  0.00    -0.028 A 
ATOM     16  C   UNL     1      -1.519  -4.168   1.119  0.00  0.00    +0.009 A 
ATOM     17  C   UNL     1      -1.921  -5.488   1.039  0.00  0.00    +0.050 A 
ATOM     18  C   UNL     1      -2.009  -6.113  -0.195  0.00  0.00    +0.166 A 
ATOM     19  C   UNL     1      -1.697  -5.405  -1.353  0.00  0.00    +0.167 A 
ATOM     20  C   UNL     1      -1.301  -4.081  -1.266  0.00  0.00    +0.054 A 
ATOM     21  O   UNL     1      -1.860  -6.232  -2.427  0.00  0.00    -0.453 OA
ATOM     22  C   UNL     1      -1.879  -7.566  -1.885  0.00  0.00    +0.466 C 
ATOM     23  O   UNL     1      -2.367  -7.383  -0.543  0.00  0.00    -0.453 OA
ENDBRANCH  14  15
ENDBRANCH   1  14
BRANCH   1  24
ATOM     24  C   UNL     1      -2.773  -0.911   1.176  0.00  0.00    +0.150 C 
BRANCH  24  25
ATOM     25  C   UNL     1      -2.003  -0.042   2.138  0.00  0.00    +0.033 A 
ATOM     26  C   UNL     1      -2.167   1.305   2.112  0.00  0.00    +0.020 A 
ATOM     27  C   UNL     1      -1.407   2.120   3.058  0.00  0.00    +0.003 A 
ATOM     28  C   UNL     1      -1.534   3.515   3.075  0.00  0.00    +0.059 A 
ATOM     29  C   UNL     1      -0.807   4.256   3.979  0.00  0.00    +0.167 A 
ATOM     30  C   UNL     1       0.058   3.621   4.880  0.00  0.00    +0.168 A 
ATOM     31  C   UNL     1       0.191   2.245   4.869  0.00  0.00    +0.075 A 
ATOM     32  C   UNL     1      -0.535   1.483   3.963  0.00  0.00    +0.053 A 
ATOM     33  N   UNL     1      -0.415   0.108   3.937  0.00  0.00    -0.322 N 
ATOM     34  H   UNL     1       0.205  -0.344   4.579  0.00  0.00    +0.169 HD
ATOM     35  C   UNL     1      -1.117  -0.632   3.062  0.00  0.00    +0.254 A 
ATOM     36  O   UNL     1      -0.985  -1.844   3.068  0.00  0.00    -0.268 OA
ATOM     37  O   UNL     1       0.649   4.574   5.657  0.00  0.00    -0.453 OA
ATOM     38  C   UNL     1      -0.162   5.753   5.506  0.00  0.00    +0.466 C 
ATOM     39  O   UNL     1      -0.750   5.603   4.201  0.00  0.00    -0.453 OA
ENDBRANCH  24  25
ENDBRANCH   1  24
TORSDOF 6
