REMARK  Name = ZINC22532659
REMARK  12 active torsions:
REMARK  status: ('A' for Active; 'I' for Inactive)
REMARK    1  A    between atoms: C_1  and  C_2
REMARK    2  A    between atoms: C_2  and  C_3
REMARK    3  A    between atoms: C_2  and  C_4
REMARK    4  A    between atoms: C_7  and  C_10
REMARK    5  A    between atoms: C_10  and  S_11
REMARK    6  A    between atoms: S_11  and  C_12
REMARK    7  A    between atoms: C_15  and  S_17
REMARK    8  A    between atoms: S_17  and  C_18
REMARK    9  A    between atoms: C_18  and  C_20
REMARK   10  A    between atoms: C_18  and  C_23
REMARK   11  A    between atoms: C_20  and  C_21
REMARK   12  A    between atoms: C_20  and  C_22
REMARK                            x       y       z     vdW  Elec       q    Type
REMARK                         _______ _______ _______ _____ _____    ______ ____
ROOT
ATOM      1  C   UNL     1       1.177  -4.522  -1.457  0.00  0.00    +0.160 A 
ATOM      2  N   UNL     1       1.114  -5.291  -0.387  0.00  0.00    -0.134 NA
ATOM      3  N   UNL     1       1.190  -6.658  -0.521  0.00  0.00    -0.134 NA
ATOM      4  C   UNL     1       1.326  -7.194  -1.719  0.00  0.00    +0.160 A 
ATOM      5  S   UNL     1       1.346  -5.738  -2.755  0.00  0.00    -0.033 S 
ENDROOT
BRANCH   1   6
ATOM      6  S   UNL     1       1.105  -2.766  -1.576  0.00  0.00    -0.092 S 
BRANCH   6   7
ATOM      7  C   UNL     1       0.921  -2.217   0.143  0.00  0.00    +0.111 C 
BRANCH   7  11
ATOM      8  C   UNL     1       0.709   2.048   0.262  0.00  0.00    -0.045 A 
ATOM      9  C   UNL     1      -0.448   1.302   0.133  0.00  0.00    +0.004 A 
ATOM     10  C   UNL     1      -0.379  -0.078   0.094  0.00  0.00    +0.005 A 
ATOM     11  C   UNL     1       0.846  -0.712   0.185  0.00  0.00    -0.037 A 
ATOM     12  C   UNL     1       2.003   0.034   0.313  0.00  0.00    +0.005 A 
ATOM     13  C   UNL     1       1.934   1.414   0.351  0.00  0.00    +0.004 A 
BRANCH   8  15
ATOM     14  C   UNL     1       1.213   4.056   1.628  0.00  0.00    +0.012 C 
ATOM     15  C   UNL     1       0.634   3.553   0.304  0.00  0.00    +0.013 C 
ATOM     16  C   UNL     1       1.440   4.136  -0.859  0.00  0.00    +0.012 C 
ENDBRANCH   8  15
ENDBRANCH   7  11
ENDBRANCH   6   7
ENDBRANCH   1   6
BRANCH   4  17
ATOM     17  S   UNL     1       1.447  -8.891  -2.176  0.00  0.00    -0.084 S 
BRANCH  17  18
ATOM     18  C   UNL     1       1.484  -9.771  -0.590  0.00  0.00    +0.142 C 
BRANCH  18  19
ATOM     19  C   UNL     1       0.154  -9.614   0.103  0.00  0.00    +0.234 C 
ATOM     20  O   UNL     1      -0.845  -9.393  -0.547  0.00  0.00    -0.274 OA
ATOM     21  N   UNL     1       0.077  -9.718   1.444  0.00  0.00    -0.239 N 
ATOM     22  C   UNL     1      -1.112  -9.578   2.064  0.00  0.00    +0.303 C 
ATOM     23  O   UNL     1      -2.114  -9.357   1.412  0.00  0.00    -0.253 OA
ATOM     24  N   UNL     1      -1.189  -9.683   3.405  0.00  0.00    -0.313 N 
ATOM     25  H   UNL     1       0.984  -9.918   2.034  0.00  0.00    +0.159 HD
ATOM     26  H   UNL     1      -2.159  -9.568   3.911  0.00  0.00    +0.146 HD
ATOM     27  H   UNL     1      -0.282  -9.883   3.994  0.00  0.00    +0.146 HD
ENDBRANCH  18  19
BRANCH  18  28
ATOM     28  C   UNL     1       1.758 -11.256  -0.837  0.00  0.00    +0.005 C 
ATOM     29  C   UNL     1       3.111 -11.415  -1.533  0.00  0.00    +0.009 C 
ATOM     30  C   UNL     1       1.782 -11.999   0.500  0.00  0.00    +0.009 C 
ENDBRANCH  18  28
ENDBRANCH  17  18
ENDBRANCH   4  17
TORSDOF 8
