REMARK  Name = ZINC39909991
REMARK  4 active torsions:
REMARK  status: ('A' for Active; 'I' for Inactive)
REMARK    1  A    between atoms: C_1  and  C_2
REMARK    2  A    between atoms: C_5  and  N_9
REMARK    3  A    between atoms: C_6  and  C_8
REMARK    4  A    between atoms: C_13  and  C_14
REMARK                            x       y       z     vdW  Elec       q    Type
REMARK                         _______ _______ _______ _____ _____    ______ ____
ROOT
ATOM      1  N   UNL     1      -0.001  -4.197  -0.663  0.00  0.00    -0.223 N 
ATOM      2  C   UNL     1      -1.132  -4.858  -0.483  0.00  0.00    +0.262 C 
ATOM      3  O   UNL     1      -2.212  -4.299  -0.508  0.00  0.00    -0.269 OA
ATOM      4  C   UNL     1      -1.012  -6.318  -0.247  0.00  0.00    +0.075 C 
ATOM      5  C   UNL     1      -1.969  -7.230  -0.037  0.00  0.00    +0.024 C 
ATOM      6  S   UNL     1       0.762  -6.525  -0.324  0.00  0.00    -0.061 S 
ATOM      7  C   UNL     1       1.194  -4.821  -0.639  0.00  0.00    +0.125 C 
ATOM      8  S   UNL     1       2.751  -4.144  -0.858  0.00  0.00    -0.027 S 
ENDROOT
BRANCH   1  13
ATOM      9  C   UNL     1      -0.182   1.401  -1.582  0.00  0.00    +0.044 C 
ATOM     10  C   UNL     1      -0.134  -0.086  -1.338  0.00  0.00    -0.050 A 
ATOM     11  C   UNL     1      -0.191  -0.963  -2.406  0.00  0.00    +0.005 A 
ATOM     12  C   UNL     1      -0.146  -2.325  -2.186  0.00  0.00    +0.024 A 
ATOM     13  C   UNL     1      -0.045  -2.814  -0.890  0.00  0.00    +0.046 A 
ATOM     14  C   UNL     1       0.011  -1.932   0.180  0.00  0.00    -0.028 A 
ATOM     15  C   UNL     1      -0.028  -0.570  -0.047  0.00  0.00    +0.008 A 
ATOM     16  C   UNL     1       0.120  -2.459   1.588  0.00  0.00    +0.046 C 
ENDBRANCH   1  13
BRANCH   5  17
ATOM     17  C   UNL     1      -3.408  -6.799   0.080  0.00  0.00    +0.152 C 
ATOM     18  C   UNL     1      -4.033  -7.390   1.324  0.00  0.00    +0.005 C 
ATOM     19  C   UNL     1      -5.039  -8.154   0.901  0.00  0.00    +0.017 C 
ATOM     20  C   UNL     1      -5.112  -8.099  -0.560  0.00  0.00    +0.105 C 
ATOM     21  N   UNL     1      -4.191  -7.330  -1.043  0.00  0.00    -0.280 NA
ENDBRANCH   5  17
TORSDOF 2
