REMARK  Name = ZINC13063929
REMARK  11 active torsions:
REMARK  status: ('A' for Active; 'I' for Inactive)
REMARK    1  A    between atoms: C_1  and  C_2
REMARK    2  A    between atoms: C_2  and  C_3
REMARK    3  A    between atoms: C_3  and  C_5
REMARK    4  A    between atoms: C_3  and  N_66
REMARK    5  A    between atoms: N_9  and  C_10
REMARK    6  A    between atoms: C_10  and  C_11
REMARK    7  A    between atoms: C_18  and  C_19
REMARK    8  A    between atoms: C_18  and  N_66
REMARK    9  A    between atoms: C_25  and  C_26
REMARK   10  A    between atoms: C_25  and  N_66
REMARK   11  A    between atoms: C_31  and  C_38
REMARK                            x       y       z     vdW  Elec       q    Type
REMARK                         _______ _______ _______ _____ _____    ______ ____
ROOT
ATOM      1  N   UNL     1       0.347   4.516  -1.270  0.00  0.00    +0.392 N 
ATOM      2  H   UNL     1      -0.660   4.714  -1.291  0.00  0.00    -0.080 HD
ENDROOT
BRANCH   1   3
ATOM      3  C   UNL     1       0.703   3.972   0.058  0.00  0.00    +0.003 C 
BRANCH   3   4
ATOM      4  C   UNL     1       2.106   3.424   0.046  0.00  0.00    +0.138 A 
ATOM      5  N   UNL     1       2.620   2.609  -0.843  0.00  0.00    -0.115 NA
ATOM      6  N   UNL     1       3.841   2.373  -0.507  0.00  0.00    -0.023 NA
ATOM      7  N   UNL     1       4.120   3.016   0.572  0.00  0.00    -0.044 NA
ATOM      8  N   UNL     1       3.076   3.676   0.945  0.00  0.00    -0.226 N 
BRANCH   8   9
ATOM      9  C   UNL     1       2.966   4.539   2.124  0.00  0.00    +0.182 C 
BRANCH   9  10
ATOM     10  C   UNL     1       3.356   5.947   1.754  0.00  0.00    -0.026 A 
ATOM     11  C   UNL     1       4.672   6.352   1.873  0.00  0.00    +0.008 A 
ATOM     12  C   UNL     1       5.032   7.642   1.529  0.00  0.00    +0.038 A 
ATOM     13  C   UNL     1       4.071   8.531   1.077  0.00  0.00    +0.123 A 
ATOM     14  C   UNL     1       2.752   8.125   0.964  0.00  0.00    +0.038 A 
ATOM     15  C   UNL     1       2.396   6.833   1.302  0.00  0.00    +0.008 A 
ATOM     16  F   UNL     1       4.421   9.793   0.745  0.00  0.00    -0.205 F 
ENDBRANCH   9  10
ENDBRANCH   8   9
ENDBRANCH   3   4
BRANCH   3  18
ATOM     17  C   UNL     1      -1.705   3.409   0.418  0.00  0.00    +0.002 C 
ATOM     18  C   UNL     1      -0.279   2.853   0.410  0.00  0.00    -0.011 C 
ENDBRANCH   3  18
ENDBRANCH   1   3
BRANCH   1  19
ATOM     19  C   UNL     1       0.665   3.528  -2.322  0.00  0.00    -0.042 C 
BRANCH  19  20
ATOM     20  C   UNL     1      -0.352   2.417  -2.265  0.00  0.00    -0.064 A 
ATOM     21  C   UNL     1       0.047   1.129  -1.963  0.00  0.00    +0.002 A 
ATOM     22  C   UNL     1      -0.887   0.112  -1.906  0.00  0.00    +0.000 A 
ATOM     23  C   UNL     1      -2.218   0.380  -2.162  0.00  0.00    +0.000 A 
ATOM     24  C   UNL     1      -2.617   1.667  -2.470  0.00  0.00    +0.000 A 
ATOM     25  C   UNL     1      -1.684   2.686  -2.522  0.00  0.00    +0.002 A 
ENDBRANCH  19  20
ENDBRANCH   1  19
BRANCH   1  26
ATOM     26  C   UNL     1       1.088   5.772  -1.516  0.00  0.00    -0.036 C 
BRANCH  26  27
ATOM     27  C   UNL     1       0.600   6.380  -2.805  0.00  0.00    +0.001 A 
ATOM     28  C   UNL     1      -0.382   7.315  -2.782  0.00  0.00    +0.017 A 
ATOM     29  C   UNL     1      -0.833   7.886  -4.053  0.00  0.00    -0.001 A 
ATOM     30  C   UNL     1      -1.842   8.854  -4.092  0.00  0.00    +0.010 A 
ATOM     31  C   UNL     1      -2.240   9.368  -5.294  0.00  0.00    +0.004 A 
ATOM     32  C   UNL     1      -1.653   8.938  -6.476  0.00  0.00    -0.048 A 
ATOM     33  C   UNL     1      -0.656   7.986  -6.460  0.00  0.00    +0.029 A 
ATOM     34  C   UNL     1      -0.235   7.448  -5.249  0.00  0.00    +0.049 A 
ATOM     35  N   UNL     1       0.760   6.495  -5.204  0.00  0.00    -0.322 N 
ATOM     36  H   UNL     1       1.172   6.194  -6.029  0.00  0.00    +0.169 HD
ATOM     37  C   UNL     1       1.172   5.979  -4.032  0.00  0.00    +0.251 A 
ATOM     38  O   UNL     1       2.057   5.142  -4.030  0.00  0.00    -0.268 OA
ATOM     39  C   UNL     1      -2.108   9.520  -7.789  0.00  0.00    +0.044 C 
ENDBRANCH  26  27
ENDBRANCH   1  26
TORSDOF 9
