REMARK  Name = ZINC10083445
REMARK  11 active torsions:
REMARK  status: ('A' for Active; 'I' for Inactive)
REMARK    1  A    between atoms: C_1  and  C_2
REMARK    2  A    between atoms: C_5  and  C_8
REMARK    3  A    between atoms: C_11  and  S_14
REMARK    4  A    between atoms: N_12  and  N_13
REMARK    5  A    between atoms: S_14  and  C_15
REMARK    6  A    between atoms: C_15  and  C_16
REMARK    7  A    between atoms: N_18  and  C_19
REMARK    8  A    between atoms: C_20  and  C_32
REMARK    9  A    between atoms: C_21  and  C_31
REMARK   10  A    between atoms: C_22  and  C_30
REMARK   11  A    between atoms: N_23  and  C_24
REMARK                            x       y       z     vdW  Elec       q    Type
REMARK                         _______ _______ _______ _____ _____    ______ ____
ROOT
ATOM      1  C   UNL     1      -3.549   2.278   4.869  0.00  0.00    +0.229 C 
ATOM      2  O   UNL     1      -2.508   2.448   5.466  0.00  0.00    -0.275 OA
ATOM      3  N   UNL     1      -3.555   1.601   3.704  0.00  0.00    -0.270 N 
ATOM      4  H   UNL     1      -4.371   1.540   3.182  0.00  0.00    +0.156 HD
ENDROOT
BRANCH   3   5
ATOM      5  C   UNL     1      -2.396   0.989   3.251  0.00  0.00    +0.128 A 
ATOM      6  C   UNL     1      -2.277  -0.328   2.829  0.00  0.00    +0.095 A 
ATOM      7  C   UNL     1      -0.870  -0.507   2.451  0.00  0.00    -0.010 A 
ATOM      8  C   UNL     1      -0.261   0.673   2.654  0.00  0.00    +0.027 A 
ATOM      9  N   UNL     1      -1.174   1.577   3.135  0.00  0.00    -0.300 N 
ATOM     10  C   UNL     1       1.195   0.959   2.393  0.00  0.00    +0.064 C 
ATOM     11  C   UNL     1      -0.232  -1.769   1.930  0.00  0.00    +0.047 C 
BRANCH   9  12
ATOM     12  C   UNL     1      -0.889   2.910   3.458  0.00  0.00    +0.048 A 
ATOM     13  C   UNL     1      -0.095   3.205   4.558  0.00  0.00    +0.026 A 
ATOM     14  C   UNL     1       0.187   4.520   4.872  0.00  0.00    +0.002 A 
ATOM     15  C   UNL     1      -0.330   5.543   4.098  0.00  0.00    +0.000 A 
ATOM     16  C   UNL     1      -1.125   5.253   3.005  0.00  0.00    +0.002 A 
ATOM     17  C   UNL     1      -1.407   3.940   2.683  0.00  0.00    +0.026 A 
ENDBRANCH   9  12
BRANCH   6  18
ATOM     18  C   UNL     1      -3.315  -1.312   2.777  0.00  0.00    +0.103 C 
ATOM     19  N   UNL     1      -4.139  -2.094   2.736  0.00  0.00    -0.191 NA
ENDBRANCH   6  18
ENDBRANCH   3   5
BRANCH   1  20
ATOM     20  C   UNL     1      -4.837   2.823   5.430  0.00  0.00    +0.173 C 
BRANCH  20  21
ATOM     21  S   UNL     1      -4.502   3.675   6.992  0.00  0.00    -0.075 S 
BRANCH  21  25
ATOM     22  C   UNL     1      -7.856   5.079   8.421  0.00  0.00    +0.182 A 
ATOM     23  N   UNL     1      -8.239   4.497   7.309  0.00  0.00    -0.127 NA
ATOM     24  N   UNL     1      -7.224   3.982   6.711  0.00  0.00    -0.121 NA
ATOM     25  C   UNL     1      -6.132   4.197   7.411  0.00  0.00    +0.209 A 
ATOM     26  N   UNL     1      -6.495   4.905   8.521  0.00  0.00    -0.224 N 
BRANCH  22  31
ATOM     27  C   UNL     1     -11.235   7.840  12.173  0.00  0.00    +0.044 C 
ATOM     28  C   UNL     1     -10.351   7.117  11.190  0.00  0.00    -0.050 A 
ATOM     29  C   UNL     1      -8.982   7.315  11.221  0.00  0.00    +0.004 A 
ATOM     30  C   UNL     1      -8.166   6.656  10.325  0.00  0.00    +0.012 A 
ATOM     31  C   UNL     1      -8.725   5.788   9.385  0.00  0.00    +0.021 A 
ATOM     32  C   UNL     1     -10.107   5.598   9.355  0.00  0.00    +0.012 A 
ATOM     33  C   UNL     1     -10.911   6.259  10.261  0.00  0.00    +0.004 A 
ENDBRANCH  22  31
BRANCH  26  34
ATOM     34  N   UNL     1      -5.678   5.347   9.522  0.00  0.00    -0.295 N 
ATOM     35  H   UNL     1      -5.401   6.305   9.366  0.00  0.00    +0.163 HD
ATOM     36  H   UNL     1      -6.119   5.241  10.423  0.00  0.00    +0.163 HD
ENDBRANCH  26  34
ENDBRANCH  21  25
ENDBRANCH  20  21
ENDBRANCH   1  20
TORSDOF 8
