REMARK  Name = ZINC18098651
REMARK  9 active torsions:
REMARK  status: ('A' for Active; 'I' for Inactive)
REMARK    1  A    between atoms: C_1  and  C_2
REMARK    2  A    between atoms: C_3  and  O_28
REMARK    3  A    between atoms: C_4  and  C_8
REMARK    4  A    between atoms: C_11  and  O_15
REMARK    5  A    between atoms: C_13  and  O_14
REMARK    6  A    between atoms: O_15  and  C_16
REMARK    7  A    between atoms: C_16  and  C_17
REMARK    8  A    between atoms: N_20  and  C_22
REMARK    9  A    between atoms: O_28  and  C_29
REMARK                            x       y       z     vdW  Elec       q    Type
REMARK                         _______ _______ _______ _____ _____    ______ ____
ROOT
ATOM      1  C   UNL     1       0.039  -3.326  -1.582  0.00  0.00    +0.045 A 
ATOM      2  C   UNL     1      -1.045  -4.204  -1.576  0.00  0.00    +0.017 A 
ATOM      3  C   UNL     1      -1.032  -5.321  -2.384  0.00  0.00    +0.046 A 
ATOM      4  C   UNL     1       0.060  -5.577  -3.204  0.00  0.00    +0.124 A 
ATOM      5  C   UNL     1       1.143  -4.710  -3.217  0.00  0.00    +0.091 A 
ATOM      6  C   UNL     1       1.136  -3.582  -2.414  0.00  0.00    +0.130 A 
ENDROOT
BRANCH   1  10
ATOM      7  C   UNL     1      -0.018   1.503   0.010  0.00  0.00    +0.071 C 
ATOM      8  C   UNL     1       0.002  -0.004   0.002  0.00  0.00    +0.102 A 
ATOM      9  C   UNL     1       0.008  -0.813  -1.139  0.00  0.00    +0.176 A 
ATOM     10  C   UNL     1       0.028  -2.127  -0.718  0.00  0.00    +0.112 A 
ATOM     11  N   UNL     1       0.034  -2.111   0.649  0.00  0.00    -0.273 N 
ATOM     12  H   UNL     1       0.047  -2.888   1.229  0.00  0.00    +0.189 HD
ATOM     13  N   UNL     1       0.023  -0.773   1.061  0.00  0.00    -0.175 NA
BRANCH   9  14
ATOM     14  O   UNL     1      -0.004  -0.382  -2.430  0.00  0.00    -0.449 OA
BRANCH  14  15
ATOM     15  C   UNL     1       1.190  -0.164  -3.041  0.00  0.00    +0.164 A 
ATOM     16  C   UNL     1       2.374  -0.386  -2.353  0.00  0.00    +0.049 A 
ATOM     17  C   UNL     1       3.587  -0.164  -2.976  0.00  0.00    +0.004 A 
ATOM     18  C   UNL     1       3.622   0.280  -4.285  0.00  0.00    +0.003 A 
ATOM     19  C   UNL     1       2.445   0.502  -4.976  0.00  0.00    +0.042 A 
ATOM     20  C   UNL     1       1.228   0.276  -4.359  0.00  0.00    +0.165 A 
ATOM     21  F   UNL     1       0.077   0.487  -5.035  0.00  0.00    -0.202 F 
ENDBRANCH  14  15
ENDBRANCH   9  14
ENDBRANCH   1  10
BRANCH   6  22
ATOM     22  O   UNL     1       2.194  -2.729  -2.429  0.00  0.00    -0.506 OA
ATOM     23  H   UNL     1       2.883  -2.945  -1.786  0.00  0.00    +0.292 HD
ENDBRANCH   6  22
BRANCH   4  24
ATOM     24  O   UNL     1       0.067  -6.680  -3.998  0.00  0.00    -0.487 OA
BRANCH  24  25
ATOM     25  C   UNL     1      -1.079  -7.531  -3.936  0.00  0.00    +0.267 C 
BRANCH  25  26
ATOM     26  C   UNL     1      -0.893  -8.694  -4.876  0.00  0.00    +0.027 A 
ATOM     27  C   UNL     1      -1.272  -8.732  -6.223  0.00  0.00    +0.141 A 
ATOM     28  N   UNL     1      -0.948  -9.905  -6.706  0.00  0.00    -0.174 NA
ATOM     29  N   UNL     1      -0.352 -10.651  -5.681  0.00  0.00    -0.239 N 
ATOM     30  C   UNL     1      -0.325  -9.883  -4.569  0.00  0.00    +0.121 A 
BRANCH  29  31
ATOM     31  C   UNL     1       0.135 -11.961  -5.791  0.00  0.00    +0.065 A 
ATOM     32  C   UNL     1       0.700 -12.588  -4.689  0.00  0.00    +0.028 A 
ATOM     33  C   UNL     1       1.178 -13.879  -4.800  0.00  0.00    +0.002 A 
ATOM     34  C   UNL     1       1.095 -14.547  -6.008  0.00  0.00    +0.000 A 
ATOM     35  C   UNL     1       0.533 -13.925  -7.108  0.00  0.00    +0.002 A 
ATOM     36  C   UNL     1       0.048 -12.636  -7.001  0.00  0.00    +0.028 A 
ENDBRANCH  29  31
ENDBRANCH  25  26
ENDBRANCH  24  25
ENDBRANCH   4  24
TORSDOF 8
