REMARK  Name = ZINC20080057
REMARK  9 active torsions:
REMARK  status: ('A' for Active; 'I' for Inactive)
REMARK    1  A    between atoms: C_1  and  C_2
REMARK    2  A    between atoms: C_5  and  C_41
REMARK    3  A    between atoms: C_6  and  N_8
REMARK    4  A    between atoms: N_11  and  C_14
REMARK    5  A    between atoms: C_14  and  C_16
REMARK    6  A    between atoms: C_14  and  C_30
REMARK    7  A    between atoms: C_20  and  O_28
REMARK    8  A    between atoms: O_28  and  C_29
REMARK    9  A    between atoms: N_34  and  C_35
REMARK                            x       y       z     vdW  Elec       q    Type
REMARK                         _______ _______ _______ _____ _____    ______ ____
ROOT
ATOM      1  C   UNL     1       5.213   6.997   0.031  0.00  0.00    +0.162 C 
ENDROOT
BRANCH   1   2
ATOM      2  C   UNL     1       5.333   7.787   1.309  0.00  0.00    +0.042 A 
ATOM      3  C   UNL     1       6.427   7.635   2.096  0.00  0.00    +0.021 A 
ATOM      4  C   UNL     1       6.517   8.419   3.329  0.00  0.00    +0.002 A 
ATOM      5  C   UNL     1       7.623   8.308   4.177  0.00  0.00    +0.055 A 
ATOM      6  C   UNL     1       7.673   9.059   5.335  0.00  0.00    +0.121 A 
ATOM      7  C   UNL     1       6.630   9.923   5.658  0.00  0.00    +0.047 A 
ATOM      8  C   UNL     1       5.535  10.041   4.831  0.00  0.00    +0.030 A 
ATOM      9  C   UNL     1       5.464   9.294   3.660  0.00  0.00    +0.049 A 
ATOM     10  N   UNL     1       4.376   9.398   2.818  0.00  0.00    -0.322 N 
ATOM     11  H   UNL     1       3.549  10.079   3.070  0.00  0.00    +0.169 HD
ATOM     12  C   UNL     1       4.305   8.677   1.686  0.00  0.00    +0.254 A 
ATOM     13  O   UNL     1       3.329   8.795   0.966  0.00  0.00    -0.268 OA
BRANCH   6  14
ATOM     14  O   UNL     1       8.746   8.954   6.163  0.00  0.00    -0.495 OA
ATOM     15  C   UNL     1       8.735   9.759   7.344  0.00  0.00    +0.277 C 
ENDBRANCH   6  14
ENDBRANCH   1   2
BRANCH   1  19
ATOM     16  N   UNL     1       2.353   3.888   0.001  0.00  0.00    -0.327 N 
ATOM     17  C   UNL     1       2.506   4.671   1.235  0.00  0.00    +0.120 C 
ATOM     18  C   UNL     1       3.863   5.378   1.223  0.00  0.00    +0.104 C 
ATOM     19  N   UNL     1       3.952   6.243   0.039  0.00  0.00    -0.286 NA
ATOM     20  C   UNL     1       3.800   5.460  -1.195  0.00  0.00    +0.104 C 
ATOM     21  C   UNL     1       2.442   4.753  -1.183  0.00  0.00    +0.120 C 
BRANCH  16  27
ATOM     22  C   UNL     1      -2.561   3.863   0.047  0.00  0.00    +0.044 C 
ATOM     23  C   UNL     1      -1.243   3.133   0.031  0.00  0.00    -0.049 A 
ATOM     24  C   UNL     1      -1.220   1.750   0.017  0.00  0.00    +0.004 A 
ATOM     25  C   UNL     1      -0.013   1.076   0.008  0.00  0.00    +0.005 A 
ATOM     26  C   UNL     1       1.175   1.782   0.000  0.00  0.00    -0.029 A 
ATOM     27  C   UNL     1       1.155   3.171   0.008  0.00  0.00    +0.033 A 
ATOM     28  C   UNL     1      -0.060   3.845   0.023  0.00  0.00    +0.026 A 
ATOM     29  C   UNL     1       2.490   1.046  -0.017  0.00  0.00    +0.045 C 
ENDBRANCH  16  27
ENDBRANCH   1  19
BRANCH   1  30
ATOM     30  C   UNL     1       5.227   7.940  -1.145  0.00  0.00    +0.173 A 
ATOM     31  N   UNL     1       4.245   8.713  -1.540  0.00  0.00    -0.111 NA
ATOM     32  N   UNL     1       4.646   9.366  -2.576  0.00  0.00    -0.023 NA
ATOM     33  N   UNL     1       5.855   9.025  -2.855  0.00  0.00    -0.044 NA
ATOM     34  N   UNL     1       6.249   8.147  -1.996  0.00  0.00    -0.224 N 
BRANCH  34  35
ATOM     35  C   UNL     1       7.562   7.498  -1.954  0.00  0.00    +0.111 C 
ATOM     36  C   UNL     1       8.650   8.560  -1.785  0.00  0.00    +0.027 C 
ATOM     37  C   UNL     1      10.021   7.883  -1.741  0.00  0.00    +0.002 C 
ATOM     38  C   UNL     1      10.254   7.117  -3.045  0.00  0.00    +0.000 C 
ATOM     39  C   UNL     1       9.166   6.055  -3.214  0.00  0.00    +0.002 C 
ATOM     40  C   UNL     1       7.795   6.733  -3.258  0.00  0.00    +0.027 C 
ENDBRANCH  34  35
ENDBRANCH   1  30
TORSDOF 6
