REMARK  Name = ZINC06593530
REMARK  7 active torsions:
REMARK  status: ('A' for Active; 'I' for Inactive)
REMARK    1  A    between atoms: C_1  and  C_2
REMARK    2  A    between atoms: C_2  and  C_3
REMARK    3  A    between atoms: C_3  and  O_4
REMARK    4  A    between atoms: O_4  and  C_5
REMARK    5  A    between atoms: C_10  and  C_11
REMARK    6  A    between atoms: N_12  and  N_13
REMARK    7  A    between atoms: C_20  and  C_26
REMARK                            x       y       z     vdW  Elec       q    Type
REMARK                         _______ _______ _______ _____ _____    ______ ____
ROOT
ATOM      1  N   UNL     1       3.601   5.951   0.001  0.00  0.00    -0.204 N 
ATOM      2  C   UNL     1       3.578   7.335   0.008  0.00  0.00    +0.256 A 
ATOM      3  N   UNL     1       4.724   8.004   0.007  0.00  0.00    -0.192 NA
ATOM      4  C   UNL     1       4.700   9.334   0.010  0.00  0.00    +0.163 A 
ATOM      5  C   UNL     1       3.447   9.981   0.025  0.00  0.00    +0.138 A 
ATOM      6  C   UNL     1       3.729  11.427   0.031  0.00  0.00    +0.029 A 
ATOM      7  C   UNL     1       2.922  12.563   0.045  0.00  0.00    +0.015 A 
ATOM      8  C   UNL     1       3.501  13.814   0.049  0.00  0.00    -0.050 A 
ATOM      9  C   UNL     1       4.881  13.945   0.037  0.00  0.00    +0.005 A 
ATOM     10  C   UNL     1       5.691  12.829   0.022  0.00  0.00    +0.026 A 
ATOM     11  C   UNL     1       5.126  11.558   0.019  0.00  0.00    +0.050 A 
ATOM     12  N   UNL     1       5.685  10.290   0.007  0.00  0.00    -0.338 N 
ATOM     13  H   UNL     1       6.743   9.991  -0.005  0.00  0.00    +0.167 HD
ATOM     14  C   UNL     1       2.630  15.043   0.064  0.00  0.00    +0.044 C 
ATOM     15  N   UNL     1       2.339   9.255   0.030  0.00  0.00    -0.142 NA
ATOM     16  N   UNL     1       2.410   7.968   0.022  0.00  0.00    -0.111 NA
ATOM     17  H   UNL     1       4.562   5.417  -0.011  0.00  0.00    +0.177 HD
ENDROOT
BRANCH   1  19
ATOM     18  C   UNL     1       2.420   3.933   0.001  0.00  0.00    +0.142 C 
ATOM     19  N   UNL     1       2.399   5.231   0.008  0.00  0.00    -0.187 NA
BRANCH  18  25
ATOM     20  C   UNL     1      -0.071   3.852   0.023  0.00  0.00    +0.129 A 
ATOM     21  C   UNL     1      -1.254   3.131   0.031  0.00  0.00    +0.046 A 
ATOM     22  C   UNL     1      -1.222   1.749   0.017  0.00  0.00    +0.004 A 
ATOM     23  C   UNL     1      -0.013   1.076   0.008  0.00  0.00    +0.001 A 
ATOM     24  C   UNL     1       1.174   1.779   0.000  0.00  0.00    +0.013 A 
ATOM     25  C   UNL     1       1.156   3.175   0.008  0.00  0.00    +0.036 A 
BRANCH  20  26
ATOM     26  O   UNL     1      -0.101   5.210   0.032  0.00  0.00    -0.491 OA
BRANCH  26  27
ATOM     27  C   UNL     1      -1.388   5.831   0.047  0.00  0.00    +0.229 C 
BRANCH  27  29
ATOM     28  C   UNL     1      -2.599   8.016   0.071  0.00  0.00    +0.007 C 
ATOM     29  C   UNL     1      -1.221   7.352   0.054  0.00  0.00    +0.038 C 
ENDBRANCH  27  29
ENDBRANCH  26  27
ENDBRANCH  20  26
ENDBRANCH  18  25
ENDBRANCH   1  19
TORSDOF 5
