REMARK  Name = ZINC57933941
REMARK  3 active torsions:
REMARK  status: ('A' for Active; 'I' for Inactive)
REMARK    1  A    between atoms: C_2  and  C_3
REMARK    2  A    between atoms: C_3  and  N_4
REMARK    3  A    between atoms: C_12  and  C_16
REMARK                            x       y       z     vdW  Elec       q    Type
REMARK                         _______ _______ _______ _____ _____    ______ ____
ROOT
ATOM      1  N   UNL     1       1.367  -1.676   1.111  0.00  0.00    -0.264 N 
ATOM      2  C   UNL     1       1.880  -1.250   2.345  0.00  0.00    +0.061 A 
ATOM      3  C   UNL     1       2.603  -0.072   2.442  0.00  0.00    +0.074 A 
ATOM      4  C   UNL     1       3.100   0.338   3.671  0.00  0.00    +0.164 A 
ATOM      5  C   UNL     1       2.871  -0.430   4.807  0.00  0.00    +0.164 A 
ATOM      6  C   UNL     1       2.150  -1.613   4.711  0.00  0.00    +0.074 A 
ATOM      7  C   UNL     1       1.658  -2.022   3.486  0.00  0.00    +0.053 A 
ATOM      8  N   UNL     1       0.935  -3.219   3.358  0.00  0.00    -0.328 N 
ATOM      9  C   UNL     1       1.008  -3.935   2.076  0.00  0.00    +0.188 C 
ATOM     10  C   UNL     1       0.916  -2.934   0.952  0.00  0.00    +0.245 C 
ATOM     11  O   UNL     1       0.433  -3.268  -0.110  0.00  0.00    -0.273 OA
ATOM     12  O   UNL     1       3.345  -0.037   6.022  0.00  0.00    -0.485 OA
ATOM     13  C   UNL     1       4.381   0.952   6.019  0.00  0.00    +0.270 C 
ATOM     14  C   UNL     1       3.975   2.069   5.049  0.00  0.00    +0.270 C 
ATOM     15  O   UNL     1       3.813   1.496   3.747  0.00  0.00    -0.485 OA
ATOM     16  H   UNL     1       0.404  -3.564   4.094  0.00  0.00    +0.147 HD
ENDROOT
BRANCH   9  17
ATOM     17  C   UNL     1       2.314  -4.681   1.989  0.00  0.00    -0.018 A 
ATOM     18  C   UNL     1       3.476  -4.099   2.461  0.00  0.00    +0.006 A 
ATOM     19  C   UNL     1       4.674  -4.784   2.382  0.00  0.00    +0.000 A 
ATOM     20  C   UNL     1       4.711  -6.051   1.831  0.00  0.00    +0.000 A 
ATOM     21  C   UNL     1       3.549  -6.634   1.360  0.00  0.00    +0.000 A 
ATOM     22  C   UNL     1       2.350  -5.951   1.443  0.00  0.00    +0.006 A 
ENDBRANCH   9  17
BRANCH   1  23
ATOM     23  C   UNL     1       1.317  -0.740  -0.015  0.00  0.00    +0.140 C 
BRANCH  23  25
ATOM     24  C   UNL     1      -0.016   1.306   0.009  0.00  0.00    +0.005 C 
ATOM     25  C   UNL     1       0.002  -0.004   0.002  0.00  0.00    -0.015 C 
ENDBRANCH  23  25
ENDBRANCH   1  23
TORSDOF 3
