REMARK  Name = ZINC20719627
REMARK  7 active torsions:
REMARK  status: ('A' for Active; 'I' for Inactive)
REMARK    1  A    between atoms: C_1  and  C_2
REMARK    2  A    between atoms: C_2  and  N_3
REMARK    3  A    between atoms: N_3  and  C_4
REMARK    4  A    between atoms: C_10  and  C_12
REMARK    5  A    between atoms: C_25  and  C_28
REMARK    6  A    between atoms: C_37  and  O_38
REMARK    7  A    between atoms: O_38  and  C_39
REMARK                            x       y       z     vdW  Elec       q    Type
REMARK                         _______ _______ _______ _____ _____    ______ ____
ROOT
ATOM      1  C   UNL     1      -3.784   5.421  -0.831  0.00  0.00    +0.038 A 
ATOM      2  C   UNL     1      -2.954   6.311  -1.520  0.00  0.00    +0.015 A 
ATOM      3  C   UNL     1      -1.695   6.588  -1.043  0.00  0.00    +0.024 A 
ATOM      4  C   UNL     1      -1.234   5.987   0.127  0.00  0.00    +0.031 A 
ATOM      5  C   UNL     1      -2.072   5.103   0.823  0.00  0.00    -0.019 A 
ATOM      6  C   UNL     1      -3.328   4.821   0.346  0.00  0.00    +0.019 A 
ATOM      7  C   UNL     1      -1.546   4.505   2.071  0.00  0.00    +0.049 C 
ATOM      8  C   UNL     1      -2.033   3.187   2.554  0.00  0.00    -0.023 C 
ATOM      9  C   UNL     1      -1.042   2.579   3.195  0.00  0.00    -0.030 C 
ATOM     10  C   UNL     1       0.220   3.444   3.149  0.00  0.00    +0.033 C 
ATOM     11  C   UNL     1      -0.018   4.268   1.877  0.00  0.00    +0.029 C 
ATOM     12  C   UNL     1       0.601   5.653   1.821  0.00  0.00    +0.109 C 
ATOM     13  N   UNL     1       0.061   6.262   0.566  0.00  0.00    -0.336 N 
ATOM     14  H   UNL     1       0.688   6.941  -0.030  0.00  0.00    +0.147 HD
ENDROOT
BRANCH  12  15
ATOM     15  C   UNL     1       2.103   5.548   1.741  0.00  0.00    +0.022 A 
ATOM     16  C   UNL     1       2.892   5.837   2.866  0.00  0.00    -0.009 A 
ATOM     17  C   UNL     1       2.309   6.228   4.084  0.00  0.00    +0.009 A 
ATOM     18  C   UNL     1       3.104   6.501   5.154  0.00  0.00    +0.001 A 
ATOM     19  C   UNL     1       4.491   6.399   5.062  0.00  0.00    +0.001 A 
ATOM     20  C   UNL     1       5.090   6.013   3.902  0.00  0.00    +0.008 A 
ATOM     21  C   UNL     1       4.302   5.729   2.774  0.00  0.00    -0.017 A 
ATOM     22  C   UNL     1       4.887   5.345   1.554  0.00  0.00    +0.012 A 
ATOM     23  C   UNL     1       4.096   5.076   0.482  0.00  0.00    +0.046 A 
ATOM     24  C   UNL     1       2.704   5.177   0.572  0.00  0.00    +0.126 A 
BRANCH  24  25
ATOM     25  O   UNL     1       1.940   4.903  -0.518  0.00  0.00    -0.495 OA
ATOM     26  C   UNL     1       2.625   4.520  -1.711  0.00  0.00    +0.277 C 
ENDBRANCH  24  25
ENDBRANCH  12  15
BRANCH   1  28
ATOM     27  N   UNL     1      -5.815   6.049  -2.039  0.00  0.00    -0.268 N 
ATOM     28  C   UNL     1      -5.133   5.117  -1.344  0.00  0.00    +0.251 C 
ATOM     29  O   UNL     1      -5.629   4.026  -1.140  0.00  0.00    -0.270 OA
BRANCH  27  30
ATOM     30  C   UNL     1      -7.149   5.820  -2.392  0.00  0.00    +0.037 A 
ATOM     31  C   UNL     1      -7.806   6.704  -3.239  0.00  0.00    +0.023 A 
ATOM     32  C   UNL     1      -9.121   6.471  -3.591  0.00  0.00    +0.002 A 
ATOM     33  C   UNL     1      -9.787   5.367  -3.092  0.00  0.00    +0.000 A 
ATOM     34  C   UNL     1      -9.138   4.489  -2.243  0.00  0.00    +0.002 A 
ATOM     35  C   UNL     1      -7.821   4.712  -1.892  0.00  0.00    +0.023 A 
ENDBRANCH  27  30
BRANCH  27  37
ATOM     36  C   UNL     1      -4.699   7.209  -3.880  0.00  0.00    +0.025 C 
ATOM     37  C   UNL     1      -5.160   7.301  -2.424  0.00  0.00    +0.110 C 
ENDBRANCH  27  37
ENDBRANCH   1  28
TORSDOF 5
