REMARK  Name = ZINC03567807
REMARK  7 active torsions:
REMARK  status: ('A' for Active; 'I' for Inactive)
REMARK    1  A    between atoms: C_1  and  C_2
REMARK    2  A    between atoms: C_3  and  C_25
REMARK    3  A    between atoms: N_9  and  C_24
REMARK    4  A    between atoms: C_10  and  S_12
REMARK    5  A    between atoms: S_12  and  C_13
REMARK    6  A    between atoms: C_13  and  C_14
REMARK    7  A    between atoms: C_17  and  C_19
REMARK                            x       y       z     vdW  Elec       q    Type
REMARK                         _______ _______ _______ _____ _____    ______ ____
ROOT
ATOM      1  C   UNL     1       4.213  10.322  -1.504  0.00  0.00    +0.045 C 
ATOM      2  C   UNL     1       3.856   9.254  -0.503  0.00  0.00    -0.026 A 
ATOM      3  C   UNL     1       3.954   9.496   0.812  0.00  0.00    -0.008 A 
ATOM      4  S   UNL     1       3.434   7.962   1.556  0.00  0.00    -0.073 S 
ATOM      5  C   UNL     1       3.099   7.039   0.078  0.00  0.00    +0.117 A 
ATOM      6  C   UNL     1       3.401   7.949  -0.952  0.00  0.00    +0.075 A 
ATOM      7  C   UNL     1       3.219   7.463  -2.285  0.00  0.00    +0.263 A 
ATOM      8  O   UNL     1       3.455   8.181  -3.242  0.00  0.00    -0.267 OA
ATOM      9  N   UNL     1       2.783   6.203  -2.470  0.00  0.00    -0.290 N 
ATOM     10  C   UNL     1       2.512   5.386  -1.411  0.00  0.00    +0.173 A 
ATOM     11  N   UNL     1       2.667   5.809  -0.173  0.00  0.00    -0.216 NA
ATOM     12  C   UNL     1       2.594   5.700  -3.833  0.00  0.00    +0.154 C 
ATOM     13  C   UNL     1       4.399  10.762   1.498  0.00  0.00    +0.052 C 
ENDROOT
BRANCH  10  14
ATOM     14  S   UNL     1       1.942   3.744  -1.704  0.00  0.00    -0.078 S 
BRANCH  14  15
ATOM     15  C   UNL     1       1.762   3.165   0.002  0.00  0.00    +0.175 C 
BRANCH  15  16
ATOM     16  C   UNL     1       1.270   1.741  -0.001  0.00  0.00    +0.228 A 
ATOM     17  N   UNL     1       2.013   0.671  -0.014  0.00  0.00    -0.111 NA
ATOM     18  N   UNL     1       1.264  -0.375  -0.012  0.00  0.00    -0.107 NA
ATOM     19  C   UNL     1       0.002  -0.004   0.002  0.00  0.00    +0.255 A 
ATOM     20  O   UNL     1      -0.016   1.345   0.009  0.00  0.00    -0.419 OA
BRANCH  19  21
ATOM     21  C   UNL     1      -1.169  -0.893   0.009  0.00  0.00    +0.076 A 
ATOM     22  C   UNL     1      -1.215  -2.275  -0.004  0.00  0.00    +0.021 A 
ATOM     23  C   UNL     1      -2.446  -2.889   0.011  0.00  0.00    +0.008 A 
ATOM     24  C   UNL     1      -3.570  -2.126   0.026  0.00  0.00    +0.046 A 
ATOM     25  S   UNL     1      -2.904  -0.469   0.029  0.00  0.00    -0.092 S 
ENDBRANCH  19  21
ENDBRANCH  15  16
ENDBRANCH  14  15
ENDBRANCH  10  14
TORSDOF 4
