REMARK  Name = ZINC28631925
REMARK  11 active torsions:
REMARK  status: ('A' for Active; 'I' for Inactive)
REMARK    1  A    between atoms: C_1  and  C_2
REMARK    2  A    between atoms: C_2  and  C_3
REMARK    3  A    between atoms: C_3  and  C_5
REMARK    4  A    between atoms: C_3  and  C_6
REMARK    5  A    between atoms: C_6  and  C_8
REMARK    6  A    between atoms: C_6  and  N_21
REMARK    7  A    between atoms: N_10  and  N_11
REMARK    8  A    between atoms: N_11  and  C_12
REMARK    9  A    between atoms: C_12  and  N_14
REMARK   10  A    between atoms: N_14  and  C_15
REMARK   11  A    between atoms: C_22  and  C_24
REMARK                            x       y       z     vdW  Elec       q    Type
REMARK                         _______ _______ _______ _____ _____    ______ ____
ROOT
ATOM      1  C   UNL     1      -0.833  -2.453   1.464  0.00  0.00    +0.250 C 
ATOM      2  O   UNL     1       0.168  -3.135   1.512  0.00  0.00    -0.272 OA
ATOM      3  N   UNL     1      -1.427  -2.046   2.604  0.00  0.00    -0.234 N 
ATOM      4  H   UNL     1      -2.228  -1.500   2.565  0.00  0.00    +0.173 HD
ENDROOT
BRANCH   3   5
ATOM      5  N   UNL     1      -0.887  -2.412   3.844  0.00  0.00    -0.246 N 
ATOM      6  H   UNL     1      -0.086  -2.958   3.882  0.00  0.00    +0.172 HD
BRANCH   5   7
ATOM      7  C   UNL     1      -1.481  -2.006   4.983  0.00  0.00    +0.147 C 
ATOM      8  S   UNL     1      -0.822  -2.453   6.499  0.00  0.00    -0.017 S 
BRANCH   7   9
ATOM      9  N   UNL     1      -2.594  -1.247   4.930  0.00  0.00    -0.323 N 
ATOM     10  H   UNL     1      -2.967  -0.994   4.071  0.00  0.00    +0.148 HD
BRANCH   9  11
ATOM     11  C   UNL     1      -3.240  -0.805   6.169  0.00  0.00    +0.072 C 
ATOM     12  C   UNL     1      -4.186  -1.899   6.669  0.00  0.00    +0.022 C 
ATOM     13  C   UNL     1      -4.860  -1.437   7.962  0.00  0.00    +0.002 C 
ATOM     14  C   UNL     1      -5.655  -0.158   7.695  0.00  0.00    +0.000 C 
ATOM     15  C   UNL     1      -4.709   0.935   7.195  0.00  0.00    +0.002 C 
ATOM     16  C   UNL     1      -4.035   0.474   5.901  0.00  0.00    +0.022 C 
ENDBRANCH   9  11
ENDBRANCH   7   9
ENDBRANCH   5   7
ENDBRANCH   3   5
BRANCH   1  17
ATOM     17  C   UNL     1      -1.413  -2.059   0.130  0.00  0.00    +0.163 C 
BRANCH  17  18
ATOM     18  N   UNL     1      -0.592  -2.621  -0.945  0.00  0.00    -0.300 N 
ATOM     19  C   UNL     1      -1.133  -2.850  -2.157  0.00  0.00    +0.245 C 
ATOM     20  O   UNL     1      -2.304  -2.591  -2.359  0.00  0.00    -0.270 OA
ATOM     21  H   UNL     1       0.342  -2.828  -0.784  0.00  0.00    +0.150 HD
BRANCH  19  22
ATOM     22  C   UNL     1      -0.304  -3.417  -3.242  0.00  0.00    +0.037 A 
ATOM     23  C   UNL     1       1.039  -3.721  -3.012  0.00  0.00    +0.013 A 
ATOM     24  C   UNL     1       1.807  -4.250  -4.028  0.00  0.00    +0.001 A 
ATOM     25  C   UNL     1       1.249  -4.479  -5.274  0.00  0.00    +0.000 A 
ATOM     26  C   UNL     1      -0.081  -4.180  -5.508  0.00  0.00    +0.001 A 
ATOM     27  C   UNL     1      -0.862  -3.656  -4.499  0.00  0.00    +0.013 A 
ENDBRANCH  19  22
ENDBRANCH  17  18
BRANCH  17  28
ATOM     28  C   UNL     1      -1.433  -0.534   0.013  0.00  0.00    +0.015 C 
ATOM     29  C   UNL     1      -2.135  -0.131  -1.286  0.00  0.00    +0.010 C 
BRANCH  28  31
ATOM     30  C   UNL     1      -0.019   1.526   0.010  0.00  0.00    +0.004 C 
ATOM     31  C   UNL     1       0.002  -0.004   0.002  0.00  0.00    +0.002 C 
ENDBRANCH  28  31
ENDBRANCH  17  28
ENDBRANCH   1  17
TORSDOF 9
