REMARK  Name = ZINC06712367
REMARK  14 active torsions:
REMARK  status: ('A' for Active; 'I' for Inactive)
REMARK    1  A    between atoms: C_1  and  C_2
REMARK    2  A    between atoms: C_2  and  C_3
REMARK    3  A    between atoms: C_2  and  N_4
REMARK    4  A    between atoms: N_7  and  C_8
REMARK    5  A    between atoms: C_11  and  N_29
REMARK    6  A    between atoms: C_12  and  C_14
REMARK    7  A    between atoms: C_14  and  N_15
REMARK    8  A    between atoms: N_15  and  C_16
REMARK    9  A    between atoms: C_16  and  C_17
REMARK   10  A    between atoms: N_25  and  C_26
REMARK   11  A    between atoms: C_26  and  C_27
REMARK   12  A    between atoms: C_26  and  C_28
REMARK   13  A    between atoms: N_29  and  C_30
REMARK   14  A    between atoms: N_29  and  C_31
REMARK                            x       y       z     vdW  Elec       q    Type
REMARK                         _______ _______ _______ _____ _____    ______ ____
ROOT
ATOM      1  C   UNL     1      -3.213  -3.400  -1.121  0.00  0.00    +0.035 A 
ATOM      2  C   UNL     1      -2.237  -4.242  -1.636  0.00  0.00    +0.025 A 
ATOM      3  C   UNL     1      -2.594  -5.458  -2.185  0.00  0.00    +0.025 A 
ATOM      4  C   UNL     1      -3.930  -5.838  -2.222  0.00  0.00    +0.034 A 
ATOM      5  C   UNL     1      -4.906  -4.995  -1.707  0.00  0.00    -0.007 A 
ATOM      6  C   UNL     1      -4.548  -3.781  -1.154  0.00  0.00    +0.030 A 
ENDROOT
BRANCH   1  10
ATOM      7  N   UNL     1      -1.537  -0.236  -0.613  0.00  0.00    -0.297 N 
ATOM      8  C   UNL     1      -1.828  -1.463  -1.090  0.00  0.00    +0.304 C 
ATOM      9  O   UNL     1      -1.168  -1.935  -1.995  0.00  0.00    -0.253 OA
ATOM     10  N   UNL     1      -2.851  -2.165  -0.564  0.00  0.00    -0.269 N 
ATOM     11  H   UNL     1      -2.063   0.141   0.109  0.00  0.00    +0.151 HD
ATOM     12  H   UNL     1      -3.336  -1.817   0.201  0.00  0.00    +0.156 HD
BRANCH   7  14
ATOM     13  C   UNL     1      -0.665   2.022  -0.962  0.00  0.00    +0.027 C 
ATOM     14  C   UNL     1      -0.425   0.527  -1.185  0.00  0.00    +0.068 C 
ATOM     15  C   UNL     1       0.881   0.113  -0.505  0.00  0.00    +0.027 C 
ENDBRANCH   7  14
ENDBRANCH   1  10
BRANCH   4  16
ATOM     16  N   UNL     1      -4.292  -7.070  -2.778  0.00  0.00    -0.336 N 
ATOM     17  C   UNL     1      -4.461  -8.242  -1.915  0.00  0.00    +0.129 C 
ATOM     18  C   UNL     1      -4.501  -7.187  -4.223  0.00  0.00    +0.129 C 
ENDBRANCH   4  16
BRANCH   5  19
ATOM     19  C   UNL     1      -6.355  -5.407  -1.747  0.00  0.00    +0.146 C 
BRANCH  19  20
ATOM     20  N   UNL     1      -7.164  -4.415  -1.035  0.00  0.00    -0.279 N 
ATOM     21  C   UNL     1      -7.312  -4.500   0.302  0.00  0.00    +0.303 C 
ATOM     22  O   UNL     1      -8.056  -3.732   0.881  0.00  0.00    -0.253 OA
ATOM     23  N   UNL     1      -6.636  -5.436   0.996  0.00  0.00    -0.297 N 
ATOM     24  H   UNL     1      -5.987  -6.000   0.546  0.00  0.00    +0.150 HD
BRANCH  23  25
ATOM     25  C   UNL     1      -6.880  -5.602   2.431  0.00  0.00    +0.068 C 
ATOM     26  C   UNL     1      -8.006  -6.616   2.643  0.00  0.00    +0.027 C 
ATOM     27  C   UNL     1      -5.605  -6.106   3.111  0.00  0.00    +0.027 C 
ENDBRANCH  23  25
BRANCH  20  28
ATOM     28  C   UNL     1      -7.812  -3.330  -1.776  0.00  0.00    +0.141 C 
BRANCH  28  29
ATOM     29  C   UNL     1      -9.208  -3.776  -2.217  0.00  0.00    +0.136 C 
ATOM     30  C   UNL     1      -9.852  -2.686  -3.101  0.00  0.00    +0.035 C 
ATOM     31  C   UNL     1     -11.331  -2.709  -2.627  0.00  0.00    +0.031 C 
ATOM     32  C   UNL     1     -11.153  -3.039  -1.124  0.00  0.00    +0.160 C 
ATOM     33  O   UNL     1     -10.046  -3.955  -1.069  0.00  0.00    -0.375 OA
ENDBRANCH  28  29
ENDBRANCH  20  28
ENDBRANCH  19  20
ENDBRANCH   5  19
TORSDOF 8
