REMARK  Name = ZINC40072871
REMARK  7 active torsions:
REMARK  status: ('A' for Active; 'I' for Inactive)
REMARK    1  A    between atoms: C_7  and  C_10
REMARK    2  A    between atoms: C_13  and  S_19
REMARK    3  A    between atoms: N_15  and  C_16
REMARK    4  A    between atoms: S_19  and  C_20
REMARK    5  A    between atoms: C_20  and  C_21
REMARK    6  A    between atoms: C_21  and  C_23
REMARK    7  A    between atoms: C_27  and  N_29
REMARK                            x       y       z     vdW  Elec       q    Type
REMARK                         _______ _______ _______ _____ _____    ______ ____
ROOT
ATOM      1  C   UNL     1       0.656  -3.100   0.284  0.00  0.00    +0.147 C 
ATOM      2  N   UNL     1      -0.649  -3.079   0.219  0.00  0.00    -0.169 NA
ATOM      3  N   UNL     1      -1.164  -4.351  -0.060  0.00  0.00    -0.237 N 
ATOM      4  C   UNL     1      -0.007  -5.254  -0.177  0.00  0.00    +0.237 C 
ATOM      5  N   UNL     1       1.158  -4.383   0.051  0.00  0.00    -0.282 N 
ATOM      6  H   UNL     1      -2.099  -4.590  -0.157  0.00  0.00    +0.171 HD
ENDROOT
BRANCH   1  13
ATOM      7  C   UNL     1      -0.398   1.173   1.386  0.00  0.00    +0.001 A 
ATOM      8  C   UNL     1       0.717   1.995   1.566  0.00  0.00    +0.002 A 
ATOM      9  C   UNL     1       1.981   1.528   1.419  0.00  0.00    +0.026 A 
ATOM     10  C   UNL     1       2.195   0.169   1.071  0.00  0.00    +0.043 A 
ATOM     11  N   UNL     1       3.305  -0.516   0.872  0.00  0.00    -0.380 N 
ATOM     12  C   UNL     1       2.964  -1.900   0.532  0.00  0.00    +0.152 C 
ATOM     13  C   UNL     1       1.453  -1.975   0.549  0.00  0.00    +0.022 C 
ATOM     14  C   UNL     1       1.017  -0.693   0.882  0.00  0.00    +0.006 A 
ATOM     15  C   UNL     1      -0.269  -0.137   1.053  0.00  0.00    +0.010 A 
ATOM     16  H   UNL     1       4.204  -0.160   0.940  0.00  0.00    +0.160 HD
ENDBRANCH   1  13
BRANCH   5  17
ATOM     17  C   UNL     1       2.567  -4.784   0.038  0.00  0.00    +0.078 C 
ATOM     18  C   UNL     1       2.885  -6.236  -0.324  0.00  0.00    +0.024 C 
ATOM     19  C   UNL     1       3.034  -5.758   1.122  0.00  0.00    +0.024 C 
ENDBRANCH   5  17
BRANCH   4  20
ATOM     20  S   UNL     1       0.064  -5.982  -1.837  0.00  0.00    -0.110 S 
BRANCH  20  21
ATOM     21  C   UNL     1       0.173  -4.547  -2.941  0.00  0.00    +0.152 C 
BRANCH  21  22
ATOM     22  C   UNL     1       0.239  -5.018  -4.372  0.00  0.00    +0.173 C 
ATOM     23  O   UNL     1       0.215  -6.204  -4.621  0.00  0.00    -0.291 OA
BRANCH  22  24
ATOM     24  C   UNL     1       0.333  -4.038  -5.465  0.00  0.00    +0.020 A 
ATOM     25  C   UNL     1       0.366  -2.669  -5.180  0.00  0.00    +0.011 A 
ATOM     26  C   UNL     1       0.454  -1.753  -6.208  0.00  0.00    +0.002 A 
ATOM     27  C   UNL     1       0.509  -2.183  -7.521  0.00  0.00    +0.023 A 
ATOM     28  C   UNL     1       0.476  -3.541  -7.816  0.00  0.00    +0.037 A 
ATOM     29  C   UNL     1       0.394  -4.471  -6.792  0.00  0.00    +0.035 A 
BRANCH  28  30
ATOM     30  N   UNL     1       0.531  -3.969  -9.148  0.00  0.00    -0.271 N 
ATOM     31  C   UNL     1       0.759  -3.082 -10.294  0.00  0.00    +0.114 C 
ATOM     32  C   UNL     1       1.169  -4.010 -11.459  0.00  0.00    +0.029 C 
ATOM     33  C   UNL     1       0.509  -5.346 -11.045  0.00  0.00    +0.098 C 
ATOM     34  C   UNL     1       0.388  -5.247  -9.540  0.00  0.00    +0.220 C 
ATOM     35  O   UNL     1       0.187  -6.183  -8.796  0.00  0.00    -0.275 OA
ENDBRANCH  28  30
ENDBRANCH  22  24
ENDBRANCH  21  22
ENDBRANCH  20  21
ENDBRANCH   4  20
TORSDOF 7
