REMARK  Name = ZINC16437178
REMARK  19 active torsions:
REMARK  status: ('A' for Active; 'I' for Inactive)
REMARK    1  A    between atoms: C_1  and  C_2
REMARK    2  A    between atoms: C_2  and  C_3
REMARK    3  A    between atoms: C_3  and  C_4
REMARK    4  A    between atoms: C_4  and  C_5
REMARK    5  A    between atoms: C_8  and  C_11
REMARK    6  A    between atoms: N_13  and  C_14
REMARK    7  A    between atoms: N_13  and  C_18
REMARK    8  A    between atoms: C_14  and  C_15
REMARK    9  A    between atoms: C_15  and  N_81
REMARK   10  A    between atoms: C_16  and  N_81
REMARK   11  A    between atoms: C_17  and  N_81
REMARK   12  A    between atoms: C_18  and  C_19
REMARK   13  A    between atoms: N_21  and  C_22
REMARK   14  A    between atoms: C_24  and  C_34
REMARK   15  A    between atoms: N_26  and  C_27
REMARK   16  A    between atoms: C_32  and  C_33
REMARK   17  A    between atoms: C_34  and  C_35
REMARK   18  A    between atoms: C_34  and  C_36
REMARK   19  A    between atoms: C_34  and  C_37
REMARK                            x       y       z     vdW  Elec       q    Type
REMARK                         _______ _______ _______ _____ _____    ______ ____
ROOT
ATOM      1  C   UNL     1       5.493  -0.583   0.251  0.00  0.00    +0.204 C 
ENDROOT
BRANCH   1   2
ATOM      2  C   UNL     1       4.597   0.489   0.817  0.00  0.00    +0.236 C 
ATOM      3  O   UNL     1       5.077   1.417   1.433  0.00  0.00    -0.274 OA
ATOM      4  N   UNL     1       3.263   0.416   0.638  0.00  0.00    -0.269 N 
ATOM      5  H   UNL     1       2.880  -0.326   0.145  0.00  0.00    +0.156 HD
BRANCH   4   6
ATOM      6  C   UNL     1       2.435   1.408   1.161  0.00  0.00    +0.129 A 
ATOM      7  C   UNL     1       2.839   2.557   1.770  0.00  0.00    +0.069 A 
ATOM      8  C   UNL     1       1.696   3.269   2.144  0.00  0.00    +0.071 A 
ATOM      9  N   UNL     1       0.642   2.586   1.775  0.00  0.00    -0.169 NA
ATOM     10  N   UNL     1       1.074   1.405   1.157  0.00  0.00    -0.218 N 
BRANCH  10  11
ATOM     11  C   UNL     1       0.251   0.403   0.625  0.00  0.00    +0.070 A 
ATOM     12  C   UNL     1       0.480  -0.076  -0.658  0.00  0.00    +0.028 A 
ATOM     13  C   UNL     1      -0.332  -1.063  -1.181  0.00  0.00    +0.002 A 
ATOM     14  C   UNL     1      -1.376  -1.571  -0.429  0.00  0.00    +0.000 A 
ATOM     15  C   UNL     1      -1.603  -1.100   0.851  0.00  0.00    +0.005 A 
ATOM     16  C   UNL     1      -0.794  -0.112   1.379  0.00  0.00    -0.025 A 
ATOM     17  C   UNL     1      -1.046   0.405   2.772  0.00  0.00    +0.046 C 
ENDBRANCH  10  11
BRANCH   8  18
ATOM     18  C   UNL     1       1.679   4.601   2.849  0.00  0.00    +0.006 C 
ATOM     19  C   UNL     1       2.049   5.706   1.859  0.00  0.00    +0.017 C 
ATOM     20  C   UNL     1       0.280   4.864   3.409  0.00  0.00    +0.017 C 
ATOM     21  C   UNL     1       2.692   4.583   3.996  0.00  0.00    +0.017 C 
ENDBRANCH   8  18
ENDBRANCH   4   6
ENDBRANCH   1   2
BRANCH   1  24
ATOM     22  C   UNL     1       7.722   0.172  -0.380  0.00  0.00    +0.247 C 
ATOM     23  O   UNL     1       8.894   0.366  -0.123  0.00  0.00    -0.270 OA
ATOM     24  N   UNL     1       6.888  -0.277   0.579  0.00  0.00    -0.290 N 
BRANCH  22  28
ATOM     25  C   UNL     1       6.255   0.911  -4.297  0.00  0.00    -0.047 A 
ATOM     26  C   UNL     1       7.587   0.586  -4.110  0.00  0.00    +0.004 A 
ATOM     27  C   UNL     1       8.070   0.346  -2.840  0.00  0.00    +0.013 A 
ATOM     28  C   UNL     1       7.212   0.429  -1.743  0.00  0.00    +0.037 A 
ATOM     29  C   UNL     1       5.868   0.751  -1.939  0.00  0.00    +0.013 A 
ATOM     30  C   UNL     1       5.399   0.995  -3.214  0.00  0.00    +0.004 A 
BRANCH  25  31
ATOM     31  C   UNL     1       5.735   1.173  -5.687  0.00  0.00    +0.035 C 
BRANCH  31  32
ATOM     32  C   UNL     1       5.239  -0.137  -6.302  0.00  0.00    +0.004 C 
BRANCH  32  34
ATOM     33  C   UNL     1       4.214  -1.180  -8.328  0.00  0.00    +0.004 C 
ATOM     34  C   UNL     1       4.711   0.130  -7.713  0.00  0.00    -0.003 C 
ENDBRANCH  32  34
ENDBRANCH  31  32
ENDBRANCH  25  31
ENDBRANCH  22  28
BRANCH  24  35
ATOM     35  C   UNL     1       7.375  -0.460   1.948  0.00  0.00    +0.090 C 
BRANCH  35  36
ATOM     36  C   UNL     1       7.805  -1.915   2.147  0.00  0.00    -0.060 C 
BRANCH  36  39
ATOM     37  C   UNL     1       8.451  -3.547   3.814  0.00  0.00    -0.097 C 
ATOM     38  C   UNL     1       9.324  -1.292   3.927  0.00  0.00    -0.097 C 
ATOM     39  N   UNL     1       8.154  -2.120   3.568  0.00  0.00    +0.377 N 
ATOM     40  H   UNL     1       7.356  -1.841   4.151  0.00  0.00    -0.083 HD
ENDBRANCH  36  39
ENDBRANCH  35  36
ENDBRANCH  24  35
ENDBRANCH   1  24
TORSDOF 12
