REMARK  Name = ZINC14092880
REMARK  11 active torsions:
REMARK  status: ('A' for Active; 'I' for Inactive)
REMARK    1  A    between atoms: C_1  and  C_2
REMARK    2  A    between atoms: C_3  and  C_16
REMARK    3  A    between atoms: C_4  and  C_15
REMARK    4  A    between atoms: N_5  and  C_7
REMARK    5  A    between atoms: C_16  and  N_66
REMARK    6  A    between atoms: C_17  and  N_66
REMARK    7  A    between atoms: C_18  and  C_19
REMARK    8  A    between atoms: C_18  and  N_66
REMARK    9  A    between atoms: N_21  and  C_22
REMARK   10  A    between atoms: C_27  and  C_28
REMARK   11  A    between atoms: C_28  and  C_29
REMARK                            x       y       z     vdW  Elec       q    Type
REMARK                         _______ _______ _______ _____ _____    ______ ____
ROOT
ATOM      1  C   UNL     1       1.280   1.979   0.018  0.00  0.00    +0.019 C 
ENDROOT
BRANCH   1   2
ATOM      2  C   UNL     1      -0.015   1.208   0.015  0.00  0.00    +0.201 C 
ATOM      3  O   UNL     1       0.001  -0.004   0.004  0.00  0.00    -0.278 OA
ATOM      4  N   UNL     1      -1.191   1.867   0.018  0.00  0.00    -0.287 N 
ATOM      5  H   UNL     1      -1.205   2.834   0.092  0.00  0.00    +0.155 HD
BRANCH   4   6
ATOM      6  C   UNL     1      -2.391   1.155  -0.086  0.00  0.00    +0.037 A 
ATOM      7  C   UNL     1      -2.510  -0.099   0.499  0.00  0.00    +0.023 A 
ATOM      8  C   UNL     1      -3.697  -0.796   0.399  0.00  0.00    +0.002 A 
ATOM      9  C   UNL     1      -4.765  -0.252  -0.292  0.00  0.00    +0.000 A 
ATOM     10  C   UNL     1      -4.648   0.994  -0.880  0.00  0.00    +0.006 A 
ATOM     11  C   UNL     1      -3.464   1.699  -0.779  0.00  0.00    -0.022 A 
BRANCH  11  12
ATOM     12  C   UNL     1      -3.338   3.057  -1.421  0.00  0.00    +0.072 C 
BRANCH  12  13
ATOM     13  C   UNL     1      -2.717   2.911  -2.786  0.00  0.00    -0.043 A 
ATOM     14  C   UNL     1      -1.343   2.977  -2.931  0.00  0.00    +0.004 A 
ATOM     15  C   UNL     1      -0.773   2.838  -4.183  0.00  0.00    +0.000 A 
ATOM     16  C   UNL     1      -1.577   2.644  -5.291  0.00  0.00    +0.000 A 
ATOM     17  C   UNL     1      -2.950   2.585  -5.146  0.00  0.00    +0.000 A 
ATOM     18  C   UNL     1      -3.520   2.718  -3.894  0.00  0.00    +0.004 A 
ENDBRANCH  12  13
ENDBRANCH  11  12
ENDBRANCH   4   6
ENDBRANCH   1   2
BRANCH   1  20
ATOM     19  C   UNL     1       2.455   0.285  -1.253  0.00  0.00    -0.095 C 
ATOM     20  N   UNL     1       2.406   1.020   0.028  0.00  0.00    +0.386 N 
ATOM     21  H   UNL     1       2.265   0.349   0.792  0.00  0.00    -0.081 HD
BRANCH  20  22
ATOM     22  C   UNL     1       3.679   1.738   0.248  0.00  0.00    -0.039 C 
BRANCH  22  25
ATOM     23  C   UNL     1       5.525   0.462  -1.989  0.00  0.00    +0.068 C 
ATOM     24  C   UNL     1       5.590   0.164  -0.513  0.00  0.00    +0.062 A 
ATOM     25  C   UNL     1       4.774   0.728   0.474  0.00  0.00    -0.021 A 
ATOM     26  C   UNL     1       5.146   0.210   1.667  0.00  0.00    +0.038 A 
ATOM     27  N   UNL     1       6.155  -0.657   1.443  0.00  0.00    -0.263 N 
ATOM     28  N   UNL     1       6.418  -0.666   0.067  0.00  0.00    -0.176 NA
ATOM     29  C   UNL     1       4.539   0.540   3.007  0.00  0.00    +0.065 C 
BRANCH  27  30
ATOM     30  C   UNL     1       6.856  -1.446   2.459  0.00  0.00    +0.130 C 
ATOM     31  C   UNL     1       6.697  -2.945   2.154  0.00  0.00    +0.051 C 
ATOM     32  C   UNL     1       7.684  -3.767   3.018  0.00  0.00    +0.168 C 
ATOM     33  S   UNL     1       9.064  -2.583   3.291  0.00  0.00    -0.029 S 
ATOM     34  O   UNL     1       9.168  -2.306   4.681  0.00  0.00    -0.174 OA
ATOM     35  O   UNL     1      10.209  -3.036   2.581  0.00  0.00    -0.174 OA
ATOM     36  C   UNL     1       8.373  -1.105   2.435  0.00  0.00    +0.192 C 
ENDBRANCH  27  30
ENDBRANCH  22  25
ENDBRANCH  20  22
ENDBRANCH   1  20
TORSDOF 8
