REMARK  Name = ZINC57849481
REMARK  7 active torsions:
REMARK  status: ('A' for Active; 'I' for Inactive)
REMARK    1  A    between atoms: C_1  and  C_2
REMARK    2  A    between atoms: C_2  and  N_3
REMARK    3  A    between atoms: N_11  and  C_15
REMARK    4  A    between atoms: C_15  and  C_16
REMARK    5  A    between atoms: C_16  and  C_18
REMARK    6  A    between atoms: C_16  and  C_19
REMARK    7  A    between atoms: C_19  and  N_21
REMARK                            x       y       z     vdW  Elec       q    Type
REMARK                         _______ _______ _______ _____ _____    ______ ____
ROOT
ATOM      1  N   UNL     1       0.713  -0.491   1.192  0.00  0.00    +0.380 N 
ATOM      2  C   UNL     1       2.118  -0.072   1.126  0.00  0.00    -0.076 C 
ATOM      3  C   UNL     1       2.840  -0.498   2.407  0.00  0.00    +0.017 C 
ATOM      4  C   UNL     1       2.746  -2.013   2.560  0.00  0.00    +0.109 C 
ATOM      5  C   UNL     1       1.288  -2.460   2.532  0.00  0.00    +0.017 C 
ATOM      6  C   UNL     1       0.628  -1.955   1.245  0.00  0.00    -0.076 C 
ATOM      7  C   UNL     1       3.412  -2.458   3.841  0.00  0.00    +0.246 C 
ATOM      8  O   UNL     1       3.108  -2.147   4.972  0.00  0.00    -0.273 OA
ATOM      9  N   UNL     1       4.415  -3.276   3.459  0.00  0.00    -0.224 N 
ATOM     10  C   UNL     1       4.468  -3.403   2.127  0.00  0.00    +0.309 C 
ATOM     11  O   UNL     1       5.287  -4.087   1.545  0.00  0.00    -0.252 OA
ATOM     12  N   UNL     1       3.512  -2.686   1.504  0.00  0.00    -0.285 N 
ATOM     13  H   UNL     1       3.361  -2.627   0.548  0.00  0.00    +0.151 HD
ATOM     14  H   UNL     1       0.287  -0.100   2.019  0.00  0.00    -0.082 HD
ENDROOT
BRANCH   1  16
ATOM     15  C   UNL     1      -0.019   1.526   0.010  0.00  0.00    -0.017 C 
ATOM     16  C   UNL     1       0.002  -0.004   0.002  0.00  0.00    -0.082 C 
ENDBRANCH   1  16
BRANCH   9  17
ATOM     17  C   UNL     1       5.332  -3.942   4.387  0.00  0.00    +0.127 C 
BRANCH  17  18
ATOM     18  C   UNL     1       4.758  -5.304   4.782  0.00  0.00    +0.055 C 
ATOM     19  C   UNL     1       3.462  -5.102   5.570  0.00  0.00    +0.016 C 
BRANCH  18  20
ATOM     20  C   UNL     1       5.756  -6.041   5.638  0.00  0.00    +0.051 C 
ATOM     21  S   UNL     1       7.051  -5.282   6.189  0.00  0.00    -0.040 S 
BRANCH  20  22
ATOM     22  N   UNL     1       5.557  -7.340   5.939  0.00  0.00    -0.355 N 
ATOM     23  H   UNL     1       4.771  -7.800   5.605  0.00  0.00    +0.143 HD
ATOM     24  H   UNL     1       6.199  -7.814   6.489  0.00  0.00    +0.143 HD
ENDBRANCH  20  22
ENDBRANCH  18  20
ENDBRANCH  17  18
ENDBRANCH   9  17
TORSDOF 5
