REMARK  Name = ZINC39462209
REMARK  8 active torsions:
REMARK  status: ('A' for Active; 'I' for Inactive)
REMARK    1  A    between atoms: C_1  and  C_2
REMARK    2  A    between atoms: C_5  and  C_35
REMARK    3  A    between atoms: C_12  and  N_15
REMARK    4  A    between atoms: C_16  and  C_18
REMARK    5  A    between atoms: C_18  and  N_19
REMARK    6  A    between atoms: N_19  and  C_20
REMARK    7  A    between atoms: N_19  and  C_30
REMARK    8  A    between atoms: C_20  and  C_21
REMARK                            x       y       z     vdW  Elec       q    Type
REMARK                         _______ _______ _______ _____ _____    ______ ____
ROOT
ATOM      1  C   UNL     1      -0.312   1.854   5.030  0.00  0.00    +0.019 C 
ENDROOT
BRANCH   1   3
ATOM      2  N   UNL     1      -0.052   1.129   2.679  0.00  0.00    -0.288 N 
ATOM      3  C   UNL     1       0.492   1.252   3.907  0.00  0.00    +0.199 C 
ATOM      4  O   UNL     1       1.628   0.878   4.107  0.00  0.00    -0.278 OA
ATOM      5  H   UNL     1      -0.961   1.428   2.519  0.00  0.00    +0.151 HD
BRANCH   2  16
ATOM      6  C   UNL     1      -0.655   2.909   0.160  0.00  0.00    +0.043 C 
ATOM      7  C   UNL     1       0.319   1.809  -0.266  0.00  0.00    +0.150 C 
ATOM      8  C   UNL     1      -0.413   0.502  -0.434  0.00  0.00    +0.016 A 
ATOM      9  C   UNL     1      -1.231  -0.030  -1.437  0.00  0.00    +0.065 A 
ATOM     10  N   UNL     1      -1.740  -1.226  -1.300  0.00  0.00    -0.176 NA
ATOM     11  N   UNL     1      -1.524  -1.956  -0.267  0.00  0.00    -0.243 N 
ATOM     12  C   UNL     1      -0.749  -1.532   0.753  0.00  0.00    +0.272 A 
ATOM     13  O   UNL     1      -0.557  -2.245   1.725  0.00  0.00    -0.266 OA
ATOM     14  C   UNL     1      -0.166  -0.255   0.677  0.00  0.00    +0.072 A 
ATOM     15  H   UNL     1      -1.928  -2.837  -0.218  0.00  0.00    +0.192 HD
ATOM     16  C   UNL     1       0.730   0.544   1.587  0.00  0.00    +0.243 C 
ATOM     17  O   UNL     1       1.298   1.586   0.767  0.00  0.00    -0.347 OA
ATOM     18  C   UNL     1      -1.524   0.776  -2.676  0.00  0.00    +0.068 C 
ENDBRANCH   2  16
ENDBRANCH   1   3
BRANCH   1  19
ATOM     19  N   UNL     1       0.439   1.738   6.287  0.00  0.00    +0.390 N 
ATOM     20  H   UNL     1       1.425   1.666   6.084  0.00  0.00    -0.080 HD
BRANCH  19  21
ATOM     21  C   UNL     1       0.000   0.538   7.012  0.00  0.00    -0.067 C 
ATOM     22  C   UNL     1       0.215  -0.715   6.138  0.00  0.00    -0.015 C 
ATOM     23  C   UNL     1      -1.007  -1.613   6.455  0.00  0.00    -0.002 C 
ATOM     24  C   UNL     1      -2.159  -0.587   6.592  0.00  0.00    -0.002 C 
ATOM     25  C   UNL     1      -1.509   0.620   7.300  0.00  0.00    -0.015 C 
ENDBRANCH  19  21
BRANCH  19  26
ATOM     26  C   UNL     1       0.196   2.927   7.114  0.00  0.00    -0.042 C 
BRANCH  26  27
ATOM     27  C   UNL     1       1.059   2.866   8.348  0.00  0.00    -0.060 A 
ATOM     28  C   UNL     1       0.583   2.255   9.494  0.00  0.00    +0.005 A 
ATOM     29  C   UNL     1       1.371   2.196  10.628  0.00  0.00    +0.050 A 
ATOM     30  C   UNL     1       2.641   2.750  10.619  0.00  0.00    +0.166 A 
ATOM     31  C   UNL     1       3.120   3.365   9.465  0.00  0.00    +0.166 A 
ATOM     32  C   UNL     1       2.327   3.415   8.330  0.00  0.00    +0.051 A 
ATOM     33  O   UNL     1       4.382   3.826   9.709  0.00  0.00    -0.453 OA
ATOM     34  C   UNL     1       4.513   3.849  11.142  0.00  0.00    +0.466 C 
ATOM     35  O   UNL     1       3.602   2.826  11.585  0.00  0.00    -0.453 OA
ENDBRANCH  26  27
ENDBRANCH  19  26
ENDBRANCH   1  19
TORSDOF 6
