REMARK  Name = ZINC36154939
REMARK  14 active torsions:
REMARK  status: ('A' for Active; 'I' for Inactive)
REMARK    1  A    between atoms: C_1  and  C_2
REMARK    2  A    between atoms: C_2  and  C_3
REMARK    3  A    between atoms: C_3  and  C_5
REMARK    4  A    between atoms: C_3  and  C_6
REMARK    5  A    between atoms: C_6  and  C_8
REMARK    6  A    between atoms: C_6  and  N_22
REMARK    7  A    between atoms: C_10  and  C_13
REMARK    8  A    between atoms: N_22  and  C_23
REMARK    9  A    between atoms: C_23  and  C_24
REMARK   10  A    between atoms: C_24  and  C_26
REMARK   11  A    between atoms: C_24  and  O_35
REMARK   12  A    between atoms: C_26  and  O_27
REMARK   13  A    between atoms: O_27  and  C_28
REMARK   14  A    between atoms: C_28  and  C_29
REMARK                            x       y       z     vdW  Elec       q    Type
REMARK                         _______ _______ _______ _____ _____    ______ ____
ROOT
ATOM      1  C   UNL     1       0.640  -2.022  -1.352  0.00  0.00    +0.022 C 
ENDROOT
BRANCH   1   2
ATOM      2  C   UNL     1      -0.735  -2.522  -1.713  0.00  0.00    +0.214 A 
ATOM      3  N   UNL     1      -1.106  -2.947  -2.887  0.00  0.00    -0.193 NA
ATOM      4  C   UNL     1      -2.399  -3.317  -2.856  0.00  0.00    +0.202 A 
ATOM      5  N   UNL     1      -2.860  -3.124  -1.644  0.00  0.00    -0.056 NA
ATOM      6  O   UNL     1      -1.780  -2.608  -0.880  0.00  0.00    -0.339 OA
BRANCH   4   7
ATOM      7  C   UNL     1      -3.175  -3.852  -4.002  0.00  0.00    +0.026 A 
ATOM      8  C   UNL     1      -2.563  -4.015  -5.243  0.00  0.00    +0.015 A 
ATOM      9  C   UNL     1      -3.284  -4.513  -6.308  0.00  0.00    +0.050 A 
ATOM     10  C   UNL     1      -4.619  -4.853  -6.148  0.00  0.00    +0.166 A 
ATOM     11  C   UNL     1      -5.236  -4.692  -4.908  0.00  0.00    +0.167 A 
ATOM     12  C   UNL     1      -4.514  -4.199  -3.837  0.00  0.00    +0.061 A 
ATOM     13  O   UNL     1      -6.537  -5.094  -5.013  0.00  0.00    -0.453 OA
ATOM     14  C   UNL     1      -6.819  -5.116  -6.425  0.00  0.00    +0.466 C 
ATOM     15  O   UNL     1      -5.534  -5.355  -7.028  0.00  0.00    -0.453 OA
ENDBRANCH   4   7
ENDBRANCH   1   2
BRANCH   1  16
ATOM     16  N   UNL     1       1.056  -2.615  -0.073  0.00  0.00    +0.389 N 
ATOM     17  H   UNL     1       1.935  -2.212   0.214  0.00  0.00    -0.085 HD
ATOM     18  H   UNL     1       0.355  -2.427   0.628  0.00  0.00    -0.085 HD
BRANCH  16  19
ATOM     19  C   UNL     1       1.211  -4.067  -0.234  0.00  0.00    -0.048 C 
BRANCH  19  20
ATOM     20  C   UNL     1       1.763  -4.667   1.060  0.00  0.00    +0.123 C 
BRANCH  20  21
ATOM     21  O   UNL     1       3.033  -4.081   1.353  0.00  0.00    -0.391 OA
ATOM     22  H   UNL     1       3.700  -4.222   0.667  0.00  0.00    +0.210 HD
ENDBRANCH  20  21
BRANCH  20  23
ATOM     23  C   UNL     1       1.926  -6.179   0.893  0.00  0.00    +0.189 C 
BRANCH  23  24
ATOM     24  O   UNL     1       2.330  -6.755   2.137  0.00  0.00    -0.373 OA
BRANCH  24  25
ATOM     25  C   UNL     1       2.510  -8.172   2.089  0.00  0.00    +0.195 C 
BRANCH  25  26
ATOM     26  C   UNL     1       2.934  -8.670   3.447  0.00  0.00    -0.022 A 
ATOM     27  C   UNL     1       4.276  -8.737   3.771  0.00  0.00    +0.006 A 
ATOM     28  C   UNL     1       4.665  -9.194   5.017  0.00  0.00    +0.000 A 
ATOM     29  C   UNL     1       3.711  -9.583   5.938  0.00  0.00    +0.000 A 
ATOM     30  C   UNL     1       2.369  -9.516   5.615  0.00  0.00    +0.000 A 
ATOM     31  C   UNL     1       1.980  -9.055   4.371  0.00  0.00    +0.006 A 
ENDBRANCH  25  26
ENDBRANCH  24  25
ENDBRANCH  23  24
ENDBRANCH  20  23
ENDBRANCH  19  20
ENDBRANCH  16  19
ENDBRANCH   1  16
BRANCH   1  32
ATOM     32  C   UNL     1       0.611  -0.498  -1.222  0.00  0.00    -0.020 C 
ATOM     33  C   UNL     1       0.087   0.114  -2.523  0.00  0.00    +0.006 C 
BRANCH  32  35
ATOM     34  C   UNL     1       1.979   1.525  -0.697  0.00  0.00    +0.004 C 
ATOM     35  C   UNL     1       2.026   0.017  -0.950  0.00  0.00    -0.001 C 
ENDBRANCH  32  35
ENDBRANCH   1  32
TORSDOF 12
