REMARK  Name = ZINC39696557
REMARK  14 active torsions:
REMARK  status: ('A' for Active; 'I' for Inactive)
REMARK    1  A    between atoms: C_1  and  C_2
REMARK    2  A    between atoms: C_2  and  C_3
REMARK    3  A    between atoms: C_2  and  C_4
REMARK    4  A    between atoms: C_4  and  C_6
REMARK    5  A    between atoms: C_4  and  O_29
REMARK    6  A    between atoms: C_10  and  C_19
REMARK    7  A    between atoms: N_21  and  C_22
REMARK    8  A    between atoms: C_22  and  C_23
REMARK    9  A    between atoms: C_23  and  S_24
REMARK   10  A    between atoms: S_24  and  C_25
REMARK   11  A    between atoms: C_25  and  C_26
REMARK   12  A    between atoms: C_25  and  C_27
REMARK   13  A    between atoms: C_25  and  C_28
REMARK   14  A    between atoms: O_29  and  C_30
REMARK                            x       y       z     vdW  Elec       q    Type
REMARK                         _______ _______ _______ _____ _____    ______ ____
ROOT
ATOM      1  C   UNL     1      -0.277  -2.189  -2.118  0.00  0.00    +0.257 C 
ATOM      2  O   UNL     1       0.563  -3.050  -1.965  0.00  0.00    -0.272 OA
ATOM      3  N   UNL     1      -1.579  -2.526  -2.205  0.00  0.00    -0.297 N 
ATOM      4  C   UNL     1      -2.728  -1.641  -2.509  0.00  0.00    +0.121 C 
ATOM      5  C   UNL     1      -3.641  -2.487  -3.425  0.00  0.00    +0.100 C 
ATOM      6  C   UNL     1      -3.282  -3.946  -3.097  0.00  0.00    -0.004 C 
ATOM      7  C   UNL     1      -2.185  -3.868  -2.026  0.00  0.00    +0.115 C 
ATOM      8  C   UNL     1      -2.747  -4.651  -4.340  0.00  0.00    -0.010 C 
ATOM      9  C   UNL     1      -2.450  -6.115  -4.004  0.00  0.00    -0.082 C 
ATOM     10  N   UNL     1      -3.677  -6.770  -3.536  0.00  0.00    +0.379 N 
ATOM     11  C   UNL     1      -4.134  -6.145  -2.289  0.00  0.00    -0.082 C 
ATOM     12  C   UNL     1      -4.502  -4.682  -2.552  0.00  0.00    -0.010 C 
ATOM     13  H   UNL     1      -4.395  -6.677  -4.239  0.00  0.00    -0.086 HD
ATOM     14  H   UNL     1      -3.493  -7.748  -3.373  0.00  0.00    -0.086 HD
ENDROOT
BRANCH   5  15
ATOM     15  C   UNL     1      -3.356  -2.187  -4.874  0.00  0.00    +0.218 C 
ATOM     16  O   UNL     1      -2.231  -1.896  -5.222  0.00  0.00    -0.275 OA
ATOM     17  N   UNL     1      -4.350  -2.241  -5.782  0.00  0.00    -0.314 N 
ATOM     18  H   UNL     1      -5.249  -2.473  -5.503  0.00  0.00    +0.149 HD
BRANCH  17  19
ATOM     19  C   UNL     1      -4.072  -1.948  -7.190  0.00  0.00    +0.115 C 
BRANCH  19  20
ATOM     20  C   UNL     1      -5.362  -2.080  -8.002  0.00  0.00    +0.088 C 
BRANCH  20  21
ATOM     21  S   UNL     1      -5.018  -1.718  -9.746  0.00  0.00    -0.153 S 
BRANCH  21  22
ATOM     22  C   UNL     1      -6.627  -1.915 -10.561  0.00  0.00    +0.008 C 
ATOM     23  C   UNL     1      -7.630  -0.930  -9.955  0.00  0.00    +0.022 C 
ATOM     24  C   UNL     1      -6.479  -1.634 -12.058  0.00  0.00    +0.022 C 
ATOM     25  C   UNL     1      -7.130  -3.345 -10.357  0.00  0.00    +0.022 C 
ENDBRANCH  21  22
ENDBRANCH  20  21
ENDBRANCH  19  20
ENDBRANCH  17  19
ENDBRANCH   5  15
BRANCH   1  26
ATOM     26  C   UNL     1       0.134  -0.742  -2.209  0.00  0.00    +0.261 C 
BRANCH  26  28
ATOM     27  C   UNL     1       0.342   1.403  -0.945  0.00  0.00    +0.011 C 
ATOM     28  C   UNL     1      -0.020  -0.080  -0.839  0.00  0.00    +0.033 C 
ATOM     29  C   UNL     1      -1.469  -0.218  -0.366  0.00  0.00    +0.011 C 
ENDBRANCH  26  28
BRANCH  26  30
ATOM     30  O   UNL     1       1.498  -0.660  -2.627  0.00  0.00    -0.479 OA
BRANCH  30  31
ATOM     31  C   UNL     1       1.807   0.297  -3.541  0.00  0.00    +0.122 A 
ATOM     32  C   UNL     1       3.082   0.352  -4.085  0.00  0.00    +0.045 A 
ATOM     33  C   UNL     1       3.394   1.327  -5.014  0.00  0.00    +0.004 A 
ATOM     34  C   UNL     1       2.437   2.246  -5.401  0.00  0.00    +0.000 A 
ATOM     35  C   UNL     1       1.165   2.193  -4.859  0.00  0.00    +0.004 A 
ATOM     36  C   UNL     1       0.847   1.218  -3.935  0.00  0.00    +0.045 A 
ENDBRANCH  30  31
ENDBRANCH  26  30
ENDBRANCH   1  26
TORSDOF 9
