REMARK  Name = ZINC00415489
REMARK  7 active torsions:
REMARK  status: ('A' for Active; 'I' for Inactive)
REMARK    1  A    between atoms: C_1  and  C_2
REMARK    2  A    between atoms: C_4  and  C_25
REMARK    3  A    between atoms: C_6  and  C_8
REMARK    4  A    between atoms: C_11  and  S_13
REMARK    5  A    between atoms: S_13  and  C_14
REMARK    6  A    between atoms: C_14  and  C_15
REMARK    7  A    between atoms: C_21  and  C_24
REMARK                            x       y       z     vdW  Elec       q    Type
REMARK                         _______ _______ _______ _____ _____    ______ ____
ROOT
ATOM      1  C   UNL     1       7.051  -1.630  -5.678  0.00  0.00    +0.249 A 
ATOM      2  N   UNL     1       5.958  -1.021  -6.069  0.00  0.00    -0.106 NA
ATOM      3  N   UNL     1       5.294  -0.632  -5.038  0.00  0.00    -0.101 NA
ATOM      4  C   UNL     1       5.937  -0.978  -3.947  0.00  0.00    +0.278 A 
ATOM      5  O   UNL     1       7.063  -1.611  -4.327  0.00  0.00    -0.411 OA
ENDROOT
BRANCH   1  11
ATOM      6  C   UNL     1      11.370  -4.069  -6.222  0.00  0.00    +0.044 C 
ATOM      7  C   UNL     1      10.161  -3.397  -6.821  0.00  0.00    -0.049 A 
ATOM      8  C   UNL     1      10.016  -3.336  -8.195  0.00  0.00    +0.006 A 
ATOM      9  C   UNL     1       8.909  -2.721  -8.754  0.00  0.00    -0.049 A 
ATOM     10  C   UNL     1       7.942  -2.165  -7.942  0.00  0.00    +0.016 A 
ATOM     11  C   UNL     1       8.082  -2.223  -6.554  0.00  0.00    +0.039 A 
ATOM     12  C   UNL     1       9.205  -2.840  -5.997  0.00  0.00    +0.016 A 
ATOM     13  C   UNL     1       8.759  -2.658 -10.252  0.00  0.00    +0.044 C 
ENDBRANCH   1  11
BRANCH   4  14
ATOM     14  S   UNL     1       5.424  -0.666  -2.291  0.00  0.00    -0.056 S 
BRANCH  14  15
ATOM     15  C   UNL     1       3.868   0.205  -2.602  0.00  0.00    +0.174 C 
BRANCH  15  16
ATOM     16  C   UNL     1       3.232   0.582  -1.289  0.00  0.00    +0.226 C 
ATOM     17  O   UNL     1       3.776   0.290  -0.246  0.00  0.00    -0.275 OA
ATOM     18  N   UNL     1       2.057   1.242  -1.275  0.00  0.00    -0.301 N 
ATOM     19  C   UNL     1       1.385   1.603  -2.531  0.00  0.00    +0.108 C 
ATOM     20  C   UNL     1      -0.051   1.072  -2.492  0.00  0.00    +0.019 C 
ATOM     21  C   UNL     1      -0.749   1.593  -1.234  0.00  0.00    +0.006 C 
ATOM     22  C   UNL     1      -0.013   1.086   0.008  0.00  0.00    +0.003 C 
ATOM     23  C   UNL     1       1.424   1.617  -0.003  0.00  0.00    +0.111 C 
ATOM     24  C   UNL     1      -0.730   1.580   1.266  0.00  0.00    +0.009 C 
ENDBRANCH  15  16
ENDBRANCH  14  15
ENDBRANCH   4  14
TORSDOF 4
