REMARK  Name = ZINC53620204
REMARK  8 active torsions:
REMARK  status: ('A' for Active; 'I' for Inactive)
REMARK    1  A    between atoms: C_1  and  C_2
REMARK    2  A    between atoms: C_2  and  C_3
REMARK    3  A    between atoms: C_3  and  O_4
REMARK    4  A    between atoms: O_4  and  C_5
REMARK    5  A    between atoms: C_10  and  C_11
REMARK    6  A    between atoms: C_16  and  C_33
REMARK    7  A    between atoms: C_17  and  C_20
REMARK    8  A    between atoms: C_23  and  C_27
REMARK                            x       y       z     vdW  Elec       q    Type
REMARK                         _______ _______ _______ _____ _____    ______ ____
ROOT
ATOM      1  C   UNL     1       0.802  -4.752  -1.327  0.00  0.00    +0.253 C 
ATOM      2  O   UNL     1       0.260  -4.218  -0.378  0.00  0.00    -0.270 OA
ATOM      3  N   UNL     1       0.859  -6.096  -1.403  0.00  0.00    -0.261 N 
ATOM      4  C   UNL     1       0.298  -6.873  -0.397  0.00  0.00    +0.165 A 
ATOM      5  N   UNL     1      -0.327  -6.475   0.690  0.00  0.00    -0.229 NA
ATOM      6  C   UNL     1      -0.807  -7.347   1.558  0.00  0.00    +0.054 A 
ATOM      7  C   UNL     1      -0.626  -8.660   1.276  0.00  0.00    +0.059 A 
ATOM      8  H   UNL     1       1.291  -6.521  -2.160  0.00  0.00    +0.157 HD
ATOM      9  S   UNL     1       0.248  -8.550  -0.277  0.00  0.00    -0.053 S 
ATOM     10  C   UNL     1      -1.525  -6.901   2.806  0.00  0.00    +0.066 C 
ENDROOT
BRANCH   7  11
ATOM     11  C   UNL     1      -1.051  -9.878   2.056  0.00  0.00    +0.250 C 
ATOM     12  N   UNL     1      -1.315 -11.002   1.130  0.00  0.00    -0.265 NA
ATOM     13  C   UNL     1      -2.489 -11.694   1.727  0.00  0.00    +0.180 C 
ATOM     14  N   UNL     1      -3.286 -10.558   2.261  0.00  0.00    -0.177 NA
ATOM     15  O   UNL     1      -2.273  -9.606   2.759  0.00  0.00    -0.274 OA
ATOM     16  H   UNL     1      -1.526 -10.665   0.203  0.00  0.00    +0.127 HD
ATOM     17  H   UNL     1      -3.893 -10.862   3.008  0.00  0.00    +0.156 HD
BRANCH  13  18
ATOM     18  C   UNL     1      -3.260 -12.447   0.673  0.00  0.00    -0.014 A 
ATOM     19  C   UNL     1      -2.602 -12.963  -0.428  0.00  0.00    +0.006 A 
ATOM     20  C   UNL     1      -3.309 -13.654  -1.394  0.00  0.00    +0.000 A 
ATOM     21  C   UNL     1      -4.674 -13.829  -1.259  0.00  0.00    +0.000 A 
ATOM     22  C   UNL     1      -5.331 -13.314  -0.158  0.00  0.00    +0.000 A 
ATOM     23  C   UNL     1      -4.623 -12.627   0.811  0.00  0.00    +0.006 A 
ENDBRANCH  13  18
ENDBRANCH   7  11
BRANCH   1  29
ATOM     24  C   UNL     1       1.340  -2.528  -2.321  0.00  0.00    +0.133 A 
ATOM     25  C   UNL     1       1.908  -1.763  -3.328  0.00  0.00    +0.046 A 
ATOM     26  C   UNL     1       2.521  -2.377  -4.402  0.00  0.00    +0.004 A 
ATOM     27  C   UNL     1       2.574  -3.759  -4.482  0.00  0.00    +0.001 A 
ATOM     28  C   UNL     1       2.016  -4.535  -3.490  0.00  0.00    +0.017 A 
ATOM     29  C   UNL     1       1.397  -3.927  -2.395  0.00  0.00    +0.079 A 
BRANCH  24  30
ATOM     30  O   UNL     1       0.738  -1.926  -1.265  0.00  0.00    -0.491 OA
BRANCH  30  31
ATOM     31  C   UNL     1       0.718  -0.497  -1.257  0.00  0.00    +0.229 C 
BRANCH  31  33
ATOM     32  C   UNL     1      -0.019   1.526   0.010  0.00  0.00    +0.007 C 
ATOM     33  C   UNL     1       0.002  -0.004   0.002  0.00  0.00    +0.038 C 
ENDBRANCH  31  33
ENDBRANCH  30  31
ENDBRANCH  24  30
ENDBRANCH   1  29
TORSDOF 6
