REMARK  Name = ZINC62349287
REMARK  4 active torsions:
REMARK  status: ('A' for Active; 'I' for Inactive)
REMARK    1  A    between atoms: C_1  and  C_2
REMARK    2  A    between atoms: C_4  and  N_17
REMARK    3  A    between atoms: C_6  and  C_9
REMARK    4  A    between atoms: C_7  and  C_8
REMARK                            x       y       z     vdW  Elec       q    Type
REMARK                         _______ _______ _______ _____ _____    ______ ____
ROOT
ATOM      1  C   UNL     1      -0.018   1.503   0.010  0.00  0.00    +0.044 C 
ATOM      2  C   UNL     1       0.002  -0.004   0.002  0.00  0.00    -0.045 A 
ATOM      3  C   UNL     1       0.006  -0.686  -1.200  0.00  0.00    +0.026 A 
ATOM      4  C   UNL     1       0.025  -2.076  -1.216  0.00  0.00    +0.025 A 
ATOM      5  C   UNL     1       0.041  -2.782  -0.022  0.00  0.00    +0.034 A 
ATOM      6  C   UNL     1       0.037  -2.094   1.190  0.00  0.00    +0.024 A 
ATOM      7  C   UNL     1       0.023  -0.698   1.195  0.00  0.00    -0.037 A 
ATOM      8  C   UNL     1       0.025   0.051   2.502  0.00  0.00    +0.045 C 
ENDROOT
BRANCH   6   9
ATOM      9  C   UNL     1       0.054  -2.840   2.467  0.00  0.00    +0.165 A 
ATOM     10  N   UNL     1       0.046  -2.323   3.676  0.00  0.00    -0.129 NA
ATOM     11  N   UNL     1       0.067  -3.265   4.550  0.00  0.00    -0.134 NA
ATOM     12  C   UNL     1       0.089  -4.429   3.954  0.00  0.00    +0.134 A 
ATOM     13  N   UNL     1       0.073  -4.201   2.616  0.00  0.00    -0.311 N 
ATOM     14  C   UNL     1       0.083  -5.462   1.865  0.00  0.00    +0.125 C 
ATOM     15  C   UNL     1       0.541  -6.540   2.872  0.00  0.00    +0.029 C 
ATOM     16  C   UNL     1       0.124  -5.918   4.221  0.00  0.00    +0.078 C 
ENDBRANCH   6   9
BRANCH   4  17
ATOM     17  N   UNL     1       0.028  -2.761  -2.433  0.00  0.00    -0.358 N 
ATOM     18  H   UNL     1       0.017  -2.267  -3.268  0.00  0.00    +0.142 HD
ATOM     19  H   UNL     1       0.042  -3.731  -2.443  0.00  0.00    +0.142 HD
ENDBRANCH   4  17
TORSDOF 2
