REMARK  Name = ZINC21260039
REMARK  10 active torsions:
REMARK  status: ('A' for Active; 'I' for Inactive)
REMARK    1  A    between atoms: C_1  and  C_2
REMARK    2  A    between atoms: C_2  and  O_3
REMARK    3  A    between atoms: O_3  and  C_4
REMARK    4  A    between atoms: C_7  and  C_10
REMARK    5  A    between atoms: C_15  and  C_21
REMARK    6  A    between atoms: C_23  and  O_30
REMARK    7  A    between atoms: C_24  and  O_29
REMARK    8  A    between atoms: C_25  and  O_27
REMARK    9  A    between atoms: O_27  and  C_28
REMARK   10  A    between atoms: O_30  and  C_31
REMARK                            x       y       z     vdW  Elec       q    Type
REMARK                         _______ _______ _______ _____ _____    ______ ____
ROOT
ATOM      1  C   UNL     1      -0.758   1.596  -1.230  0.00  0.00    +0.032 C 
ATOM      2  C   UNL     1      -2.211   1.122  -1.154  0.00  0.00    +0.059 C 
ATOM      3  C   UNL     1      -2.845   1.633   0.116  0.00  0.00    +0.018 C 
ATOM      4  C   UNL     1      -2.105   1.829   1.228  0.00  0.00    +0.020 C 
ATOM      5  C   UNL     1      -2.763   2.336   2.490  0.00  0.00    +0.063 C 
ATOM      6  C   UNL     1      -3.879   3.315   2.123  0.00  0.00    +0.109 C 
ATOM      7  C   UNL     1      -4.739   2.702   1.047  0.00  0.00    +0.218 C 
ATOM      8  O   UNL     1      -5.928   2.937   1.017  0.00  0.00    -0.275 OA
ATOM      9  N   UNL     1      -4.191   1.896   0.121  0.00  0.00    -0.289 N 
ATOM     10  C   UNL     1      -0.722   1.573   1.243  0.00  0.00    +0.162 C 
ATOM     11  O   UNL     1      -0.089   1.748   2.266  0.00  0.00    -0.292 OA
ATOM     12  C   UNL     1      -0.013   1.086   0.008  0.00  0.00    +0.088 C 
ATOM     13  H   UNL     1      -4.843   1.445  -0.641  0.00  0.00    +0.155 HD
ENDROOT
BRANCH   1  17
ATOM     14  C   UNL     1       1.079   0.029  -4.756  0.00  0.00    +0.121 A 
ATOM     15  C   UNL     1       1.008   1.401  -4.560  0.00  0.00    +0.046 A 
ATOM     16  C   UNL     1       0.413   1.905  -3.420  0.00  0.00    +0.007 A 
ATOM     17  C   UNL     1      -0.111   1.043  -2.474  0.00  0.00    -0.043 A 
ATOM     18  C   UNL     1      -0.036  -0.324  -2.664  0.00  0.00    +0.007 A 
ATOM     19  C   UNL     1       0.552  -0.833  -3.806  0.00  0.00    +0.046 A 
BRANCH  14  20
ATOM     20  O   UNL     1       1.664  -0.469  -5.877  0.00  0.00    -0.492 OA
BRANCH  20  22
ATOM     21  C   UNL     1       2.392  -2.260  -7.327  0.00  0.00    +0.048 C 
ATOM     22  C   UNL     1       1.701  -1.891  -6.013  0.00  0.00    +0.225 C 
ENDBRANCH  20  22
ENDBRANCH  14  20
ENDBRANCH   1  17
BRANCH   5  23
ATOM     23  C   UNL     1      -3.345   1.175   3.255  0.00  0.00    -0.032 A 
ATOM     24  C   UNL     1      -4.314   0.381   2.672  0.00  0.00    +0.054 A 
ATOM     25  C   UNL     1      -4.848  -0.692   3.370  0.00  0.00    +0.165 A 
ATOM     26  C   UNL     1      -4.414  -0.961   4.663  0.00  0.00    +0.201 A 
ATOM     27  C   UNL     1      -3.443  -0.157   5.248  0.00  0.00    +0.165 A 
ATOM     28  C   UNL     1      -2.911   0.910   4.541  0.00  0.00    +0.054 A 
BRANCH  27  29
ATOM     29  O   UNL     1      -3.015  -0.417   6.513  0.00  0.00    -0.491 OA
ATOM     30  C   UNL     1      -2.016   0.451   7.051  0.00  0.00    +0.277 C 
ENDBRANCH  27  29
BRANCH  26  31
ATOM     31  O   UNL     1      -4.938  -2.010   5.354  0.00  0.00    -0.501 OA
ATOM     32  H   UNL     1      -4.594  -2.222   6.377  0.00  0.00    +0.292 HD
ENDBRANCH  26  31
BRANCH  25  33
ATOM     33  O   UNL     1      -5.798  -1.475   2.794  0.00  0.00    -0.491 OA
ATOM     34  C   UNL     1      -6.196  -1.139   1.463  0.00  0.00    +0.277 C 
ENDBRANCH  25  33
ENDBRANCH   5  23
TORSDOF 7
