REMARK  Name = ZINC12004388
REMARK  8 active torsions:
REMARK  status: ('A' for Active; 'I' for Inactive)
REMARK    1  A    between atoms: C_1  and  C_2
REMARK    2  A    between atoms: C_4  and  N_25
REMARK    3  A    between atoms: C_6  and  C_24
REMARK    4  A    between atoms: C_7  and  S_8
REMARK    5  A    between atoms: S_8  and  N_11
REMARK    6  A    between atoms: N_11  and  C_12
REMARK    7  A    between atoms: C_12  and  C_13
REMARK    8  A    between atoms: C_13  and  C_14
REMARK                            x       y       z     vdW  Elec       q    Type
REMARK                         _______ _______ _______ _____ _____    ______ ____
ROOT
ATOM      1  S   UNL     1      -3.849  -2.139  -2.755  0.00  0.00    +0.059 S 
ATOM      2  O   UNL     1      -3.725  -0.727  -2.852  0.00  0.00    -0.153 OA
ATOM      3  O   UNL     1      -3.516  -2.854  -1.572  0.00  0.00    -0.153 OA
ENDROOT
BRANCH   1  10
ATOM      4  C   UNL     1      -2.845  -0.565  -5.131  0.00  0.00    +0.046 C 
ATOM      5  C   UNL     1      -2.454  -2.020  -5.097  0.00  0.00    -0.022 A 
ATOM      6  C   UNL     1      -1.679  -2.550  -6.110  0.00  0.00    +0.030 A 
ATOM      7  C   UNL     1      -1.324  -3.892  -6.080  0.00  0.00    +0.051 A 
ATOM      8  C   UNL     1      -1.745  -4.696  -5.029  0.00  0.00    +0.030 A 
ATOM      9  C   UNL     1      -2.515  -4.158  -4.016  0.00  0.00    -0.022 A 
ATOM     10  C   UNL     1      -2.867  -2.821  -4.048  0.00  0.00    +0.111 A 
ATOM     11  C   UNL     1      -2.972  -5.029  -2.875  0.00  0.00    +0.046 C 
BRANCH   7  12
ATOM     12  N   UNL     1      -0.545  -4.433  -7.106  0.00  0.00    -0.207 N 
ATOM     13  C   UNL     1      -0.532  -3.830  -8.447  0.00  0.00    +0.131 C 
ATOM     14  C   UNL     1       0.900  -3.455  -8.824  0.00  0.00    +0.022 C 
ATOM     15  C   UNL     1       1.772  -4.704  -8.940  0.00  0.00    +0.026 C 
ATOM     16  C   UNL     1       2.009  -5.301  -7.549  0.00  0.00    +0.189 C 
ATOM     17  S   UNL     1       0.404  -5.776  -6.847  0.00  0.00    +0.045 S 
ATOM     18  O   UNL     1       0.498  -5.894  -5.434  0.00  0.00    -0.155 OA
ATOM     19  O   UNL     1      -0.190  -6.804  -7.627  0.00  0.00    -0.155 OA
ENDBRANCH   7  12
ENDBRANCH   1  10
BRANCH   1  20
ATOM     20  N   UNL     1      -5.429  -2.501  -3.097  0.00  0.00    -0.190 NA
ATOM     21  H   UNL     1      -6.058  -1.789  -3.292  0.00  0.00    +0.148 HD
BRANCH  20  22
ATOM     22  C   UNL     1      -5.876  -3.896  -3.104  0.00  0.00    +0.110 C 
BRANCH  22  23
ATOM     23  C   UNL     1      -7.405  -3.941  -3.072  0.00  0.00    +0.054 C 
BRANCH  23  24
ATOM     24  C   UNL     1      -7.865  -5.376  -3.079  0.00  0.00    -0.021 A 
ATOM     25  C   UNL     1      -8.222  -6.095  -4.155  0.00  0.00    +0.087 A 
ATOM     26  N   UNL     1      -8.583  -7.359  -3.774  0.00  0.00    -0.360 N 
ATOM     27  H   UNL     1      -8.878  -8.059  -4.376  0.00  0.00    +0.165 HD
ATOM     28  C   UNL     1      -8.463  -7.487  -2.408  0.00  0.00    +0.047 A 
ATOM     29  C   UNL     1      -8.009  -6.251  -1.913  0.00  0.00    +0.003 A 
ATOM     30  C   UNL     1      -7.800  -6.084  -0.543  0.00  0.00    +0.010 A 
ATOM     31  C   UNL     1      -8.029  -7.126   0.311  0.00  0.00    +0.001 A 
ATOM     32  C   UNL     1      -8.477  -8.348  -0.173  0.00  0.00    +0.002 A 
ATOM     33  C   UNL     1      -8.695  -8.533  -1.521  0.00  0.00    +0.026 A 
ENDBRANCH  23  24
ENDBRANCH  22  23
ENDBRANCH  20  22
ENDBRANCH   1  20
TORSDOF 6
