REMARK  Name = ZINC03595379
REMARK  8 active torsions:
REMARK  status: ('A' for Active; 'I' for Inactive)
REMARK    1  A    between atoms: C_1  and  C_2
REMARK    2  A    between atoms: C_2  and  C_3
REMARK    3  A    between atoms: C_3  and  C_25
REMARK    4  A    between atoms: N_6  and  C_10
REMARK    5  A    between atoms: C_10  and  C_11
REMARK    6  A    between atoms: N_13  and  C_14
REMARK    7  A    between atoms: C_19  and  C_24
REMARK    8  A    between atoms: C_21  and  C_23
REMARK                            x       y       z     vdW  Elec       q    Type
REMARK                         _______ _______ _______ _____ _____    ______ ____
ROOT
ATOM      1  C   UNL     1       1.419  -0.406  -0.014  0.00  0.00    +0.138 C 
ATOM      2  C   UNL     1       2.164   0.914  -0.014  0.00  0.00    +0.251 C 
ATOM      3  O   UNL     1       3.365   1.077  -0.025  0.00  0.00    -0.272 OA
ATOM      4  N   UNL     1       1.213   1.869   0.001  0.00  0.00    -0.215 N 
ATOM      5  C   UNL     1      -0.016   1.341   0.009  0.00  0.00    +0.310 C 
ATOM      6  O   UNL     1      -1.036   2.003   0.018  0.00  0.00    -0.252 OA
ATOM      7  N   UNL     1       0.002  -0.004   0.002  0.00  0.00    -0.281 N 
ATOM      8  H   UNL     1      -0.768  -0.594   0.006  0.00  0.00    +0.152 HD
ENDROOT
BRANCH   1   9
ATOM      9  C   UNL     1       1.757  -1.206   1.218  0.00  0.00    -0.015 A 
ATOM     10  C   UNL     1       2.750  -2.166   1.168  0.00  0.00    +0.007 A 
ATOM     11  C   UNL     1       3.064  -2.896   2.299  0.00  0.00    +0.020 A 
ATOM     12  C   UNL     1       2.377  -2.672   3.479  0.00  0.00    +0.041 A 
ATOM     13  C   UNL     1       1.380  -1.715   3.527  0.00  0.00    +0.020 A 
ATOM     14  C   UNL     1       1.070  -0.982   2.397  0.00  0.00    +0.007 A 
ATOM     15 CL   UNL     1       2.766  -3.594   4.898  0.00  0.00    -0.084 Cl
ENDBRANCH   1   9
BRANCH   1  17
ATOM     16  C   UNL     1       1.435  -0.355  -2.512  0.00  0.00    +0.007 C 
ATOM     17  C   UNL     1       1.737  -1.208  -1.278  0.00  0.00    +0.037 C 
ENDBRANCH   1  17
BRANCH   4  18
ATOM     18  C   UNL     1       1.491   3.307   0.005  0.00  0.00    +0.213 C 
BRANCH  18  19
ATOM     19  C   UNL     1       1.600   3.794   1.427  0.00  0.00    +0.231 C 
ATOM     20  O   UNL     1       1.460   3.016   2.346  0.00  0.00    -0.274 OA
ATOM     21  N   UNL     1       1.854   5.094   1.677  0.00  0.00    -0.311 N 
ATOM     22  H   UNL     1       1.967   5.716   0.941  0.00  0.00    +0.149 HD
BRANCH  21  23
ATOM     23  C   UNL     1       1.960   5.566   3.059  0.00  0.00    +0.076 C 
ATOM     24  C   UNL     1       0.564   5.887   3.597  0.00  0.00    +0.022 C 
ATOM     25  C   UNL     1      -0.077   6.975   2.733  0.00  0.00    +0.002 C 
ATOM     26  C   UNL     1       0.788   8.236   2.776  0.00  0.00    +0.003 C 
ATOM     27  C   UNL     1       2.184   7.916   2.238  0.00  0.00    -0.009 C 
ATOM     28  C   UNL     1       2.825   6.828   3.102  0.00  0.00    +0.009 C 
ATOM     29  C   UNL     1       4.221   6.507   2.564  0.00  0.00    +0.009 C 
ATOM     30  C   UNL     1       3.049   9.177   2.281  0.00  0.00    +0.008 C 
ENDBRANCH  21  23
ENDBRANCH  18  19
ENDBRANCH   4  18
TORSDOF 5
