REMARK  Name = ZINC23107929
REMARK  3 active torsions:
REMARK  status: ('A' for Active; 'I' for Inactive)
REMARK    1  A    between atoms: C_1  and  C_2
REMARK    2  A    between atoms: C_9  and  C_13
REMARK    3  A    between atoms: C_14  and  C_15
REMARK                            x       y       z     vdW  Elec       q    Type
REMARK                         _______ _______ _______ _____ _____    ______ ____
ROOT
ATOM      1  C   UNL     1       7.207   1.422   0.124  0.00  0.00    +0.046 C 
ATOM      2  C   UNL     1       7.277  -0.080   0.232  0.00  0.00    -0.026 A 
ATOM      3  C   UNL     1       8.497  -0.710   0.318  0.00  0.00    +0.005 A 
ATOM      4  C   UNL     1       8.579  -2.093   0.416  0.00  0.00    +0.001 A 
ATOM      5  C   UNL     1       7.436  -2.864   0.430  0.00  0.00    +0.015 A 
ATOM      6  C   UNL     1       6.190  -2.247   0.344  0.00  0.00    +0.065 A 
ATOM      7  C   UNL     1       6.103  -0.839   0.243  0.00  0.00    +0.056 A 
ATOM      8  N   UNL     1       4.890  -0.259   0.156  0.00  0.00    -0.338 N 
ATOM      9  C   UNL     1       3.785  -0.968   0.171  0.00  0.00    +0.154 A 
ATOM     10  N   UNL     1       3.777  -2.336   0.266  0.00  0.00    -0.190 NA
ATOM     11  C   UNL     1       4.941  -3.022   0.354  0.00  0.00    +0.281 A 
ATOM     12  O   UNL     1       4.952  -4.237   0.438  0.00  0.00    -0.265 OA
ATOM     13  H   UNL     1       4.808   0.834   0.069  0.00  0.00    +0.167 HD
ENDROOT
BRANCH   9  14
ATOM     14  C   UNL     1       2.503  -0.265   0.077  0.00  0.00    +0.084 C 
ATOM     15  C   UNL     1       2.475   1.080  -0.016  0.00  0.00    +0.033 C 
ATOM     16 CL   UNL     1       1.018  -1.165   0.087  0.00  0.00    -0.080 Cl
BRANCH  15  17
ATOM     17  C   UNL     1       1.191   1.796   0.045  0.00  0.00    -0.004 A 
ATOM     18  C   UNL     1       0.160   1.322   0.863  0.00  0.00    +0.009 A 
ATOM     19  C   UNL     1      -1.042   1.994   0.911  0.00  0.00    +0.002 A 
ATOM     20  C   UNL     1      -1.228   3.143   0.162  0.00  0.00    +0.021 A 
ATOM     21  C   UNL     1      -0.214   3.621  -0.650  0.00  0.00    +0.060 A 
ATOM     22  C   UNL     1       0.995   2.955  -0.714  0.00  0.00    +0.066 A 
ATOM     23 CL   UNL     1       2.267   3.554  -1.732  0.00  0.00    -0.081 Cl
ATOM     24 CL   UNL     1      -0.461   5.059  -1.590  0.00  0.00    -0.082 Cl
ENDBRANCH  15  17
ENDBRANCH   9  14
TORSDOF 2
