REMARK  Name = ZINC04867214
REMARK  5 active torsions:
REMARK  status: ('A' for Active; 'I' for Inactive)
REMARK    1  A    between atoms: C_1  and  O_2
REMARK    2  A    between atoms: O_2  and  C_3
REMARK    3  A    between atoms: C_6  and  N_9
REMARK    4  A    between atoms: N_9  and  N_10
REMARK    5  A    between atoms: C_11  and  C_12
REMARK                            x       y       z     vdW  Elec       q    Type
REMARK                         _______ _______ _______ _____ _____    ______ ____
ROOT
ATOM      1  N   UNL     1       2.729  -3.918   4.089  0.00  0.00    -0.312 N 
ATOM      2  C   UNL     1       3.158  -4.513   5.212  0.00  0.00    +0.111 C 
ATOM      3  H   UNL     1       2.453  -4.455   3.331  0.00  0.00    +0.184 HD
ENDROOT
BRANCH   2   4
ATOM      4  C   UNL     1       3.129  -5.905   5.320  0.00  0.00    +0.042 A 
ATOM      5  C   UNL     1       3.680  -6.554   6.448  0.00  0.00    +0.033 A 
ATOM      6  C   UNL     1       3.642  -7.910   6.535  0.00  0.00    +0.043 A 
ATOM      7  C   UNL     1       3.067  -8.688   5.532  0.00  0.00    +0.044 A 
ATOM      8  C   UNL     1       2.519  -8.124   4.420  0.00  0.00    +0.090 A 
ATOM      9  C   UNL     1       2.519  -6.726   4.267  0.00  0.00    +0.206 A 
ATOM     10  O   UNL     1       2.025  -6.206   3.276  0.00  0.00    -0.286 OA
ATOM     11 CL   UNL     1       1.815  -9.132   3.194  0.00  0.00    -0.080 Cl
ATOM     12 CL   UNL     1       4.324  -8.691   7.927  0.00  0.00    -0.083 Cl
ENDBRANCH   2   4
BRANCH   1  13
ATOM     13  N   UNL     1       2.680  -2.520   4.012  0.00  0.00    -0.243 N 
ATOM     14  H   UNL     1       2.956  -1.982   4.771  0.00  0.00    +0.174 HD
BRANCH  13  18
ATOM     15  C   UNL     1       1.386  -0.664   0.626  0.00  0.00    +0.233 A 
ATOM     16  C   UNL     1       1.435  -2.050   0.702  0.00  0.00    +0.180 A 
ATOM     17  N   UNL     1       1.857  -2.637   1.808  0.00  0.00    -0.232 NA
ATOM     18  C   UNL     1       2.235  -1.902   2.846  0.00  0.00    +0.155 A 
ATOM     19  C   UNL     1       2.186  -0.514   2.768  0.00  0.00    +0.159 A 
ATOM     20  N   UNL     1       1.768   0.071   1.660  0.00  0.00    -0.217 NA
BRANCH  15  22
ATOM     21  C   UNL     1       0.933   1.367  -0.522  0.00  0.00    +0.279 C 
ATOM     22  O   UNL     1       0.951  -0.062  -0.511  0.00  0.00    -0.479 OA
ENDBRANCH  15  22
ENDBRANCH  13  18
ENDBRANCH   1  13
TORSDOF 4
