REMARK  Name = ZINC59790228
REMARK  7 active torsions:
REMARK  status: ('A' for Active; 'I' for Inactive)
REMARK    1  A    between atoms: C_3  and  N_25
REMARK    2  A    between atoms: C_6  and  C_7
REMARK    3  A    between atoms: C_10  and  S_13
REMARK    4  A    between atoms: N_11  and  N_12
REMARK    5  A    between atoms: S_13  and  C_14
REMARK    6  A    between atoms: C_14  and  C_15
REMARK    7  A    between atoms: N_17  and  C_18
REMARK                            x       y       z     vdW  Elec       q    Type
REMARK                         _______ _______ _______ _____ _____    ______ ____
ROOT
ATOM      1  C   UNL     1      -1.263  -0.768   0.033  0.00  0.00    +0.182 A 
ATOM      2  N   UNL     1      -2.454  -0.296   0.320  0.00  0.00    -0.127 NA
ATOM      3  N   UNL     1      -3.331  -1.230   0.225  0.00  0.00    -0.121 NA
ATOM      4  C   UNL     1      -2.754  -2.357  -0.129  0.00  0.00    +0.209 A 
ATOM      5  N   UNL     1      -1.420  -2.102  -0.269  0.00  0.00    -0.224 N 
ENDROOT
BRANCH   1  11
ATOM      6  C   UNL     1      -0.013   1.386   0.046  0.00  0.00    +0.014 A 
ATOM      7  C   UNL     1       1.175   2.088   0.043  0.00  0.00    +0.033 A 
ATOM      8  C   UNL     1       2.382   1.412   0.021  0.00  0.00    +0.126 A 
ATOM      9  C   UNL     1       2.407   0.029   0.003  0.00  0.00    +0.033 A 
ATOM     10  C   UNL     1       1.226  -0.685   0.006  0.00  0.00    +0.014 A 
ATOM     11  C   UNL     1       0.005  -0.009   0.029  0.00  0.00    +0.021 A 
BRANCH   8  12
ATOM     12  N   UNL     1       3.653   2.172   0.017  0.00  0.00    +0.056 N 
ATOM     13  O   UNL     1       3.634   3.381   0.033  0.00  0.00    -0.126 OA
ATOM     14  O   UNL     1       4.709   1.584  -0.001  0.00  0.00    -0.126 OA
ENDBRANCH   8  12
ENDBRANCH   1  11
BRANCH   5  15
ATOM     15  N   UNL     1      -0.443  -2.986  -0.629  0.00  0.00    -0.295 N 
ATOM     16  H   UNL     1      -0.050  -3.441   0.181  0.00  0.00    +0.163 HD
ATOM     17  H   UNL     1      -0.795  -3.664  -1.289  0.00  0.00    +0.163 HD
ENDBRANCH   5  15
BRANCH   4  18
ATOM     18  S   UNL     1      -3.554  -3.906  -0.383  0.00  0.00    -0.075 S 
BRANCH  18  19
ATOM     19  C   UNL     1      -5.302  -3.558  -0.045  0.00  0.00    +0.173 C 
BRANCH  19  20
ATOM     20  C   UNL     1      -6.109  -4.818  -0.228  0.00  0.00    +0.227 C 
ATOM     21  O   UNL     1      -5.559  -5.848  -0.554  0.00  0.00    -0.275 OA
ATOM     22  N   UNL     1      -7.442  -4.799  -0.029  0.00  0.00    -0.285 N 
ATOM     23  H   UNL     1      -7.872  -3.993   0.296  0.00  0.00    +0.155 HD
BRANCH  22  24
ATOM     24  C   UNL     1      -8.205  -5.942  -0.292  0.00  0.00    +0.033 A 
ATOM     25  C   UNL     1      -9.490  -5.818  -0.805  0.00  0.00    +0.024 A 
ATOM     26  C   UNL     1     -10.241  -6.947  -1.064  0.00  0.00    +0.016 A 
ATOM     27  C   UNL     1      -9.714  -8.202  -0.814  0.00  0.00    +0.013 A 
ATOM     28  C   UNL     1      -8.435  -8.329  -0.303  0.00  0.00    +0.016 A 
ATOM     29  C   UNL     1      -7.677  -7.202  -0.047  0.00  0.00    +0.024 A 
ATOM     30  I   UNL     1     -10.857  -9.913  -1.207  0.00  0.00    -0.044 I 
ENDBRANCH  22  24
ENDBRANCH  19  20
ENDBRANCH  18  19
ENDBRANCH   4  18
TORSDOF 7
