REMARK  Name = ZINC37285179
REMARK  9 active torsions:
REMARK  status: ('A' for Active; 'I' for Inactive)
REMARK    1  A    between atoms: C_1  and  C_2
REMARK    2  A    between atoms: C_5  and  N_8
REMARK    3  A    between atoms: C_9  and  C_30
REMARK    4  A    between atoms: C_12  and  S_13
REMARK    5  A    between atoms: S_13  and  C_14
REMARK    6  A    between atoms: C_14  and  C_15
REMARK    7  A    between atoms: C_18  and  C_21
REMARK    8  A    between atoms: N_23  and  C_24
REMARK    9  A    between atoms: C_24  and  C_25
REMARK                            x       y       z     vdW  Elec       q    Type
REMARK                         _______ _______ _______ _____ _____    ______ ____
ROOT
ATOM      1  N   UNL     1       0.034  -4.173  -0.063  0.00  0.00    -0.270 N 
ATOM      2  C   UNL     1      -0.881  -5.021   0.524  0.00  0.00    +0.169 A 
ATOM      3  N   UNL     1      -0.450  -6.246   0.330  0.00  0.00    -0.128 NA
ATOM      4  N   UNL     1       0.654  -6.225  -0.327  0.00  0.00    -0.122 NA
ATOM      5  C   UNL     1       0.996  -4.984  -0.599  0.00  0.00    +0.197 A 
ENDROOT
BRANCH   1  10
ATOM      6  C   UNL     1      -0.164   1.496  -0.237  0.00  0.00    +0.044 C 
ATOM      7  C   UNL     1      -0.111  -0.009  -0.191  0.00  0.00    -0.050 A 
ATOM      8  C   UNL     1      -0.272  -0.741  -1.353  0.00  0.00    +0.005 A 
ATOM      9  C   UNL     1      -0.224  -2.121  -1.314  0.00  0.00    +0.026 A 
ATOM     10  C   UNL     1      -0.014  -2.773  -0.106  0.00  0.00    +0.051 A 
ATOM     11  C   UNL     1       0.147  -2.035   1.059  0.00  0.00    +0.026 A 
ATOM     12  C   UNL     1       0.103  -0.655   1.012  0.00  0.00    +0.005 A 
ENDBRANCH   1  10
BRANCH   2  13
ATOM     13  C   UNL     1      -2.114  -4.626   1.236  0.00  0.00    +0.022 A 
ATOM     14  C   UNL     1      -2.662  -3.348   1.071  0.00  0.00    +0.031 A 
ATOM     15  C   UNL     1      -3.814  -3.021   1.755  0.00  0.00    +0.111 A 
ATOM     16  N   UNL     1      -4.397  -3.894   2.556  0.00  0.00    -0.263 NA
ATOM     17  C   UNL     1      -3.913  -5.108   2.740  0.00  0.00    +0.111 A 
ATOM     18  C   UNL     1      -2.769  -5.521   2.091  0.00  0.00    +0.031 A 
ENDBRANCH   2  13
BRANCH   5  19
ATOM     19  S   UNL     1       2.427  -4.463  -1.485  0.00  0.00    -0.081 S 
BRANCH  19  20
ATOM     20  C   UNL     1       3.267  -6.013  -1.910  0.00  0.00    +0.112 C 
BRANCH  20  21
ATOM     21  C   UNL     1       4.526  -5.707  -2.682  0.00  0.00    -0.037 A 
ATOM     22  C   UNL     1       4.482  -5.615  -4.061  0.00  0.00    +0.005 A 
ATOM     23  C   UNL     1       5.630  -5.335  -4.773  0.00  0.00    +0.013 A 
ATOM     24  C   UNL     1       6.837  -5.145  -4.099  0.00  0.00    +0.037 A 
ATOM     25  C   UNL     1       6.874  -5.240  -2.707  0.00  0.00    +0.013 A 
ATOM     26  C   UNL     1       5.718  -5.515  -2.006  0.00  0.00    +0.005 A 
BRANCH  24  27
ATOM     27  C   UNL     1       8.072  -4.846  -4.855  0.00  0.00    +0.244 C 
ATOM     28  O   UNL     1       8.037  -4.764  -6.067  0.00  0.00    -0.270 OA
ATOM     29  N   UNL     1       9.236  -4.663  -4.201  0.00  0.00    -0.304 N 
ATOM     30  H   UNL     1       9.263  -4.728  -3.233  0.00  0.00    +0.149 HD
BRANCH  29  31
ATOM     31  C   UNL     1      10.459  -4.366  -4.950  0.00  0.00    +0.179 C 
BRANCH  31  32
ATOM     32  C   UNL     1      11.610  -4.208  -3.991  0.00  0.00    +0.122 A 
ATOM     33  C   UNL     1      12.426  -5.192  -3.573  0.00  0.00    +0.046 A 
ATOM     34  C   UNL     1      13.357  -4.603  -2.687  0.00  0.00    +0.041 A 
ATOM     35  C   UNL     1      13.055  -3.295  -2.617  0.00  0.00    +0.195 A 
ATOM     36  O   UNL     1      11.999  -3.060  -3.414  0.00  0.00    -0.466 OA
ENDBRANCH  31  32
ENDBRANCH  29  31
ENDBRANCH  24  27
ENDBRANCH  20  21
ENDBRANCH  19  20
ENDBRANCH   5  19
TORSDOF 8
