REMARK  Name = ZINC59363902
REMARK  5 active torsions:
REMARK  status: ('A' for Active; 'I' for Inactive)
REMARK    1  A    between atoms: C_1  and  C_2
REMARK    2  A    between atoms: C_2  and  C_4
REMARK    3  A    between atoms: C_2  and  S_23
REMARK    4  A    between atoms: C_9  and  N_12
REMARK    5  A    between atoms: S_23  and  C_24
REMARK                            x       y       z     vdW  Elec       q    Type
REMARK                         _______ _______ _______ _____ _____    ______ ____
ROOT
ATOM      1  C   UNL     1       1.253  -0.299  -1.299  0.00  0.00    +0.229 C 
ATOM      2  O   UNL     1       2.423  -0.516  -1.063  0.00  0.00    -0.274 OA
ATOM      3  N   UNL     1       0.805  -0.324  -2.570  0.00  0.00    -0.300 N 
ATOM      4  C   UNL     1      -0.608  -0.058  -2.871  0.00  0.00    +0.110 C 
ATOM      5  C   UNL     1      -1.162  -1.217  -3.705  0.00  0.00    +0.044 C 
ATOM      6  C   UNL     1      -0.282  -1.416  -4.942  0.00  0.00    +0.095 C 
ATOM      7  C   UNL     1       1.141  -1.771  -4.506  0.00  0.00    +0.044 C 
ATOM      8  C   UNL     1       1.722  -0.613  -3.681  0.00  0.00    +0.110 C 
ENDROOT
BRANCH   6   9
ATOM      9  N   UNL     1      -0.828  -2.502  -5.759  0.00  0.00    -0.289 N 
ATOM     10  C   UNL     1      -1.254  -2.393  -7.081  0.00  0.00    +0.070 A 
ATOM     11  C   UNL     1      -1.305  -1.339  -7.980  0.00  0.00    +0.028 A 
ATOM     12  C   UNL     1      -1.793  -1.546  -9.255  0.00  0.00    +0.002 A 
ATOM     13  C   UNL     1      -2.232  -2.802  -9.639  0.00  0.00    +0.002 A 
ATOM     14  C   UNL     1      -2.186  -3.858  -8.750  0.00  0.00    +0.028 A 
ATOM     15  C   UNL     1      -1.696  -3.659  -7.468  0.00  0.00    +0.067 A 
ATOM     16  N   UNL     1      -1.525  -4.499  -6.370  0.00  0.00    -0.306 N 
ATOM     17  H   UNL     1      -1.745  -5.443  -6.337  0.00  0.00    +0.170 HD
ATOM     18  C   UNL     1      -0.997  -3.778  -5.363  0.00  0.00    +0.328 A 
ATOM     19  O   UNL     1      -0.719  -4.212  -4.261  0.00  0.00    -0.247 OA
ENDBRANCH   6   9
BRANCH   1  21
ATOM     20  C   UNL     1       0.072   1.508  -0.079  0.00  0.00    +0.029 C 
ATOM     21  C   UNL     1       0.300  -0.002  -0.170  0.00  0.00    +0.134 C 
BRANCH  21  22
ATOM     22  S   UNL     1       1.004  -0.603   1.390  0.00  0.00    -0.111 S 
BRANCH  22  23
ATOM     23  C   UNL     1       0.931  -2.357   1.244  0.00  0.00    +0.028 A 
ATOM     24  C   UNL     1       0.297  -2.939   0.153  0.00  0.00    +0.036 A 
ATOM     25  C   UNL     1       0.241  -4.315   0.041  0.00  0.00    +0.042 A 
ATOM     26  C   UNL     1       0.816  -5.114   1.015  0.00  0.00    +0.021 A 
ATOM     27  C   UNL     1       1.447  -4.538   2.102  0.00  0.00    +0.022 A 
ATOM     28  C   UNL     1       1.511  -3.163   2.217  0.00  0.00    +0.054 A 
ATOM     29 CL   UNL     1       2.310  -2.441   3.579  0.00  0.00    -0.082 Cl
ATOM     30 CL   UNL     1      -0.550  -5.043  -1.322  0.00  0.00    -0.084 Cl
ENDBRANCH  22  23
ENDBRANCH  21  22
ENDBRANCH   1  21
TORSDOF 4
