REMARK  Name = ZINC04729657
REMARK  10 active torsions:
REMARK  status: ('A' for Active; 'I' for Inactive)
REMARK    1  A    between atoms: C_1  and  C_2
REMARK    2  A    between atoms: C_2  and  C_3
REMARK    3  A    between atoms: C_3  and  C_4
REMARK    4  A    between atoms: C_4  and  C_5
REMARK    5  A    between atoms: C_5  and  C_6
REMARK    6  A    between atoms: C_6  and  N_7
REMARK    7  A    between atoms: N_15  and  C_29
REMARK    8  A    between atoms: N_19  and  N_20
REMARK    9  A    between atoms: C_21  and  C_22
REMARK   10  A    between atoms: C_21  and  C_23
REMARK                            x       y       z     vdW  Elec       q    Type
REMARK                         _______ _______ _______ _____ _____    ______ ____
ROOT
ATOM      1  N   UNL     1      -1.413  -1.998   0.005  0.00  0.00    -0.305 N 
ATOM      2  C   UNL     1      -1.392  -2.832   1.114  0.00  0.00    +0.153 A 
ATOM      3  C   UNL     1      -1.381  -2.621   2.504  0.00  0.00    +0.280 A 
ATOM      4  O   UNL     1      -1.391  -1.489   2.955  0.00  0.00    -0.265 OA
ATOM      5  N   UNL     1      -1.359  -3.685   3.333  0.00  0.00    -0.273 N 
ATOM      6  H   UNL     1      -1.351  -3.538   4.323  0.00  0.00    +0.173 HD
ATOM      7  C   UNL     1      -1.347  -4.939   2.850  0.00  0.00    +0.331 A 
ATOM      8  O   UNL     1      -1.327  -5.874   3.628  0.00  0.00    -0.246 OA
ATOM      9  N   UNL     1      -1.357  -5.186   1.527  0.00  0.00    -0.280 N 
ATOM     10  C   UNL     1      -1.379  -4.135   0.625  0.00  0.00    +0.170 A 
ATOM     11  N   UNL     1      -1.393  -4.065  -0.707  0.00  0.00    -0.195 NA
ATOM     12  C   UNL     1      -1.419  -2.804  -1.091  0.00  0.00    +0.218 A 
ATOM     13  N   UNL     1      -1.444  -2.371  -2.397  0.00  0.00    -0.206 N 
ATOM     14  C   UNL     1      -1.343  -6.568   1.040  0.00  0.00    +0.155 C 
ATOM     15  H   UNL     1      -1.459  -1.421  -2.593  0.00  0.00    +0.177 HD
ENDROOT
BRANCH  13  16
ATOM     16  N   UNL     1      -1.447  -3.302  -3.444  0.00  0.00    -0.184 NA
ATOM     17  C   UNL     1      -1.470  -2.893  -4.676  0.00  0.00    +0.063 C 
ATOM     18  C   UNL     1      -1.494  -1.417  -4.980  0.00  0.00    +0.068 C 
BRANCH  17  19
ATOM     19  C   UNL     1      -1.473  -3.873  -5.778  0.00  0.00    -0.003 A 
ATOM     20  C   UNL     1      -1.504  -3.437  -7.105  0.00  0.00    +0.010 A 
ATOM     21  C   UNL     1      -1.501  -4.359  -8.130  0.00  0.00    +0.001 A 
ATOM     22  C   UNL     1      -1.480  -5.713  -7.848  0.00  0.00    +0.000 A 
ATOM     23  C   UNL     1      -1.454  -6.153  -6.536  0.00  0.00    +0.001 A 
ATOM     24  C   UNL     1      -1.451  -5.242  -5.500  0.00  0.00    +0.010 A 
ENDBRANCH  17  19
ENDBRANCH  13  16
BRANCH   1  25
ATOM     25  C   UNL     1      -1.433  -0.534   0.013  0.00  0.00    +0.125 C 
BRANCH  25  26
ATOM     26  C   UNL     1       0.002  -0.004   0.002  0.00  0.00    +0.022 C 
BRANCH  26  27
ATOM     27  C   UNL     1      -0.019   1.526   0.010  0.00  0.00    +0.002 C 
BRANCH  27  28
ATOM     28  C   UNL     1       1.417   2.055  -0.000  0.00  0.00    -0.000 C 
BRANCH  28  30
ATOM     29  C   UNL     1       2.831   4.115  -0.003  0.00  0.00    +0.004 C 
ATOM     30  C   UNL     1       1.396   3.585   0.008  0.00  0.00    -0.003 C 
ENDBRANCH  28  30
ENDBRANCH  27  28
ENDBRANCH  26  27
ENDBRANCH  25  26
ENDBRANCH   1  25
TORSDOF 7
