REMARK  Name = ZINC04589665
REMARK  7 active torsions:
REMARK  status: ('A' for Active; 'I' for Inactive)
REMARK    1  A    between atoms: C_1  and  N_2
REMARK    2  A    between atoms: N_2  and  C_3
REMARK    3  A    between atoms: N_2  and  C_4
REMARK    4  A    between atoms: C_7  and  N_19
REMARK    5  A    between atoms: C_9  and  C_10
REMARK    6  A    between atoms: N_12  and  C_13
REMARK    7  A    between atoms: N_22  and  C_23
REMARK                            x       y       z     vdW  Elec       q    Type
REMARK                         _______ _______ _______ _____ _____    ______ ____
ROOT
ATOM      1  C   UNL     1      -0.046   1.138   2.369  0.00  0.00    +0.042 A 
ATOM      2  C   UNL     1       1.274   1.493   2.612  0.00  0.00    +0.025 A 
ATOM      3  C   UNL     1       1.913   1.050   3.751  0.00  0.00    +0.025 A 
ATOM      4  C   UNL     1       1.245   0.234   4.659  0.00  0.00    +0.036 A 
ATOM      5  C   UNL     1      -0.068  -0.134   4.429  0.00  0.00    +0.038 A 
ATOM      6  C   UNL     1      -0.726   0.316   3.281  0.00  0.00    +0.059 A 
ENDROOT
BRANCH   4   7
ATOM      7  N   UNL     1       1.906  -0.216   5.811  0.00  0.00    -0.269 N 
ATOM      8  C   UNL     1       3.221  -0.507   5.764  0.00  0.00    +0.308 C 
ATOM      9  O   UNL     1       3.853  -0.299   4.746  0.00  0.00    -0.252 OA
ATOM     10  N   UNL     1       3.835  -1.028   6.844  0.00  0.00    -0.269 N 
ATOM     11  H   UNL     1       1.416  -0.318   6.642  0.00  0.00    +0.156 HD
ATOM     12  H   UNL     1       3.319  -1.256   7.633  0.00  0.00    +0.156 HD
BRANCH  10  13
ATOM     13  C   UNL     1       5.219  -1.239   6.829  0.00  0.00    +0.035 A 
ATOM     14  C   UNL     1       5.849  -1.633   5.655  0.00  0.00    +0.025 A 
ATOM     15  C   UNL     1       7.215  -1.836   5.641  0.00  0.00    +0.022 A 
ATOM     16  C   UNL     1       7.954  -1.658   6.797  0.00  0.00    +0.041 A 
ATOM     17  C   UNL     1       7.328  -1.271   7.969  0.00  0.00    +0.022 A 
ATOM     18  C   UNL     1       5.963  -1.061   7.987  0.00  0.00    +0.025 A 
ATOM     19 CL   UNL     1       9.670  -1.920   6.778  0.00  0.00    -0.084 Cl
ENDBRANCH  10  13
ENDBRANCH   4   7
BRANCH   6  20
ATOM     20  C   UNL     1      -2.126  -0.072   3.029  0.00  0.00    +0.246 C 
ATOM     21  O   UNL     1      -2.695   0.321   2.029  0.00  0.00    -0.270 OA
ATOM     22  N   UNL     1      -2.775  -0.862   3.907  0.00  0.00    -0.308 N 
ATOM     23  H   UNL     1      -2.321  -1.175   4.705  0.00  0.00    +0.149 HD
BRANCH  22  24
ATOM     24  C   UNL     1      -4.166  -1.246   3.657  0.00  0.00    +0.073 C 
ATOM     25  C   UNL     1      -5.100  -0.151   4.176  0.00  0.00    +0.022 C 
ATOM     26  C   UNL     1      -6.553  -0.553   3.915  0.00  0.00    +0.002 C 
ATOM     27  C   UNL     1      -6.856  -1.867   4.638  0.00  0.00    +0.000 C 
ATOM     28  C   UNL     1      -5.923  -2.962   4.118  0.00  0.00    +0.002 C 
ATOM     29  C   UNL     1      -4.470  -2.560   4.380  0.00  0.00    +0.022 C 
ENDBRANCH  22  24
ENDBRANCH   6  20
BRANCH   1  31
ATOM     30  C   UNL     1       0.005   1.135   0.013  0.00  0.00    +0.129 C 
ATOM     31  N   UNL     1      -0.692   1.590   1.223  0.00  0.00    -0.335 N 
ATOM     32  C   UNL     1      -0.823   3.053   1.236  0.00  0.00    +0.129 C 
ENDBRANCH   1  31
TORSDOF 5
