REMARK  Name = ZINC37131221
REMARK  7 active torsions:
REMARK  status: ('A' for Active; 'I' for Inactive)
REMARK    1  A    between atoms: C_1  and  C_2
REMARK    2  A    between atoms: C_2  and  C_3
REMARK    3  A    between atoms: C_3  and  C_5
REMARK    4  A    between atoms: C_3  and  N_12
REMARK    5  A    between atoms: C_10  and  O_11
REMARK    6  A    between atoms: N_12  and  C_13
REMARK    7  A    between atoms: C_16  and  N_20
REMARK                            x       y       z     vdW  Elec       q    Type
REMARK                         _______ _______ _______ _____ _____    ______ ____
ROOT
ATOM      1  N   UNL     1       0.147  -0.243   2.432  0.00  0.00    -0.336 N 
ATOM      2  H   UNL     1      -0.823  -0.241   2.456  0.00  0.00    +0.147 HD
ENDROOT
BRANCH   1   3
ATOM      3  C   UNL     1       0.875  -0.011   3.601  0.00  0.00    +0.042 A 
ATOM      4  C   UNL     1       2.259  -0.128   3.594  0.00  0.00    +0.026 A 
ATOM      5  C   UNL     1       2.977   0.103   4.752  0.00  0.00    +0.034 A 
ATOM      6  C   UNL     1       2.319   0.450   5.917  0.00  0.00    +0.127 A 
ATOM      7  C   UNL     1       0.941   0.568   5.929  0.00  0.00    +0.049 A 
ATOM      8  C   UNL     1       0.218   0.344   4.773  0.00  0.00    +0.041 A 
ATOM      9 BR   UNL     1      -1.666   0.514   4.787  0.00  0.00    -0.048 Br
BRANCH   6  10
ATOM     10  N   UNL     1       3.091   0.696   7.156  0.00  0.00    +0.056 N 
ATOM     11  O   UNL     1       4.295   0.592   7.148  0.00  0.00    -0.126 OA
ATOM     12  O   UNL     1       2.517   0.999   8.176  0.00  0.00    -0.126 OA
ENDBRANCH   6  10
ENDBRANCH   1   3
BRANCH   1  13
ATOM     13  C   UNL     1       0.848  -0.490   1.169  0.00  0.00    +0.104 C 
BRANCH  13  14
ATOM     14  C   UNL     1       1.177  -1.956   1.056  0.00  0.00    +0.014 A 
ATOM     15  C   UNL     1       0.416  -2.890   1.732  0.00  0.00    +0.009 A 
ATOM     16  C   UNL     1       0.718  -4.235   1.629  0.00  0.00    +0.001 A 
ATOM     17  C   UNL     1       1.782  -4.649   0.849  0.00  0.00    +0.004 A 
ATOM     18  C   UNL     1       2.546  -3.720   0.171  0.00  0.00    +0.046 A 
ATOM     19  C   UNL     1       2.242  -2.369   0.268  0.00  0.00    +0.122 A 
BRANCH  19  20
ATOM     20  O   UNL     1       2.988  -1.453  -0.403  0.00  0.00    -0.506 OA
ATOM     21  H   UNL     1       3.745  -1.119   0.098  0.00  0.00    +0.292 HD
ENDBRANCH  19  20
ENDBRANCH  13  14
BRANCH  13  23
ATOM     22  C   UNL     1      -0.275   1.436   0.040  0.00  0.00    +0.006 C 
ATOM     23  C   UNL     1      -0.048  -0.077  -0.001  0.00  0.00    +0.024 C 
ENDBRANCH  13  23
ENDBRANCH   1  13
TORSDOF 6
