REMARK  Name = ZINC06382006
REMARK  10 active torsions:
REMARK  status: ('A' for Active; 'I' for Inactive)
REMARK    1  A    between atoms: C_1  and  C_2
REMARK    2  A    between atoms: C_6  and  C_22
REMARK    3  A    between atoms: C_8  and  O_11
REMARK    4  A    between atoms: O_11  and  C_12
REMARK    5  A    between atoms: C_12  and  C_14
REMARK    6  A    between atoms: C_14  and  S_15
REMARK    7  A    between atoms: S_15  and  C_16
REMARK    8  A    between atoms: N_20  and  C_21
REMARK    9  A    between atoms: C_22  and  C_23
REMARK   10  A    between atoms: C_22  and  C_24
REMARK                            x       y       z     vdW  Elec       q    Type
REMARK                         _______ _______ _______ _____ _____    ______ ____
ROOT
ATOM      1  O   UNL     1       1.152   2.176   0.003  0.00  0.00    -0.460 OA
ENDROOT
BRANCH   1   7
ATOM      2  C   UNL     1      -0.385   6.080  -0.701  0.00  0.00    +0.007 C 
ATOM      3  C   UNL     1       0.894   5.663  -1.430  0.00  0.00    -0.011 C 
ATOM      4  C   UNL     1       2.107   6.259  -0.714  0.00  0.00    +0.004 C 
ATOM      5  C   UNL     1       2.152   5.747   0.727  0.00  0.00    +0.007 C 
ATOM      6  C   UNL     1       2.262   4.221   0.723  0.00  0.00    +0.032 C 
ATOM      7  C   UNL     1       1.048   3.625   0.007  0.00  0.00    +0.180 C 
ATOM      8  C   UNL     1       1.003   4.137  -1.434  0.00  0.00    +0.048 C 
BRANCH   6   9
ATOM      9  C   UNL     1       2.306   3.709   2.164  0.00  0.00    -0.011 C 
ATOM     10  C   UNL     1       3.591   4.196   2.838  0.00  0.00    +0.007 C 
ATOM     11  C   UNL     1       1.094   4.240   2.932  0.00  0.00    +0.007 C 
ENDBRANCH   6   9
ENDBRANCH   1   7
BRANCH   1  12
ATOM     12  C   UNL     1       0.003   1.483   0.008  0.00  0.00    +0.318 C 
ATOM     13  O   UNL     1      -1.055   2.067   0.010  0.00  0.00    -0.250 OA
BRANCH  12  14
ATOM     14  C   UNL     1       0.032  -0.024   0.004  0.00  0.00    +0.197 C 
BRANCH  14  15
ATOM     15  S   UNL     1      -1.662  -0.660   0.012  0.00  0.00    -0.076 S 
BRANCH  15  16
ATOM     16  C   UNL     1      -1.339  -2.392   0.006  0.00  0.00    +0.169 A 
ATOM     17  N   UNL     1      -0.151  -2.952  -0.001  0.00  0.00    -0.230 NA
ATOM     18  C   UNL     1      -0.289  -4.288  -0.003  0.00  0.00    +0.131 A 
ATOM     19  C   UNL     1      -1.602  -4.577   0.003  0.00  0.00    +0.107 A 
ATOM     20  N   UNL     1      -2.277  -3.378   0.015  0.00  0.00    -0.329 N 
ATOM     21  C   UNL     1      -3.731  -3.196   0.030  0.00  0.00    +0.151 C 
ENDBRANCH  15  16
ENDBRANCH  14  15
ENDBRANCH  12  14
ENDBRANCH   1  12
TORSDOF 6
