REMARK  Name = ZINC09405488
REMARK  5 active torsions:
REMARK  status: ('A' for Active; 'I' for Inactive)
REMARK    1  A    between atoms: C_7  and  C_11
REMARK    2  A    between atoms: C_11  and  C_12
REMARK    3  A    between atoms: C_12  and  N_13
REMARK    4  A    between atoms: N_24  and  C_25
REMARK    5  A    between atoms: C_25  and  C_26
REMARK                            x       y       z     vdW  Elec       q    Type
REMARK                         _______ _______ _______ _____ _____    ______ ____
ROOT
ATOM      1  N   UNL     1      -2.241   8.858   0.065  0.00  0.00    -0.312 N 
ATOM      2  C   UNL     1      -1.634   7.614   0.054  0.00  0.00    +0.237 A 
ATOM      3  N   UNL     1      -2.388   6.523   0.055  0.00  0.00    -0.194 NA
ATOM      4  C   UNL     1      -1.803   5.329   0.044  0.00  0.00    +0.166 A 
ATOM      5  C   UNL     1      -0.394   5.273   0.031  0.00  0.00    +0.138 A 
ATOM      6  C   UNL     1      -0.036   3.844   0.022  0.00  0.00    +0.029 A 
ATOM      7  C   UNL     1       1.176   3.158   0.007  0.00  0.00    +0.012 A 
ATOM      8  C   UNL     1       1.182   1.779   0.000  0.00  0.00    +0.001 A 
ATOM      9  C   UNL     1      -0.013   1.076   0.008  0.00  0.00    +0.002 A 
ATOM     10  C   UNL     1      -1.219   1.743   0.017  0.00  0.00    +0.026 A 
ATOM     11  C   UNL     1      -1.246   3.134   0.030  0.00  0.00    +0.053 A 
ATOM     12  N   UNL     1      -2.289   4.045   0.043  0.00  0.00    -0.319 N 
ATOM     13  N   UNL     1       0.302   6.401   0.030  0.00  0.00    -0.142 NA
ATOM     14  N   UNL     1      -0.308   7.536   0.041  0.00  0.00    -0.113 NA
ATOM     15  H   UNL     1      -3.208   8.926   0.074  0.00  0.00    +0.149 HD
ENDROOT
BRANCH   1  16
ATOM     16  C   UNL     1      -1.422  10.073   0.063  0.00  0.00    +0.109 C 
BRANCH  16  17
ATOM     17  C   UNL     1      -2.332  11.302   0.077  0.00  0.00    +0.056 C 
BRANCH  17  24
ATOM     18  C   UNL     1      -0.322  13.810  -3.336  0.00  0.00    +0.001 A 
ATOM     19  C   UNL     1       0.375  14.911  -2.859  0.00  0.00    +0.002 A 
ATOM     20  C   UNL     1       0.428  15.178  -1.508  0.00  0.00    +0.026 A 
ATOM     21  C   UNL     1      -0.223  14.337  -0.612  0.00  0.00    +0.047 A 
ATOM     22  C   UNL     1      -0.928  13.222  -1.100  0.00  0.00    +0.003 A 
ATOM     23  C   UNL     1      -0.968  12.970  -2.473  0.00  0.00    +0.010 A 
ATOM     24  C   UNL     1      -1.490  12.552   0.075  0.00  0.00    -0.021 A 
ATOM     25  C   UNL     1      -1.117  13.265   1.149  0.00  0.00    +0.087 A 
ATOM     26  N   UNL     1      -0.354  14.332   0.759  0.00  0.00    -0.360 N 
ATOM     27  H   UNL     1       0.033  14.989   1.358  0.00  0.00    +0.165 HD
ENDBRANCH  17  24
ENDBRANCH  16  17
ENDBRANCH   1  16
BRANCH  12  28
ATOM     28  C   UNL     1      -3.710   3.689   0.056  0.00  0.00    +0.159 C 
BRANCH  28  29
ATOM     29  C   UNL     1      -4.212   3.573  -1.360  0.00  0.00    -0.028 A 
ATOM     30  C   UNL     1      -4.737   4.680  -2.000  0.00  0.00    +0.008 A 
ATOM     31  C   UNL     1      -5.193   4.576  -3.300  0.00  0.00    +0.038 A 
ATOM     32  C   UNL     1      -5.133   3.360  -3.959  0.00  0.00    +0.123 A 
ATOM     33  C   UNL     1      -4.611   2.250  -3.316  0.00  0.00    +0.038 A 
ATOM     34  C   UNL     1      -4.151   2.358  -2.017  0.00  0.00    +0.008 A 
ATOM     35  F   UNL     1      -5.582   3.256  -5.229  0.00  0.00    -0.205 F 
ENDBRANCH  28  29
ENDBRANCH  12  28
TORSDOF 5
