REMARK  Name = ZINC38702266
REMARK  12 active torsions:
REMARK  status: ('A' for Active; 'I' for Inactive)
REMARK    1  A    between atoms: C_1  and  C_2
REMARK    2  A    between atoms: C_2  and  C_3
REMARK    3  A    between atoms: C_3  and  C_4
REMARK    4  A    between atoms: C_4  and  C_5
REMARK    5  A    between atoms: C_5  and  O_6
REMARK    6  A    between atoms: O_6  and  C_7
REMARK    7  A    between atoms: C_11  and  C_13
REMARK    8  A    between atoms: C_16  and  C_32
REMARK    9  A    between atoms: N_23  and  C_24
REMARK   10  A    between atoms: C_34  and  C_40
REMARK   11  A    between atoms: C_35  and  C_39
REMARK   12  A    between atoms: C_37  and  O_38
REMARK                            x       y       z     vdW  Elec       q    Type
REMARK                         _______ _______ _______ _____ _____    ______ ____
ROOT
ATOM      1  C   UNL     1       2.741  -8.198  -4.760  0.00  0.00    +0.142 C 
ATOM      2  C   UNL     1       4.172  -8.597  -4.523  0.00  0.00    +0.035 A 
ATOM      3  C   UNL     1       5.265  -8.606  -3.650  0.00  0.00    +0.102 A 
ATOM      4  N   UNL     1       6.258  -9.216  -4.266  0.00  0.00    -0.173 NA
ATOM      5  N   UNL     1       5.900  -9.593  -5.442  0.00  0.00    -0.272 N 
ATOM      6  H   UNL     1       6.468 -10.062  -6.074  0.00  0.00    +0.189 HD
ATOM      7  C   UNL     1       4.601  -9.237  -5.670  0.00  0.00    +0.126 A 
ATOM      8  C   UNL     1       3.495  -9.261  -6.633  0.00  0.00    +0.266 C 
ATOM      9  O   UNL     1       3.551  -9.755  -7.743  0.00  0.00    -0.268 OA
ATOM     10  N   UNL     1       2.407  -8.660  -6.113  0.00  0.00    -0.280 N 
ENDROOT
BRANCH   3  11
ATOM     11  C   UNL     1       5.300  -8.034  -2.281  0.00  0.00    +0.044 A 
ATOM     12  C   UNL     1       4.261  -8.289  -1.389  0.00  0.00    +0.017 A 
ATOM     13  C   UNL     1       4.299  -7.754  -0.117  0.00  0.00    -0.047 A 
ATOM     14  C   UNL     1       5.365  -6.965   0.276  0.00  0.00    -0.044 A 
ATOM     15  C   UNL     1       6.401  -6.706  -0.601  0.00  0.00    +0.049 A 
ATOM     16  C   UNL     1       6.379  -7.241  -1.879  0.00  0.00    +0.126 A 
ATOM     17  C   UNL     1       5.397  -6.386   1.667  0.00  0.00    +0.044 C 
ATOM     18  C   UNL     1       3.174  -8.030   0.847  0.00  0.00    +0.044 C 
BRANCH  16  19
ATOM     19  O   UNL     1       7.400  -6.992  -2.740  0.00  0.00    -0.506 OA
ATOM     20  H   UNL     1       7.311  -6.160  -3.225  0.00  0.00    +0.292 HD
ENDBRANCH  16  19
ENDBRANCH   3  11
BRANCH  10  21
ATOM     21  C   UNL     1       1.114  -8.495  -6.782  0.00  0.00    +0.100 C 
ATOM     22  C   UNL     1       0.548  -9.873  -7.165  0.00  0.00    +0.047 C 
ATOM     23  C   UNL     1      -0.641  -9.702  -8.141  0.00  0.00    +0.168 C 
ATOM     24  S   UNL     1      -0.238  -8.123  -8.995  0.00  0.00    -0.029 S 
ATOM     25  O   UNL     1       0.090  -8.400 -10.349  0.00  0.00    -0.174 OA
ATOM     26  O   UNL     1      -1.249  -7.168  -8.701  0.00  0.00    -0.174 OA
ATOM     27  C   UNL     1       1.299  -7.669  -8.087  0.00  0.00    +0.188 C 
ENDBRANCH  10  21
BRANCH   1  32
ATOM     28  C   UNL     1       1.815  -4.752  -3.519  0.00  0.00    +0.121 A 
ATOM     29  C   UNL     1       2.341  -3.949  -4.521  0.00  0.00    +0.045 A 
ATOM     30  C   UNL     1       2.994  -4.524  -5.593  0.00  0.00    +0.004 A 
ATOM     31  C   UNL     1       3.123  -5.898  -5.670  0.00  0.00    +0.006 A 
ATOM     32  C   UNL     1       2.599  -6.701  -4.673  0.00  0.00    -0.019 A 
ATOM     33  C   UNL     1       1.950  -6.130  -3.595  0.00  0.00    +0.051 A 
BRANCH  28  34
ATOM     34  O   UNL     1       1.172  -4.188  -2.462  0.00  0.00    -0.492 OA
BRANCH  34  35
ATOM     35  C   UNL     1       1.070  -2.763  -2.450  0.00  0.00    +0.229 C 
BRANCH  35  36
ATOM     36  C   UNL     1       0.321  -2.316  -1.193  0.00  0.00    +0.041 C 
BRANCH  36  37
ATOM     37  C   UNL     1       0.212  -0.790  -1.179  0.00  0.00    +0.003 C 
BRANCH  37  39
ATOM     38  C   UNL     1      -0.646   1.183   0.091  0.00  0.00    +0.004 C 
ATOM     39  C   UNL     1      -0.537  -0.343   0.078  0.00  0.00    -0.003 C 
ENDBRANCH  37  39
ENDBRANCH  36  37
ENDBRANCH  35  36
ENDBRANCH  34  35
ENDBRANCH  28  34
ENDBRANCH   1  32
TORSDOF 9
