REMARK  Name = ZINC02138509
REMARK  7 active torsions:
REMARK  status: ('A' for Active; 'I' for Inactive)
REMARK    1  A    between atoms: C_1  and  C_2
REMARK    2  A    between atoms: C_8  and  O_24
REMARK    3  A    between atoms: C_10  and  C_22
REMARK    4  A    between atoms: C_10  and  C_23
REMARK    5  A    between atoms: C_11  and  C_14
REMARK    6  A    between atoms: O_24  and  C_25
REMARK    7  A    between atoms: C_25  and  C_27
REMARK                            x       y       z     vdW  Elec       q    Type
REMARK                         _______ _______ _______ _____ _____    ______ ____
ROOT
ATOM      1  C   UNL     1      -5.496  -0.219   2.857  0.00  0.00    +0.044 C 
ATOM      2  C   UNL     1      -4.204  -0.190   3.634  0.00  0.00    -0.050 A 
ATOM      3  C   UNL     1      -4.009  -1.072   4.681  0.00  0.00    +0.005 A 
ATOM      4  C   UNL     1      -2.827  -1.045   5.393  0.00  0.00    +0.023 A 
ATOM      5  C   UNL     1      -1.833  -0.131   5.057  0.00  0.00    +0.034 A 
ATOM      6  C   UNL     1      -2.029   0.751   4.006  0.00  0.00    +0.014 A 
ATOM      7  C   UNL     1      -3.219   0.717   3.297  0.00  0.00    +0.012 A 
ATOM      8  C   UNL     1      -0.974   1.750   3.611  0.00  0.00    +0.216 C 
ATOM      9  C   UNL     1       0.001   1.984   4.765  0.00  0.00    +0.029 C 
ATOM     10  C   UNL     1       0.509   0.626   5.267  0.00  0.00    +0.111 C 
ATOM     11  N   UNL     1      -0.644  -0.117   5.794  0.00  0.00    -0.336 N 
ATOM     12  C   UNL     1       1.182   2.824   4.276  0.00  0.00    +0.017 C 
ATOM     13  C   UNL     1      -0.716   2.715   5.901  0.00  0.00    +0.017 C 
ATOM     14  H   UNL     1      -0.582  -0.590   6.638  0.00  0.00    +0.147 HD
ENDROOT
BRANCH  10  15
ATOM     15  C   UNL     1       1.133  -0.139   4.128  0.00  0.00    -0.008 A 
ATOM     16  C   UNL     1       0.372  -1.033   3.398  0.00  0.00    +0.008 A 
ATOM     17  C   UNL     1       0.943  -1.735   2.353  0.00  0.00    +0.020 A 
ATOM     18  C   UNL     1       2.277  -1.544   2.039  0.00  0.00    +0.042 A 
ATOM     19  C   UNL     1       3.039  -0.651   2.770  0.00  0.00    +0.040 A 
ATOM     20  C   UNL     1       2.465   0.057   3.811  0.00  0.00    +0.047 A 
ATOM     21 CL   UNL     1       3.418   1.184   4.724  0.00  0.00    -0.083 Cl
ATOM     22 CL   UNL     1       2.994  -2.427   0.727  0.00  0.00    -0.083 Cl
ENDBRANCH  10  15
BRANCH   8  23
ATOM     23  O   UNL     1      -0.243   1.247   2.461  0.00  0.00    -0.456 OA
BRANCH  23  24
ATOM     24  C   UNL     1      -0.718   1.572   1.248  0.00  0.00    +0.305 C 
ATOM     25  O   UNL     1      -1.711   2.254   1.150  0.00  0.00    -0.251 OA
ATOM     26  C   UNL     1      -0.013   1.086   0.008  0.00  0.00    +0.136 C 
ENDBRANCH  23  24
ENDBRANCH   8  23
TORSDOF 3
