REMARK  Name = ZINC34900831
REMARK  3 active torsions:
REMARK  status: ('A' for Active; 'I' for Inactive)
REMARK    1  A    between atoms: N_9  and  C_10
REMARK    2  A    between atoms: C_20  and  C_23
REMARK    3  A    between atoms: N_25  and  C_26
REMARK                            x       y       z     vdW  Elec       q    Type
REMARK                         _______ _______ _______ _____ _____    ______ ____
ROOT
ATOM      1  C   UNL     1       0.009   1.379   0.270  0.00  0.00    +0.002 A 
ATOM      2  C   UNL     1       1.200   2.088   0.292  0.00  0.00    +0.002 A 
ATOM      3  C   UNL     1       2.408   1.428   0.194  0.00  0.00    +0.028 A 
ATOM      4  C   UNL     1       2.432   0.047   0.071  0.00  0.00    +0.068 A 
ATOM      5  C   UNL     1       1.229  -0.676   0.048  0.00  0.00    +0.065 A 
ATOM      6  C   UNL     1       0.014   0.007   0.149  0.00  0.00    +0.028 A 
ATOM      7  N   UNL     1       1.554  -1.989  -0.078  0.00  0.00    -0.327 N 
ATOM      8  C   UNL     1       2.856  -2.117  -0.133  0.00  0.00    +0.177 A 
ATOM      9  N   UNL     1       3.447  -0.889  -0.045  0.00  0.00    -0.310 N 
ATOM     10  N   UNL     1       3.530  -3.313  -0.261  0.00  0.00    -0.302 N 
ATOM     11  C   UNL     1       3.770  -3.899  -1.587  0.00  0.00    +0.108 C 
ATOM     12  C   UNL     1       3.245  -5.338  -1.592  0.00  0.00    +0.020 C 
ATOM     13  C   UNL     1       3.883  -6.114  -0.437  0.00  0.00    +0.016 C 
ATOM     14  C   UNL     1       3.494  -5.463   0.892  0.00  0.00    +0.092 C 
ATOM     15  C   UNL     1       4.027  -4.023   0.925  0.00  0.00    +0.120 C 
ATOM     16  H   UNL     1       0.918  -2.721  -0.121  0.00  0.00    +0.169 HD
ENDROOT
BRANCH   9  17
ATOM     17  C   UNL     1       4.885  -0.613  -0.070  0.00  0.00    +0.090 C 
ATOM     18  C   UNL     1       5.294   0.079   1.232  0.00  0.00    +0.025 C 
ATOM     19  C   UNL     1       6.797   0.367   1.206  0.00  0.00    +0.002 C 
ATOM     20  C   UNL     1       7.121   1.278   0.020  0.00  0.00    +0.000 C 
ATOM     21  C   UNL     1       6.712   0.586  -1.282  0.00  0.00    +0.002 C 
ATOM     22  C   UNL     1       5.210   0.297  -1.256  0.00  0.00    +0.025 C 
ENDBRANCH   9  17
BRANCH  14  23
ATOM     23  C   UNL     1       4.096  -6.247   2.030  0.00  0.00    +0.218 C 
ATOM     24  O   UNL     1       4.868  -5.710   2.796  0.00  0.00    -0.275 OA
ATOM     25  N   UNL     1       3.775  -7.545   2.198  0.00  0.00    -0.312 N 
ATOM     26  H   UNL     1       3.157  -7.975   1.586  0.00  0.00    +0.149 HD
BRANCH  25  27
ATOM     27  C   UNL     1       4.359  -8.307   3.304  0.00  0.00    +0.073 C 
ATOM     28  C   UNL     1       4.861  -9.720   3.001  0.00  0.00    +0.024 C 
ATOM     29  C   UNL     1       3.580  -9.522   3.814  0.00  0.00    +0.024 C 
ENDBRANCH  25  27
ENDBRANCH  14  23
TORSDOF 3
