REMARK  Name = ZINC11663113
REMARK  10 active torsions:
REMARK  status: ('A' for Active; 'I' for Inactive)
REMARK    1  A    between atoms: C_1  and  C_2
REMARK    2  A    between atoms: C_6  and  C_9
REMARK    3  A    between atoms: C_10  and  C_19
REMARK    4  A    between atoms: C_10  and  N_61
REMARK    5  A    between atoms: N_21  and  C_22
REMARK    6  A    between atoms: C_22  and  C_24
REMARK    7  A    between atoms: C_22  and  C_28
REMARK    8  A    between atoms: C_24  and  C_25
REMARK    9  A    between atoms: C_25  and  C_26
REMARK   10  A    between atoms: C_25  and  C_27
REMARK                            x       y       z     vdW  Elec       q    Type
REMARK                         _______ _______ _______ _____ _____    ______ ____
ROOT
ATOM      1  C   UNL     1      -0.777   1.604   1.245  0.00  0.00    +0.021 C 
ATOM      2  C   UNL     1      -0.013   1.086   0.008  0.00  0.00    +0.033 C 
ATOM      3  C   UNL     1      -0.785   1.607  -1.185  0.00  0.00    -0.045 A 
ATOM      4  C   UNL     1      -0.411   1.730  -2.513  0.00  0.00    +0.004 A 
ATOM      5  C   UNL     1      -1.297   2.241  -3.440  0.00  0.00    +0.000 A 
ATOM      6  C   UNL     1      -2.562   2.632  -3.043  0.00  0.00    +0.000 A 
ATOM      7  C   UNL     1      -2.937   2.511  -1.720  0.00  0.00    +0.004 A 
ATOM      8  C   UNL     1      -2.050   1.998  -0.788  0.00  0.00    -0.045 A 
ATOM      9  C   UNL     1      -2.214   1.766   0.699  0.00  0.00    +0.033 C 
ENDROOT
BRANCH   1  17
ATOM     10  C   UNL     1       0.247   6.251  -0.016  0.00  0.00    +0.036 C 
ATOM     11  C   UNL     1       0.352   5.194   1.086  0.00  0.00    +0.099 C 
ATOM     12  C   UNL     1      -0.272   3.884   0.600  0.00  0.00    -0.046 C 
ATOM     13  C   UNL     1      -0.962   3.394   2.866  0.00  0.00    -0.046 C 
ATOM     14  C   UNL     1      -0.331   4.709   3.330  0.00  0.00    +0.099 C 
ATOM     15  O   UNL     1      -0.345   5.646   2.249  0.00  0.00    -0.378 OA
ATOM     16  C   UNL     1      -1.129   5.273   4.507  0.00  0.00    +0.036 C 
ATOM     17  N   UNL     1      -0.211   2.894   1.696  0.00  0.00    +0.393 N 
ATOM     18  H   UNL     1       0.770   2.753   1.964  0.00  0.00    -0.080 HD
ENDBRANCH   1  17
BRANCH   1  19
ATOM     19  C   UNL     1      -0.737   0.594   2.362  0.00  0.00    +0.204 C 
ATOM     20  O   UNL     1      -1.644  -0.200   2.495  0.00  0.00    -0.277 OA
ATOM     21  N   UNL     1       0.308   0.571   3.213  0.00  0.00    -0.305 N 
ATOM     22  H   UNL     1       1.034   1.206   3.107  0.00  0.00    +0.149 HD
BRANCH  21  23
ATOM     23  C   UNL     1       0.347  -0.411   4.299  0.00  0.00    +0.159 C 
BRANCH  23  24
ATOM     24  C   UNL     1      -0.421   0.117   5.483  0.00  0.00    +0.231 C 
ATOM     25  O   UNL     1      -0.949   1.208   5.425  0.00  0.00    -0.274 OA
ATOM     26  N   UNL     1      -0.521  -0.621   6.606  0.00  0.00    -0.328 N 
ATOM     27  H   UNL     1      -0.099  -1.493   6.652  0.00  0.00    +0.145 HD
ATOM     28  H   UNL     1      -1.016  -0.281   7.368  0.00  0.00    +0.145 HD
ENDBRANCH  23  24
BRANCH  23  29
ATOM     29  C   UNL     1       1.800  -0.664   4.706  0.00  0.00    +0.034 C 
BRANCH  29  30
ATOM     30  C   UNL     1       2.549  -1.317   3.542  0.00  0.00    -0.015 C 
ATOM     31  C   UNL     1       4.029  -1.456   3.903  0.00  0.00    +0.007 C 
ATOM     32  C   UNL     1       1.958  -2.702   3.268  0.00  0.00    +0.007 C 
ENDBRANCH  29  30
ENDBRANCH  23  29
ENDBRANCH  21  23
ENDBRANCH   1  19
TORSDOF 6
