REMARK  Name = ZINC08790632
REMARK  6 active torsions:
REMARK  status: ('A' for Active; 'I' for Inactive)
REMARK    1  A    between atoms: C_1  and  C_2
REMARK    2  A    between atoms: C_2  and  C_3
REMARK    3  A    between atoms: C_14  and  C_16
REMARK    4  A    between atoms: C_16  and  C_17
REMARK    5  A    between atoms: N_22  and  C_25
REMARK    6  A    between atoms: C_25  and  C_26
REMARK                            x       y       z     vdW  Elec       q    Type
REMARK                         _______ _______ _______ _____ _____    ______ ____
ROOT
ATOM      1  C   UNL     1       5.039   1.084  -2.658  0.00  0.00    -0.047 A 
ATOM      2  C   UNL     1       6.090   0.767  -1.817  0.00  0.00    +0.005 A 
ATOM      3  C   UNL     1       5.852   0.439  -0.498  0.00  0.00    +0.024 A 
ATOM      4  C   UNL     1       4.550   0.424  -0.004  0.00  0.00    +0.036 A 
ATOM      5  C   UNL     1       3.500   0.742  -0.860  0.00  0.00    -0.027 A 
ATOM      6  C   UNL     1       3.742   1.070  -2.176  0.00  0.00    +0.008 A 
ATOM      7  C   UNL     1       2.249   0.633  -0.035  0.00  0.00    +0.050 C 
ATOM      8  C   UNL     1       1.478   1.958  -0.002  0.00  0.00    +0.088 C 
ATOM      9  C   UNL     1      -0.019   1.540   0.011  0.00  0.00    +0.073 C 
ATOM     10  C   UNL     1       0.002  -0.004   0.002  0.00  0.00    -0.049 C 
ATOM     11  C   UNL     1      -0.504   2.022   1.359  0.00  0.00    +0.224 C 
ATOM     12  O   UNL     1      -1.633   1.897   1.783  0.00  0.00    -0.275 OA
ATOM     13  N   UNL     1       0.507   2.607   2.012  0.00  0.00    -0.237 N 
ATOM     14  C   UNL     1       1.665   2.625   1.342  0.00  0.00    +0.225 C 
ATOM     15  O   UNL     1       2.702   3.102   1.749  0.00  0.00    -0.275 OA
ATOM     16  C   UNL     1       2.720   0.234   1.337  0.00  0.00    +0.211 C 
ATOM     17  O   UNL     1       2.026   0.043   2.314  0.00  0.00    -0.277 OA
ATOM     18  N   UNL     1       4.061   0.131   1.271  0.00  0.00    -0.286 N 
ATOM     19  H   UNL     1       4.622  -0.117   2.022  0.00  0.00    +0.155 HD
ATOM     20  N   UNL     1       1.309  -0.337  -0.569  0.00  0.00    +0.394 N 
ATOM     21  H   UNL     1       1.585  -1.287  -0.295  0.00  0.00    -0.083 HD
ATOM     22  H   UNL     1       1.276  -0.272  -1.593  0.00  0.00    -0.083 HD
ENDROOT
BRANCH   1  24
ATOM     23  C   UNL     1       5.273   0.176  -4.954  0.00  0.00    +0.009 C 
ATOM     24  C   UNL     1       5.305   1.444  -4.097  0.00  0.00    +0.032 C 
ENDBRANCH   1  24
BRANCH  10  25
ATOM     25  C   UNL     1      -1.139  -0.547  -0.861  0.00  0.00    +0.080 C 
BRANCH  25  26
ATOM     26  C   UNL     1      -1.175  -2.050  -0.757  0.00  0.00    +0.209 C 
ATOM     27  O   UNL     1      -0.368  -2.630  -0.061  0.00  0.00    -0.276 OA
ATOM     28  N   UNL     1      -2.105  -2.750  -1.437  0.00  0.00    -0.329 N 
ATOM     29  H   UNL     1      -2.751  -2.287  -1.993  0.00  0.00    +0.145 HD
ATOM     30  H   UNL     1      -2.129  -3.718  -1.370  0.00  0.00    +0.145 HD
ENDBRANCH  25  26
ENDBRANCH  10  25
BRANCH  13  31
ATOM     31  C   UNL     1       0.357   3.181   3.352  0.00  0.00    +0.151 C 
BRANCH  31  32
ATOM     32  C   UNL     1      -0.046   4.628   3.236  0.00  0.00    -0.026 A 
ATOM     33  C   UNL     1      -1.385   4.969   3.192  0.00  0.00    +0.009 A 
ATOM     34  C   UNL     1      -1.761   6.296   3.086  0.00  0.00    +0.050 A 
ATOM     35  C   UNL     1      -0.795   7.287   3.023  0.00  0.00    +0.166 A 
ATOM     36  C   UNL     1       0.554   6.943   3.067  0.00  0.00    +0.167 A 
ATOM     37  C   UNL     1       0.923   5.612   3.179  0.00  0.00    +0.054 A 
ATOM     38  O   UNL     1       1.298   8.085   2.990  0.00  0.00    -0.453 OA
ATOM     39  C   UNL     1       0.402   9.094   2.487  0.00  0.00    +0.466 C 
ATOM     40  O   UNL     1      -0.896   8.644   2.918  0.00  0.00    -0.453 OA
ENDBRANCH  31  32
ENDBRANCH  13  31
TORSDOF 5
