REMARK  Name = ZINC61629834
REMARK  3 active torsions:
REMARK  status: ('A' for Active; 'I' for Inactive)
REMARK    1  A    between atoms: C_13  and  C_18
REMARK    2  A    between atoms: C_15  and  N_16
REMARK    3  A    between atoms: N_16  and  N_17
REMARK                            x       y       z     vdW  Elec       q    Type
REMARK                         _______ _______ _______ _____ _____    ______ ____
ROOT
ATOM      1  C   UNL     1      -0.016   1.361   0.009  0.00  0.00    +0.061 A 
ATOM      2  C   UNL     1       1.195   2.069   0.002  0.00  0.00    +0.026 A 
ATOM      3  C   UNL     1       2.423   1.364  -0.014  0.00  0.00    +0.077 A 
ATOM      4  C   UNL     1       2.407  -0.041  -0.025  0.00  0.00    +0.077 A 
ATOM      5  C   UNL     1       1.214  -0.704  -0.017  0.00  0.00    +0.164 A 
ATOM      6  C   UNL     1       0.002  -0.004   0.002  0.00  0.00    +0.163 A 
ATOM      7  O   UNL     1      -1.175  -0.698   0.015  0.00  0.00    -0.488 OA
ATOM      8  C   UNL     1      -1.488  -1.420  -1.177  0.00  0.00    +0.232 C 
ATOM      9  C   UNL     1      -0.817  -2.784  -1.175  0.00  0.00    +0.082 C 
ATOM     10  C   UNL     1       0.700  -2.683  -1.214  0.00  0.00    +0.232 C 
ATOM     11  O   UNL     1       1.199  -2.069  -0.025  0.00  0.00    -0.488 OA
ATOM     12  N   UNL     1       3.579   2.038  -0.019  0.00  0.00    -0.246 NA
ATOM     13  C   UNL     1       3.613   3.350  -0.010  0.00  0.00    +0.109 A 
ATOM     14  C   UNL     1       2.453   4.112   0.004  0.00  0.00    +0.053 A 
ATOM     15  C   UNL     1       1.218   3.483   0.010  0.00  0.00    +0.052 A 
ENDROOT
BRANCH  13  16
ATOM     16  C   UNL     1       4.948   4.049  -0.015  0.00  0.00    +0.390 C 
ATOM     17  F   UNL     1       5.886   3.257  -0.687  0.00  0.00    -0.202 F 
ATOM     18  F   UNL     1       4.827   5.282  -0.666  0.00  0.00    -0.202 F 
ENDBRANCH  13  16
BRANCH  15  19
ATOM     19  N   UNL     1       0.041   4.217   0.024  0.00  0.00    -0.282 N 
ATOM     20  H   UNL     1      -0.815   3.761   0.028  0.00  0.00    +0.166 HD
BRANCH  19  21
ATOM     21  N   UNL     1       0.088   5.582   0.032  0.00  0.00    -0.256 NA
ATOM     22  H   UNL     1       0.620   5.930  -0.752  0.00  0.00    +0.140 HD
ATOM     23  H   UNL     1      -0.841   5.976   0.041  0.00  0.00    +0.140 HD
ENDBRANCH  19  21
ENDBRANCH  15  19
TORSDOF 3
