REMARK  Name = ZINC04292391
REMARK  17 active torsions:
REMARK  status: ('A' for Active; 'I' for Inactive)
REMARK    1  A    between atoms: C_1  and  C_2
REMARK    2  A    between atoms: C_2  and  C_3
REMARK    3  A    between atoms: C_3  and  O_4
REMARK    4  A    between atoms: O_4  and  C_5
REMARK    5  A    between atoms: C_8  and  C_11
REMARK    6  A    between atoms: C_11  and  O_13
REMARK    7  A    between atoms: O_13  and  C_14
REMARK    8  A    between atoms: C_17  and  C_23
REMARK    9  A    between atoms: C_19  and  O_20
REMARK   10  A    between atoms: O_20  and  C_21
REMARK   11  A    between atoms: C_21  and  C_22
REMARK   12  A    between atoms: N_24  and  N_25
REMARK   13  A    between atoms: C_26  and  C_28
REMARK   14  A    between atoms: C_28  and  O_29
REMARK   15  A    between atoms: O_29  and  C_30
REMARK   16  A    between atoms: C_35  and  C_36
REMARK   17  A    between atoms: C_36  and  C_37
REMARK                            x       y       z     vdW  Elec       q    Type
REMARK                         _______ _______ _______ _____ _____    ______ ____
ROOT
ATOM      1  C   UNL     1       2.292  10.743   0.040  0.00  0.00    +0.173 A 
ATOM      2  C   UNL     1       1.210   9.874   0.018  0.00  0.00    +0.051 A 
ATOM      3  C   UNL     1       1.416   8.511   0.004  0.00  0.00    +0.013 A 
ATOM      4  C   UNL     1       2.717   8.001   0.024  0.00  0.00    -0.002 A 
ATOM      5  C   UNL     1       3.806   8.875   0.046  0.00  0.00    +0.059 A 
ATOM      6  C   UNL     1       3.592  10.241   0.054  0.00  0.00    +0.163 A 
ENDROOT
BRANCH   4   7
ATOM      7  C   UNL     1       2.939   6.544   0.015  0.00  0.00    +0.138 C 
ATOM      8  N   UNL     1       1.926   5.733  -0.005  0.00  0.00    -0.188 NA
BRANCH   8   9
ATOM      9  N   UNL     1       2.137   4.348  -0.013  0.00  0.00    -0.204 N 
ATOM     10  C   UNL     1       1.085   3.506  -0.034  0.00  0.00    +0.270 C 
ATOM     11  O   UNL     1      -0.045   3.947  -0.046  0.00  0.00    -0.270 OA
ATOM     12  H   UNL     1       3.041   3.995  -0.003  0.00  0.00    +0.177 HD
BRANCH  10  13
ATOM     13  C   UNL     1       1.312   2.016  -0.043  0.00  0.00    +0.326 C 
BRANCH  13  14
ATOM     14  O   UNL     1       0.053   1.342  -0.066  0.00  0.00    -0.482 OA
BRANCH  14  15
ATOM     15  C   UNL     1       0.080  -0.017  -0.076  0.00  0.00    +0.125 A 
ATOM     16  C   UNL     1       1.294  -0.688  -0.070  0.00  0.00    +0.046 A 
ATOM     17  C   UNL     1       1.319  -2.068  -0.075  0.00  0.00    +0.004 A 
ATOM     18  C   UNL     1       0.135  -2.782  -0.097  0.00  0.00    +0.001 A 
ATOM     19  C   UNL     1      -1.076  -2.116  -0.108  0.00  0.00    +0.007 A 
ATOM     20  C   UNL     1      -1.107  -0.735  -0.098  0.00  0.00    -0.002 A 
BRANCH  20  21
ATOM     21  C   UNL     1      -2.428  -0.009  -0.111  0.00  0.00    +0.065 C 
BRANCH  21  22
ATOM     22  C   UNL     1      -2.788   0.351  -1.529  0.00  0.00    -0.030 C 
ATOM     23  C   UNL     1      -3.939  -0.025  -2.029  0.00  0.00    +0.004 C 
ENDBRANCH  21  22
ENDBRANCH  20  21
ENDBRANCH  14  15
ENDBRANCH  13  14
ENDBRANCH  10  13
ENDBRANCH   8   9
ENDBRANCH   4   7
BRANCH   1  24
ATOM     24  O   UNL     1       2.084  12.086   0.049  0.00  0.00    -0.419 OA
BRANCH  24  25
ATOM     25  C   UNL     1       2.188  12.729  -1.131  0.00  0.00    +0.345 C 
ATOM     26  O   UNL     1       2.360  12.096  -2.154  0.00  0.00    -0.245 OA
BRANCH  25  30
ATOM     27  C   UNL     1       1.915  16.963  -1.272  0.00  0.00    +0.121 A 
ATOM     28  C   UNL     1       2.112  16.241  -2.444  0.00  0.00    +0.046 A 
ATOM     29  C   UNL     1       2.202  14.868  -2.403  0.00  0.00    +0.018 A 
ATOM     30  C   UNL     1       2.094  14.199  -1.180  0.00  0.00    +0.060 A 
ATOM     31  C   UNL     1       1.890  14.928  -0.005  0.00  0.00    +0.018 A 
ATOM     32  C   UNL     1       1.807  16.302  -0.054  0.00  0.00    +0.046 A 
BRANCH  27  33
ATOM     33  O   UNL     1       1.827  18.316  -1.318  0.00  0.00    -0.492 OA
BRANCH  33  34
ATOM     34  C   UNL     1       1.624  18.995  -0.077  0.00  0.00    +0.229 C 
BRANCH  34  36
ATOM     35  C   UNL     1       1.333  21.230   1.002  0.00  0.00    +0.007 C 
ATOM     36  C   UNL     1       1.551  20.503  -0.326  0.00  0.00    +0.038 C 
ENDBRANCH  34  36
ENDBRANCH  33  34
ENDBRANCH  27  33
ENDBRANCH  25  30
ENDBRANCH  24  25
ENDBRANCH   1  24
BRANCH   6  37
ATOM     37  O   UNL     1       4.650  11.095   0.075  0.00  0.00    -0.489 OA
BRANCH  37  38
ATOM     38  C   UNL     1       5.955  10.512   0.088  0.00  0.00    +0.226 C 
ATOM     39  C   UNL     1       7.009  11.620   0.112  0.00  0.00    +0.048 C 
ENDBRANCH  37  38
ENDBRANCH   6  37
TORSDOF 15
