REMARK  Name = ZINC16861757
REMARK  9 active torsions:
REMARK  status: ('A' for Active; 'I' for Inactive)
REMARK    1  A    between atoms: C_1  and  C_2
REMARK    2  A    between atoms: C_5  and  N_8
REMARK    3  A    between atoms: C_11  and  C_16
REMARK    4  A    between atoms: C_16  and  S_17
REMARK    5  A    between atoms: S_17  and  C_18
REMARK    6  A    between atoms: C_21  and  C_31
REMARK    7  A    between atoms: N_22  and  C_23
REMARK    8  A    between atoms: C_26  and  O_29
REMARK    9  A    between atoms: O_29  and  C_30
REMARK                            x       y       z     vdW  Elec       q    Type
REMARK                         _______ _______ _______ _____ _____    ______ ____
ROOT
ATOM      1  S   UNL     1      -3.708  -3.525   0.717  0.00  0.00    -0.078 S 
ENDROOT
BRANCH   1   2
ATOM      2  C   UNL     1      -3.101  -1.911   0.351  0.00  0.00    +0.197 A 
ATOM      3  N   UNL     1      -3.775  -0.934  -0.215  0.00  0.00    -0.122 NA
ATOM      4  N   UNL     1      -3.029   0.106  -0.334  0.00  0.00    -0.128 NA
ATOM      5  C   UNL     1      -1.833  -0.142   0.148  0.00  0.00    +0.169 A 
ATOM      6  N   UNL     1      -1.840  -1.445   0.597  0.00  0.00    -0.270 N 
BRANCH   6   7
ATOM      7  C   UNL     1      -0.776  -2.144   1.186  0.00  0.00    +0.051 A 
ATOM      8  C   UNL     1       0.340  -2.475   0.431  0.00  0.00    +0.030 A 
ATOM      9  C   UNL     1       1.389  -3.159   1.013  0.00  0.00    +0.047 A 
ATOM     10  C   UNL     1       1.323  -3.525   2.350  0.00  0.00    +0.120 A 
ATOM     11  C   UNL     1       0.204  -3.200   3.103  0.00  0.00    +0.047 A 
ATOM     12  C   UNL     1      -0.843  -2.511   2.524  0.00  0.00    +0.030 A 
BRANCH  10  13
ATOM     13  O   UNL     1       2.353  -4.203   2.921  0.00  0.00    -0.495 OA
ATOM     14  C   UNL     1       3.474  -4.504   2.086  0.00  0.00    +0.277 C 
ENDBRANCH  10  13
ENDBRANCH   6   7
BRANCH   5  15
ATOM     15  C   UNL     1      -0.693   0.796   0.193  0.00  0.00    +0.022 A 
ATOM     16  C   UNL     1       0.388   0.575   1.056  0.00  0.00    +0.031 A 
ATOM     17  C   UNL     1       1.432   1.476   1.066  0.00  0.00    +0.111 A 
ATOM     18  N   UNL     1       1.420   2.535   0.278  0.00  0.00    -0.263 NA
ATOM     19  C   UNL     1       0.422   2.781  -0.550  0.00  0.00    +0.111 A 
ATOM     20  C   UNL     1      -0.662   1.933  -0.625  0.00  0.00    +0.031 A 
ENDBRANCH   5  15
ENDBRANCH   1   2
BRANCH   1  21
ATOM     21  C   UNL     1      -5.404  -3.369   0.104  0.00  0.00    +0.153 C 
BRANCH  21  25
ATOM     22  N   UNL     1      -8.136  -6.234   2.815  0.00  0.00    -0.284 N 
ATOM     23  C   UNL     1      -7.446  -6.020   1.637  0.00  0.00    +0.224 A 
ATOM     24  N   UNL     1      -6.797  -4.873   1.444  0.00  0.00    -0.198 NA
ATOM     25  C   UNL     1      -6.137  -4.668   0.319  0.00  0.00    +0.146 A 
ATOM     26  N   UNL     1      -6.122  -5.596  -0.622  0.00  0.00    -0.199 NA
ATOM     27  C   UNL     1      -6.764  -6.747  -0.434  0.00  0.00    +0.217 A 
ATOM     28  N   UNL     1      -7.429  -6.957   0.697  0.00  0.00    -0.181 NA
ATOM     29  N   UNL     1      -6.743  -7.718  -1.415  0.00  0.00    -0.327 N 
ATOM     30  H   UNL     1      -8.082  -5.585   3.534  0.00  0.00    +0.155 HD
ATOM     31  H   UNL     1      -7.214  -8.555  -1.278  0.00  0.00    +0.145 HD
ATOM     32  H   UNL     1      -6.257  -7.563  -2.240  0.00  0.00    +0.145 HD
BRANCH  22  37
ATOM     33  C   UNL     1     -11.284 -10.910   3.447  0.00  0.00    +0.044 C 
ATOM     34  C   UNL     1     -10.448  -9.668   3.279  0.00  0.00    -0.050 A 
ATOM     35  C   UNL     1      -9.785  -9.130   4.367  0.00  0.00    +0.005 A 
ATOM     36  C   UNL     1      -9.017  -7.992   4.217  0.00  0.00    +0.023 A 
ATOM     37  C   UNL     1      -8.912  -7.387   2.971  0.00  0.00    +0.034 A 
ATOM     38  C   UNL     1      -9.584  -7.926   1.881  0.00  0.00    +0.023 A 
ATOM     39  C   UNL     1     -10.345  -9.068   2.037  0.00  0.00    +0.005 A 
ENDBRANCH  22  37
ENDBRANCH  21  25
ENDBRANCH   1  21
TORSDOF 7
