REMARK  Name = ZINC24774558
REMARK  11 active torsions:
REMARK  status: ('A' for Active; 'I' for Inactive)
REMARK    1  A    between atoms: C_1  and  C_2
REMARK    2  A    between atoms: C_2  and  N_3
REMARK    3  A    between atoms: N_3  and  C_4
REMARK    4  A    between atoms: N_3  and  S_6
REMARK    5  A    between atoms: C_4  and  C_5
REMARK    6  A    between atoms: S_6  and  C_9
REMARK    7  A    between atoms: N_14  and  C_16
REMARK    8  A    between atoms: C_16  and  C_17
REMARK    9  A    between atoms: N_19  and  C_20
REMARK   10  A    between atoms: C_20  and  C_22
REMARK   11  A    between atoms: C_20  and  C_23
REMARK                            x       y       z     vdW  Elec       q    Type
REMARK                         _______ _______ _______ _____ _____    ______ ____
ROOT
ATOM      1  C   UNL     1      -1.503   2.911   1.743  0.00  0.00    +0.122 A 
ATOM      2  C   UNL     1      -1.907   4.217   2.056  0.00  0.00    +0.035 A 
ATOM      3  C   UNL     1      -2.734   4.422   3.122  0.00  0.00    +0.072 A 
ATOM      4  C   UNL     1      -3.162   3.320   3.882  0.00  0.00    +0.252 A 
ATOM      5  O   UNL     1      -3.902   3.489   4.838  0.00  0.00    -0.268 OA
ATOM      6  N   UNL     1      -2.757   2.078   3.556  0.00  0.00    -0.305 N 
ATOM      7  C   UNL     1      -1.938   1.871   2.493  0.00  0.00    +0.118 A 
ENDROOT
BRANCH   1   8
ATOM      8  S   UNL     1      -0.436   2.624   0.371  0.00  0.00    +0.062 S 
ATOM      9  O   UNL     1      -0.141   1.234   0.370  0.00  0.00    -0.153 OA
ATOM     10  O   UNL     1       0.577   3.618   0.429  0.00  0.00    -0.153 OA
BRANCH   8  11
ATOM     11  N   UNL     1      -1.313   2.921  -1.002  0.00  0.00    -0.177 NA
BRANCH  11  13
ATOM     12  C   UNL     1      -0.273   4.370  -2.675  0.00  0.00    +0.022 C 
ATOM     13  C   UNL     1      -1.335   4.268  -1.579  0.00  0.00    +0.106 C 
ENDBRANCH  11  13
BRANCH  11  14
ATOM     14  C   UNL     1      -2.067   1.839  -1.639  0.00  0.00    +0.106 C 
ATOM     15  C   UNL     1      -3.515   1.867  -1.147  0.00  0.00    +0.022 C 
ENDBRANCH  11  14
ENDBRANCH   8  11
ENDBRANCH   1   8
BRANCH   6  16
ATOM     16  C   UNL     1      -3.209   0.936   4.354  0.00  0.00    +0.220 C 
BRANCH  16  17
ATOM     17  C   UNL     1      -4.494   0.398   3.779  0.00  0.00    +0.233 C 
ATOM     18  O   UNL     1      -4.984   0.918   2.799  0.00  0.00    -0.274 OA
ATOM     19  N   UNL     1      -5.099  -0.660   4.354  0.00  0.00    -0.307 N 
ATOM     20  H   UNL     1      -4.655  -1.132   5.243  0.00  0.00    +0.149 HD
BRANCH  19  21
ATOM     21  C   UNL     1      -6.348  -1.183   3.795  0.00  0.00    +0.102 C 
ATOM     22  C   UNL     1      -6.030  -2.204   2.701  0.00  0.00    +0.033 C 
BRANCH  21  23
ATOM     23  C   UNL     1      -7.148  -1.847   4.886  0.00  0.00    -0.009 A 
ATOM     24  C   UNL     1      -6.503  -2.386   5.984  0.00  0.00    +0.008 A 
ATOM     25  C   UNL     1      -7.236  -2.991   6.987  0.00  0.00    +0.020 A 
ATOM     26  C   UNL     1      -8.615  -3.067   6.889  0.00  0.00    +0.042 A 
ATOM     27  C   UNL     1      -9.259  -2.532   5.788  0.00  0.00    +0.040 A 
ATOM     28  C   UNL     1      -8.525  -1.922   4.786  0.00  0.00    +0.047 A 
ATOM     29 CL   UNL     1      -9.333  -1.252   3.404  0.00  0.00    -0.083 Cl
ATOM     30 CL   UNL     1      -9.534  -3.832   8.146  0.00  0.00    -0.083 Cl
ENDBRANCH  21  23
ENDBRANCH  19  21
ENDBRANCH  16  17
ENDBRANCH   6  16
TORSDOF 8
