REMARK  Name = ZINC36039430
REMARK  11 active torsions:
REMARK  status: ('A' for Active; 'I' for Inactive)
REMARK    1  A    between atoms: C_1  and  O_2
REMARK    2  A    between atoms: O_2  and  C_3
REMARK    3  A    between atoms: C_6  and  N_11
REMARK    4  A    between atoms: C_8  and  O_9
REMARK    5  A    between atoms: O_9  and  C_10
REMARK    6  A    between atoms: C_13  and  C_28
REMARK    7  A    between atoms: N_16  and  C_17
REMARK    8  A    between atoms: C_17  and  C_19
REMARK    9  A    between atoms: C_19  and  N_20
REMARK   10  A    between atoms: N_20  and  C_21
REMARK   11  A    between atoms: C_21  and  C_22
REMARK                            x       y       z     vdW  Elec       q    Type
REMARK                         _______ _______ _______ _____ _____    ______ ____
ROOT
ATOM      1  N   UNL     1      -4.896  -2.579   0.035  0.00  0.00    -0.287 N 
ATOM      2  C   UNL     1      -5.095  -3.945   0.042  0.00  0.00    +0.120 A 
ATOM      3  C   UNL     1      -6.420  -4.174   0.050  0.00  0.00    +0.066 A 
ATOM      4  N   UNL     1      -7.065  -2.943   0.049  0.00  0.00    -0.326 N 
ATOM      5  C   UNL     1      -6.114  -1.974   0.046  0.00  0.00    +0.205 A 
ATOM      6  N   UNL     1      -6.334  -0.659   0.049  0.00  0.00    -0.148 NA
ATOM      7  H   UNL     1      -8.025  -2.801   0.054  0.00  0.00    +0.169 HD
ENDROOT
BRANCH   3   8
ATOM      8  C   UNL     1      -7.075  -5.500   0.058  0.00  0.00    -0.000 A 
ATOM      9  C   UNL     1      -6.303  -6.663   0.062  0.00  0.00    +0.011 A 
ATOM     10  C   UNL     1      -6.919  -7.897   0.070  0.00  0.00    +0.020 A 
ATOM     11  C   UNL     1      -8.301  -7.984   0.073  0.00  0.00    +0.041 A 
ATOM     12  C   UNL     1      -9.072  -6.834   0.068  0.00  0.00    +0.020 A 
ATOM     13  C   UNL     1      -8.467  -5.594   0.066  0.00  0.00    +0.011 A 
ATOM     14 CL   UNL     1      -9.069  -9.540   0.082  0.00  0.00    -0.084 Cl
ENDBRANCH   3   8
BRANCH   1  18
ATOM     15  C   UNL     1      -1.202  -0.638   0.010  0.00  0.00    +0.162 A 
ATOM     16  C   UNL     1      -2.374   0.101   0.019  0.00  0.00    +0.051 A 
ATOM     17  C   UNL     1      -3.597  -0.542   0.028  0.00  0.00    +0.030 A 
ATOM     18  C   UNL     1      -3.654  -1.929   0.027  0.00  0.00    +0.053 A 
ATOM     19  C   UNL     1      -2.482  -2.672   0.017  0.00  0.00    +0.075 A 
ATOM     20  C   UNL     1      -1.256  -2.029   0.003  0.00  0.00    +0.163 A 
BRANCH  15  22
ATOM     21  C   UNL     1      -0.017   1.425   0.010  0.00  0.00    +0.277 C 
ATOM     22  O   UNL     1       0.002  -0.004   0.002  0.00  0.00    -0.491 OA
ENDBRANCH  15  22
BRANCH  20  23
ATOM     23  O   UNL     1      -0.106  -2.755  -0.012  0.00  0.00    -0.491 OA
ATOM     24  C   UNL     1      -0.237  -4.178  -0.018  0.00  0.00    +0.277 C 
ENDBRANCH  20  23
ENDBRANCH   1  18
BRANCH   6  25
ATOM     25  C   UNL     1      -7.578  -0.195   0.059  0.00  0.00    +0.222 C 
ATOM     26  O   UNL     1      -8.516  -0.969   0.065  0.00  0.00    -0.276 OA
BRANCH  25  27
ATOM     27  C   UNL     1      -7.828   1.291   0.063  0.00  0.00    +0.017 C 
BRANCH  27  28
ATOM     28  N   UNL     1      -9.275   1.545   0.074  0.00  0.00    +0.386 N 
ATOM     29  H   UNL     1      -9.694   1.135  -0.747  0.00  0.00    -0.085 HD
ATOM     30  H   UNL     1      -9.682   1.133   0.901  0.00  0.00    -0.085 HD
BRANCH  28  31
ATOM     31  C   UNL     1      -9.518   2.993   0.078  0.00  0.00    -0.050 C 
BRANCH  31  32
ATOM     32  C   UNL     1     -11.025   3.257   0.090  0.00  0.00    +0.101 C 
ATOM     33  C   UNL     1     -11.304   4.781   0.059  0.00  0.00    +0.032 C 
ATOM     34  C   UNL     1     -12.728   4.807  -0.560  0.00  0.00    +0.030 C 
ATOM     35  C   UNL     1     -12.683   3.612  -1.537  0.00  0.00    +0.160 C 
ATOM     36  O   UNL     1     -11.632   2.738  -1.104  0.00  0.00    -0.378 OA
ENDBRANCH  31  32
ENDBRANCH  28  31
ENDBRANCH  27  28
ENDBRANCH  25  27
ENDBRANCH   6  25
TORSDOF 9
