REMARK  Name = ZINC40812473
REMARK  8 active torsions:
REMARK  status: ('A' for Active; 'I' for Inactive)
REMARK    1  A    between atoms: C_1  and  C_2
REMARK    2  A    between atoms: C_6  and  C_7
REMARK    3  A    between atoms: C_7  and  O_9
REMARK    4  A    between atoms: O_9  and  C_10
REMARK    5  A    between atoms: C_13  and  C_16
REMARK    6  A    between atoms: C_19  and  C_22
REMARK    7  A    between atoms: N_28  and  N_29
REMARK    8  A    between atoms: C_30  and  C_32
REMARK                            x       y       z     vdW  Elec       q    Type
REMARK                         _______ _______ _______ _____ _____    ______ ____
ROOT
ATOM      1  C   UNL     1       0.108   1.494   0.003  0.00  0.00    +0.048 C 
ATOM      2  C   UNL     1       0.079  -0.013  -0.002  0.00  0.00    +0.011 A 
ATOM      3  C   UNL     1       0.070  -0.850  -1.124  0.00  0.00    +0.042 A 
ATOM      4  C   UNL     1       0.041  -2.148  -0.670  0.00  0.00    +0.115 A 
ATOM      5  O   UNL     1       0.036  -2.119   0.660  0.00  0.00    -0.452 OA
ATOM      6  C   UNL     1       0.064  -0.837   1.090  0.00  0.00    +0.215 A 
ATOM      7  C   UNL     1       0.018  -3.340  -1.594  0.00  0.00    +0.075 C 
ATOM      8  C   UNL     1      -0.479  -2.902  -2.975  0.00  0.00    +0.014 C 
ATOM      9  C   UNL     1       0.337  -1.712  -3.490  0.00  0.00    +0.058 C 
ATOM     10  C   UNL     1       0.087  -0.528  -2.568  0.00  0.00    +0.070 C 
ATOM     11  N   UNL     1      -0.098   0.676  -3.015  0.00  0.00    -0.184 NA
ENDROOT
BRANCH  11  12
ATOM     12  N   UNL     1      -0.070   0.923  -4.394  0.00  0.00    -0.203 N 
ATOM     13  C   UNL     1      -0.262   2.174  -4.858  0.00  0.00    +0.266 C 
ATOM     14  O   UNL     1      -0.459   3.088  -4.080  0.00  0.00    -0.268 OA
ATOM     15  H   UNL     1       0.086   0.194  -5.014  0.00  0.00    +0.178 HD
BRANCH  13  16
ATOM     16  C   UNL     1      -0.234   2.434  -6.311  0.00  0.00    +0.073 A 
ATOM     17  C   UNL     1      -0.014   1.386  -7.208  0.00  0.00    +0.016 A 
ATOM     18  C   UNL     1       0.011   1.636  -8.563  0.00  0.00    +0.001 A 
ATOM     19  C   UNL     1      -0.181   2.922  -9.038  0.00  0.00    +0.003 A 
ATOM     20  C   UNL     1      -0.399   3.966  -8.159  0.00  0.00    +0.039 A 
ATOM     21  C   UNL     1      -0.432   3.731  -6.796  0.00  0.00    +0.136 A 
ATOM     22  F   UNL     1      -0.651   4.750  -5.937  0.00  0.00    -0.205 F 
ENDBRANCH  13  16
ENDBRANCH  11  12
BRANCH   6  23
ATOM     23  C   UNL     1       0.071  -0.404   2.490  0.00  0.00    +0.380 C 
ATOM     24  O   UNL     1       0.093   0.782   2.759  0.00  0.00    -0.241 OA
BRANCH  23  25
ATOM     25  O   UNL     1       0.054  -1.320   3.480  0.00  0.00    -0.420 OA
BRANCH  25  26
ATOM     26  C   UNL     1       0.165  -0.878   4.760  0.00  0.00    +0.132 A 
ATOM     27  C   UNL     1      -0.931  -0.306   5.393  0.00  0.00    +0.047 A 
ATOM     28  C   UNL     1      -0.822   0.143   6.691  0.00  0.00    +0.012 A 
ATOM     29  C   UNL     1       0.391   0.022   7.370  0.00  0.00    -0.018 A 
ATOM     30  C   UNL     1       1.489  -0.553   6.732  0.00  0.00    +0.012 A 
ATOM     31  C   UNL     1       1.372  -1.005   5.435  0.00  0.00    +0.047 A 
BRANCH  29  32
ATOM     32  C   UNL     1       0.511   0.504   8.767  0.00  0.00    -0.018 A 
ATOM     33  C   UNL     1      -0.590   1.075   9.405  0.00  0.00    +0.010 A 
ATOM     34  C   UNL     1      -0.479   1.523  10.701  0.00  0.00    +0.019 A 
ATOM     35  C   UNL     1       0.738   1.406  11.379  0.00  0.00    +0.052 A 
ATOM     36  C   UNL     1       1.840   0.834  10.739  0.00  0.00    +0.019 A 
ATOM     37  C   UNL     1       1.726   0.382   9.444  0.00  0.00    +0.010 A 
BRANCH  35  38
ATOM     38  C   UNL     1       0.855   1.872  12.728  0.00  0.00    +0.099 C 
ATOM     39  N   UNL     1       0.947   2.241  13.798  0.00  0.00    -0.191 NA
ENDBRANCH  35  38
ENDBRANCH  29  32
ENDBRANCH  25  26
ENDBRANCH  23  25
ENDBRANCH   6  23
TORSDOF 7
