REMARK  Name = ZINC24543578
REMARK  5 active torsions:
REMARK  status: ('A' for Active; 'I' for Inactive)
REMARK    1  A    between atoms: C_1  and  C_2
REMARK    2  A    between atoms: C_5  and  S_8
REMARK    3  A    between atoms: S_8  and  N_11
REMARK    4  A    between atoms: N_11  and  N_12
REMARK    5  A    between atoms: C_14  and  C_23
REMARK                            x       y       z     vdW  Elec       q    Type
REMARK                         _______ _______ _______ _____ _____    ______ ____
ROOT
ATOM      1  N   UNL     1       2.691   0.208   0.488  0.00  0.00    -0.260 N 
ATOM      2  C   UNL     1       2.559   1.406  -0.009  0.00  0.00    +0.225 A 
ATOM      3  C   UNL     1       1.249   2.097   0.001  0.00  0.00    +0.098 A 
ATOM      4  C   UNL     1       1.264   3.471   0.009  0.00  0.00    +0.030 A 
ATOM      5  C   UNL     1       2.572   4.138   0.000  0.00  0.00    +0.018 A 
ATOM      6  C   UNL     1       2.679   5.504   0.276  0.00  0.00    +0.011 A 
ATOM      7  C   UNL     1       3.918   6.107   0.265  0.00  0.00    +0.001 A 
ATOM      8  C   UNL     1       5.055   5.366  -0.016  0.00  0.00    +0.004 A 
ATOM      9  C   UNL     1       4.964   4.015  -0.291  0.00  0.00    +0.047 A 
ATOM     10  C   UNL     1       3.727   3.390  -0.287  0.00  0.00    +0.137 A 
ATOM     11  O   UNL     1       3.622   2.064  -0.561  0.00  0.00    -0.437 OA
ATOM     12  H   UNL     1       1.821  -0.305   0.924  0.00  0.00    +0.189 HD
ENDROOT
BRANCH   3  13
ATOM     13  C   UNL     1      -0.016   1.344   0.009  0.00  0.00    +0.247 C 
ATOM     14  O   UNL     1      -1.078   1.937   0.018  0.00  0.00    -0.270 OA
ATOM     15  N   UNL     1       0.002  -0.004   0.002  0.00  0.00    -0.325 N 
ATOM     16  H   UNL     1      -0.943  -0.567   0.008  0.00  0.00    +0.145 HD
ATOM     17  H   UNL     1       0.962  -0.541  -0.010  0.00  0.00    +0.145 HD
ENDBRANCH   3  13
BRANCH   1  18
ATOM     18  N   UNL     1       3.940  -0.425   0.467  0.00  0.00    -0.157 N 
ATOM     19  H   UNL     1       4.707   0.027   0.083  0.00  0.00    +0.194 HD
BRANCH  18  20
ATOM     20  S   UNL     1       4.107  -1.947   1.099  0.00  0.00    +0.085 S 
ATOM     21  O   UNL     1       5.432  -2.366   0.802  0.00  0.00    -0.149 OA
ATOM     22  O   UNL     1       3.605  -1.893   2.427  0.00  0.00    -0.149 OA
BRANCH  20  27
ATOM     23  C   UNL     1       0.415  -5.580  -1.995  0.00  0.00    +0.044 C 
ATOM     24  C   UNL     1       1.337  -4.673  -1.223  0.00  0.00    -0.050 A 
ATOM     25  C   UNL     1       2.638  -4.484  -1.649  0.00  0.00    +0.005 A 
ATOM     26  C   UNL     1       3.484  -3.651  -0.941  0.00  0.00    +0.029 A 
ATOM     27  C   UNL     1       3.029  -3.008   0.195  0.00  0.00    +0.110 A 
ATOM     28  C   UNL     1       1.729  -3.201   0.625  0.00  0.00    +0.029 A 
ATOM     29  C   UNL     1       0.882  -4.029  -0.087  0.00  0.00    +0.005 A 
ENDBRANCH  20  27
ENDBRANCH  18  20
ENDBRANCH   1  18
TORSDOF 4
