REMARK  Name = ZINC15135153
REMARK  21 active torsions:
REMARK  status: ('A' for Active; 'I' for Inactive)
REMARK    1  A    between atoms: C_1  and  C_2
REMARK    2  A    between atoms: C_2  and  C_3
REMARK    3  A    between atoms: C_2  and  C_4
REMARK    4  A    between atoms: C_4  and  C_6
REMARK    5  A    between atoms: C_4  and  N_18
REMARK    6  A    between atoms: N_8  and  C_9
REMARK    7  A    between atoms: C_9  and  C_11
REMARK    8  A    between atoms: C_9  and  C_14
REMARK    9  A    between atoms: C_11  and  C_12
REMARK   10  A    between atoms: C_11  and  C_13
REMARK   11  A    between atoms: N_16  and  N_17
REMARK   12  A    between atoms: C_19  and  C_21
REMARK   13  A    between atoms: C_21  and  C_23
REMARK   14  A    between atoms: C_21  and  N_26
REMARK   15  A    between atoms: C_23  and  C_24
REMARK   16  A    between atoms: C_23  and  C_25
REMARK   17  A    between atoms: C_27  and  O_29
REMARK   18  A    between atoms: O_29  and  C_30
REMARK   19  A    between atoms: C_30  and  C_31
REMARK   20  A    between atoms: C_30  and  C_32
REMARK   21  A    between atoms: C_30  and  C_33
REMARK                            x       y       z     vdW  Elec       q    Type
REMARK                         _______ _______ _______ _____ _____    ______ ____
ROOT
ATOM      1  C   UNL     1      -1.141   3.458   4.084  0.00  0.00    +0.161 C 
ENDROOT
BRANCH   1   2
ATOM      2  C   UNL     1      -0.034   4.476   4.172  0.00  0.00    +0.234 C 
ATOM      3  O   UNL     1       1.102   4.163   3.886  0.00  0.00    -0.274 OA
ATOM      4  N   UNL     1      -0.307   5.735   4.570  0.00  0.00    -0.302 N 
ATOM      5  H   UNL     1      -1.200   5.966   4.870  0.00  0.00    +0.150 HD
BRANCH   4   6
ATOM      6  C   UNL     1       0.745   6.754   4.547  0.00  0.00    +0.163 C 
BRANCH   6   7
ATOM      7  C   UNL     1       0.423   7.830   5.552  0.00  0.00    +0.247 C 
ATOM      8  O   UNL     1      -0.731   8.064   5.841  0.00  0.00    -0.272 OA
ATOM      9  N   UNL     1       1.418   8.533   6.129  0.00  0.00    -0.252 N 
ATOM     10  H   UNL     1       2.336   8.398   5.844  0.00  0.00    +0.169 HD
BRANCH   9  11
ATOM     11  N   UNL     1       1.135   9.435   7.115  0.00  0.00    -0.254 NA
ATOM     12  H   UNL     1       1.976   9.882   7.449  0.00  0.00    +0.140 HD
ATOM     13  H   UNL     1       0.464  10.119   6.797  0.00  0.00    +0.140 HD
ENDBRANCH   9  11
ENDBRANCH   6   7
BRANCH   6  14
ATOM     14  C   UNL     1       0.829   7.370   3.149  0.00  0.00    +0.012 C 
ATOM     15  C   UNL     1      -0.508   8.027   2.800  0.00  0.00    +0.009 C 
ATOM     16  C   UNL     1       1.938   8.424   3.122  0.00  0.00    +0.009 C 
ENDBRANCH   6  14
ENDBRANCH   4   6
ENDBRANCH   1   2
BRANCH   1  17
ATOM     17  N   UNL     1      -0.773   2.419   3.119  0.00  0.00    -0.302 N 
ATOM     18  C   UNL     1      -1.733   1.709   2.494  0.00  0.00    +0.234 C 
ATOM     19  O   UNL     1      -2.900   1.999   2.650  0.00  0.00    -0.274 OA
ATOM     20  H   UNL     1       0.162   2.242   2.929  0.00  0.00    +0.150 HD
BRANCH  18  21
ATOM     21  C   UNL     1      -1.356   0.558   1.597  0.00  0.00    +0.165 C 
BRANCH  21  22
ATOM     22  N   UNL     1      -2.551  -0.230   1.285  0.00  0.00    -0.270 N 
ATOM     23  C   UNL     1      -2.432  -1.530   0.950  0.00  0.00    +0.401 C 
ATOM     24  O   UNL     1      -1.334  -2.048   0.906  0.00  0.00    -0.226 OA
ATOM     25  H   UNL     1      -3.427   0.184   1.320  0.00  0.00    +0.153 HD
BRANCH  23  26
ATOM     26  O   UNL     1      -3.530  -2.254   0.663  0.00  0.00    -0.445 OA
BRANCH  26  27
ATOM     27  C   UNL     1      -3.327  -3.648   0.310  0.00  0.00    +0.107 C 
ATOM     28  C   UNL     1      -2.647  -4.375   1.472  0.00  0.00    +0.055 C 
ATOM     29  C   UNL     1      -4.679  -4.303   0.020  0.00  0.00    +0.055 C 
ATOM     30  C   UNL     1      -2.441  -3.735  -0.935  0.00  0.00    +0.055 C 
ENDBRANCH  26  27
ENDBRANCH  23  26
ENDBRANCH  21  22
BRANCH  21  31
ATOM     31  C   UNL     1      -0.749   1.099   0.301  0.00  0.00    +0.012 C 
ATOM     32  C   UNL     1      -0.224  -0.065  -0.541  0.00  0.00    +0.009 C 
ATOM     33  C   UNL     1      -1.821   1.855  -0.487  0.00  0.00    +0.009 C 
ENDBRANCH  21  31
ENDBRANCH  18  21
ENDBRANCH   1  17
BRANCH   1  35
ATOM     34  C   UNL     1      -1.821   3.894   6.448  0.00  0.00    +0.009 C 
ATOM     35  C   UNL     1      -1.360   2.822   5.459  0.00  0.00    +0.012 C 
ATOM     36  C   UNL     1      -2.429   1.732   5.352  0.00  0.00    +0.009 C 
ENDBRANCH   1  35
TORSDOF 12
