REMARK  Name = ZINC39460730
REMARK  6 active torsions:
REMARK  status: ('A' for Active; 'I' for Inactive)
REMARK    1  A    between atoms: C_10  and  C_11
REMARK    2  A    between atoms: C_13  and  C_17
REMARK    3  A    between atoms: C_17  and  N_18
REMARK    4  A    between atoms: N_18  and  C_19
REMARK    5  A    between atoms: C_19  and  C_20
REMARK    6  A    between atoms: C_20  and  O_26
REMARK                            x       y       z     vdW  Elec       q    Type
REMARK                         _______ _______ _______ _____ _____    ______ ____
ROOT
ATOM      1  C   UNL     1       4.960   0.161  -0.046  0.00  0.00    +0.155 C 
ATOM      2  C   UNL     1       5.402   0.485   1.370  0.00  0.00    -0.039 C 
ATOM      3  C   UNL     1       6.579  -0.134   1.490  0.00  0.00    +0.132 C 
ATOM      4  N   UNL     1       6.899  -0.780   0.347  0.00  0.00    -0.186 NA
ATOM      5  N   UNL     1       6.063  -0.671  -0.558  0.00  0.00    -0.298 N 
ATOM      6  H   UNL     1       6.120  -1.061  -1.444  0.00  0.00    +0.183 HD
ENDROOT
BRANCH   1  16
ATOM      7  C   UNL     1      -0.016   1.357   0.009  0.00  0.00    +0.001 A 
ATOM      8  C   UNL     1       1.169   2.091   0.002  0.00  0.00    +0.001 A 
ATOM      9  C   UNL     1       2.378   1.468  -0.013  0.00  0.00    +0.009 A 
ATOM     10  C   UNL     1       2.438   0.064  -0.021  0.00  0.00    -0.012 A 
ATOM     11  C   UNL     1       1.233  -0.683  -0.013  0.00  0.00    -0.018 A 
ATOM     12  C   UNL     1       0.002  -0.004   0.002  0.00  0.00    +0.008 A 
ATOM     13  C   UNL     1       1.292  -2.087  -0.021  0.00  0.00    +0.008 A 
ATOM     14  C   UNL     1       2.502  -2.709  -0.036  0.00  0.00    +0.001 A 
ATOM     15  C   UNL     1       3.687  -1.976  -0.043  0.00  0.00    +0.006 A 
ATOM     16  C   UNL     1       3.668  -0.615  -0.037  0.00  0.00    -0.012 A 
ENDBRANCH   1  16
BRANCH   2  17
ATOM     17  C   UNL     1       4.680   1.314   2.401  0.00  0.00    -0.047 C 
BRANCH  17  18
ATOM     18  N   UNL     1       4.998   2.734   2.198  0.00  0.00    +0.383 N 
ATOM     19  H   UNL     1       5.993   2.872   2.292  0.00  0.00    -0.085 HD
ATOM     20  H   UNL     1       4.705   3.015   1.275  0.00  0.00    -0.085 HD
BRANCH  18  21
ATOM     21  C   UNL     1       4.295   3.542   3.203  0.00  0.00    -0.047 C 
BRANCH  21  22
ATOM     22  C   UNL     1       4.626   5.020   2.992  0.00  0.00    +0.051 C 
ATOM     23  C   UNL     1       6.144   5.210   3.010  0.00  0.00    +0.033 C 
ATOM     24  C   UNL     1       6.476   6.689   2.799  0.00  0.00    +0.003 C 
ATOM     25  C   UNL     1       5.844   7.519   3.919  0.00  0.00    +0.000 C 
ATOM     26  C   UNL     1       4.326   7.328   3.900  0.00  0.00    +0.003 C 
ATOM     27  C   UNL     1       3.995   5.850   4.112  0.00  0.00    +0.033 C 
BRANCH  22  28
ATOM     28  O   UNL     1       4.108   5.449   1.731  0.00  0.00    -0.390 OA
ATOM     29  H   UNL     1       4.465   4.966   0.974  0.00  0.00    +0.210 HD
ENDBRANCH  22  28
ENDBRANCH  21  22
ENDBRANCH  18  21
ENDBRANCH  17  18
ENDBRANCH   2  17
TORSDOF 6
