REMARK  Name = ZINC57414505
REMARK  12 active torsions:
REMARK  status: ('A' for Active; 'I' for Inactive)
REMARK    1  A    between atoms: C_1  and  C_2
REMARK    2  A    between atoms: C_5  and  N_8
REMARK    3  A    between atoms: N_11  and  C_14
REMARK    4  A    between atoms: C_14  and  C_15
REMARK    5  A    between atoms: C_16  and  C_33
REMARK    6  A    between atoms: C_17  and  C_23
REMARK    7  A    between atoms: C_26  and  O_31
REMARK    8  A    between atoms: C_27  and  O_29
REMARK    9  A    between atoms: O_29  and  C_30
REMARK   10  A    between atoms: O_31  and  C_32
REMARK   11  A    between atoms: C_33  and  O_35
REMARK   12  A    between atoms: O_35  and  C_36
REMARK                            x       y       z     vdW  Elec       q    Type
REMARK                         _______ _______ _______ _____ _____    ______ ____
ROOT
ATOM      1  C   UNL     1      -1.418  -8.892   1.192  0.00  0.00    +0.038 C 
ATOM      2  C   UNL     1      -2.228  -9.112   2.249  0.00  0.00    +0.079 C 
ATOM      3  C   UNL     1      -1.728 -10.037   3.341  0.00  0.00    +0.144 C 
ATOM      4  N   UNL     1      -0.390 -10.623   3.156  0.00  0.00    -0.288 N 
ATOM      5  C   UNL     1       0.301 -10.307   2.043  0.00  0.00    +0.304 C 
ATOM      6  O   UNL     1       1.407 -10.786   1.882  0.00  0.00    -0.252 OA
ATOM      7  N   UNL     1      -0.192  -9.487   1.107  0.00  0.00    -0.271 N 
ATOM      8  H   UNL     1      -0.014 -11.222   3.820  0.00  0.00    +0.151 HD
ATOM      9  H   UNL     1       0.353  -9.303   0.326  0.00  0.00    +0.156 HD
ENDROOT
BRANCH   3  10
ATOM     10  C   UNL     1      -1.722  -9.266   4.636  0.00  0.00    -0.019 A 
ATOM     11  C   UNL     1      -0.687  -8.393   4.914  0.00  0.00    +0.009 A 
ATOM     12  C   UNL     1      -0.678  -7.684   6.101  0.00  0.00    +0.050 A 
ATOM     13  C   UNL     1      -1.707  -7.848   7.014  0.00  0.00    +0.162 A 
ATOM     14  C   UNL     1      -2.748  -8.727   6.734  0.00  0.00    +0.162 A 
ATOM     15  C   UNL     1      -2.755  -9.431   5.540  0.00  0.00    +0.055 A 
BRANCH  14  16
ATOM     16  O   UNL     1      -3.761  -8.891   7.627  0.00  0.00    -0.491 OA
ATOM     17  C   UNL     1      -4.796  -9.810   7.272  0.00  0.00    +0.277 C 
ENDBRANCH  14  16
BRANCH  13  18
ATOM     18  O   UNL     1      -1.698  -7.152   8.183  0.00  0.00    -0.491 OA
ATOM     19  C   UNL     1      -0.597  -6.268   8.403  0.00  0.00    +0.277 C 
ENDBRANCH  13  18
ENDBRANCH   3  10
BRANCH   2  20
ATOM     20  C   UNL     1      -3.501  -8.500   2.336  0.00  0.00    +0.339 C 
ATOM     21  O   UNL     1      -3.642  -7.480   2.985  0.00  0.00    -0.245 OA
BRANCH  20  22
ATOM     22  O   UNL     1      -4.557  -9.047   1.700  0.00  0.00    -0.465 OA
ATOM     23  C   UNL     1      -5.812  -8.376   1.831  0.00  0.00    +0.280 C 
ENDBRANCH  20  22
ENDBRANCH   2  20
BRANCH   1  24
ATOM     24  C   UNL     1      -1.877  -7.979   0.084  0.00  0.00    +0.136 C 
BRANCH  24  28
ATOM     25  N   UNL     1      -0.211  -4.128  -0.038  0.00  0.00    -0.327 N 
ATOM     26  C   UNL     1      -0.220  -4.893  -1.294  0.00  0.00    +0.120 C 
ATOM     27  C   UNL     1      -1.267  -6.006  -1.180  0.00  0.00    +0.103 C 
ATOM     28  N   UNL     1      -1.003  -6.799   0.028  0.00  0.00    -0.294 NA
ATOM     29  C   UNL     1      -1.141  -5.984   1.242  0.00  0.00    +0.103 C 
ATOM     30  C   UNL     1      -0.082  -4.869   1.226  0.00  0.00    +0.120 C 
BRANCH  25  35
ATOM     31  C   UNL     1      -0.639   1.526  -0.066  0.00  0.00    +0.044 C 
ATOM     32  C   UNL     1      -0.525   0.023  -0.058  0.00  0.00    -0.050 A 
ATOM     33  C   UNL     1      -0.518  -0.662   1.143  0.00  0.00    +0.005 A 
ATOM     34  C   UNL     1      -0.414  -2.039   1.153  0.00  0.00    +0.023 A 
ATOM     35  C   UNL     1      -0.317  -2.736  -0.045  0.00  0.00    +0.030 A 
ATOM     36  C   UNL     1      -0.325  -2.044  -1.249  0.00  0.00    +0.023 A 
ATOM     37  C   UNL     1      -0.435  -0.668  -1.253  0.00  0.00    +0.005 A 
ENDBRANCH  25  35
ENDBRANCH  24  28
ENDBRANCH   1  24
TORSDOF 8
