REMARK  Name = ZINC61845114
REMARK  3 active torsions:
REMARK  status: ('A' for Active; 'I' for Inactive)
REMARK    1  A    between atoms: C_4  and  N_20
REMARK    2  A    between atoms: C_6  and  C_7
REMARK    3  A    between atoms: C_9  and  C_12
REMARK                            x       y       z     vdW  Elec       q    Type
REMARK                         _______ _______ _______ _____ _____    ______ ____
ROOT
ATOM      1  C   UNL     1      -1.266  -0.762   0.011  0.00  0.00    +0.259 A 
ATOM      2  N   UNL     1      -2.473  -0.244   0.020  0.00  0.00    -0.187 NA
ATOM      3  C   UNL     1      -3.391  -1.223   0.025  0.00  0.00    +0.204 A 
ATOM      4  N   UNL     1      -2.776  -2.381   0.019  0.00  0.00    -0.056 NA
ATOM      5  O   UNL     1      -1.384  -2.102   0.004  0.00  0.00    -0.332 OA
ENDROOT
BRANCH   3   6
ATOM      6  C   UNL     1      -4.862  -1.027   0.037  0.00  0.00    +0.041 A 
ATOM      7  C   UNL     1      -5.395   0.261   0.037  0.00  0.00    +0.016 A 
ATOM      8  C   UNL     1      -6.763   0.439   0.047  0.00  0.00    +0.039 A 
ATOM      9  C   UNL     1      -7.607  -0.660   0.057  0.00  0.00    +0.125 A 
ATOM     10  C   UNL     1      -7.083  -1.942   0.058  0.00  0.00    +0.059 A 
ATOM     11  C   UNL     1      -5.714  -2.130   0.041  0.00  0.00    +0.054 A 
ATOM     12 CL   UNL     1      -5.057  -3.737   0.034  0.00  0.00    -0.083 Cl
ATOM     13  F   UNL     1      -8.946  -0.481   0.068  0.00  0.00    -0.205 F 
ENDBRANCH   3   6
BRANCH   1  19
ATOM     14  C   UNL     1      -0.017   1.392   0.010  0.00  0.00    +0.016 A 
ATOM     15  C   UNL     1       1.169   2.098   0.002  0.00  0.00    +0.041 A 
ATOM     16  C   UNL     1       2.379   1.427  -0.013  0.00  0.00    +0.144 A 
ATOM     17  C   UNL     1       2.407   0.035  -0.022  0.00  0.00    +0.061 A 
ATOM     18  C   UNL     1       1.222  -0.682  -0.014  0.00  0.00    +0.039 A 
ATOM     19  C   UNL     1       0.002  -0.004   0.002  0.00  0.00    +0.041 A 
ATOM     20  F   UNL     1       3.536   2.125  -0.021  0.00  0.00    -0.204 F 
BRANCH  17  21
ATOM     21  N   UNL     1       3.632  -0.640  -0.038  0.00  0.00    -0.356 N 
ATOM     22  H   UNL     1       4.463  -0.138  -0.044  0.00  0.00    +0.142 HD
ATOM     23  H   UNL     1       3.652  -1.609  -0.044  0.00  0.00    +0.142 HD
ENDBRANCH  17  21
ENDBRANCH   1  19
TORSDOF 3
