REMARK  Name = ZINC12121927
REMARK  10 active torsions:
REMARK  status: ('A' for Active; 'I' for Inactive)
REMARK    1  A    between atoms: C_1  and  C_2
REMARK    2  A    between atoms: C_2  and  C_3
REMARK    3  A    between atoms: N_5  and  C_6
REMARK    4  A    between atoms: N_5  and  C_15
REMARK    5  A    between atoms: C_6  and  C_7
REMARK    6  A    between atoms: C_7  and  C_8
REMARK    7  A    between atoms: C_15  and  C_16
REMARK    8  A    between atoms: C_22  and  C_33
REMARK    9  A    between atoms: C_24  and  N_25
REMARK   10  A    between atoms: C_29  and  O_32
REMARK                            x       y       z     vdW  Elec       q    Type
REMARK                         _______ _______ _______ _____ _____    ______ ____
ROOT
ATOM      1  C   UNL     1      -2.915   1.294  -1.045  0.00  0.00    +0.008 A 
ATOM      2  C   UNL     1      -3.430   0.684   0.059  0.00  0.00    +0.018 A 
ATOM      3  C   UNL     1      -4.767   0.961   0.412  0.00  0.00    -0.001 A 
ATOM      4  C   UNL     1      -5.360   0.368   1.537  0.00  0.00    +0.010 A 
ATOM      5  C   UNL     1      -6.654   0.659   1.849  0.00  0.00    +0.001 A 
ATOM      6  C   UNL     1      -7.397   1.538   1.064  0.00  0.00    +0.005 A 
ATOM      7  C   UNL     1      -6.853   2.130  -0.034  0.00  0.00    -0.027 A 
ATOM      8  C   UNL     1      -5.520   1.855  -0.387  0.00  0.00    +0.051 A 
ATOM      9  C   UNL     1      -3.711   2.174  -1.793  0.00  0.00    +0.104 A 
ATOM     10  C   UNL     1      -7.675   3.078  -0.868  0.00  0.00    +0.046 C 
ATOM     11  N   UNL     1      -5.002   2.472  -1.504  0.00  0.00    -0.342 N 
ATOM     12  H   UNL     1      -5.557   3.115  -2.081  0.00  0.00    +0.167 HD
ENDROOT
BRANCH   9  13
ATOM     13  N   UNL     1      -3.171   2.790  -2.912  0.00  0.00    -0.314 N 
ATOM     14  C   UNL     1      -3.416   1.994  -4.121  0.00  0.00    +0.106 C 
ATOM     15  C   UNL     1      -2.685   2.628  -5.307  0.00  0.00    +0.021 C 
ATOM     16  C   UNL     1      -3.189   4.060  -5.505  0.00  0.00    +0.034 C 
ATOM     17  C   UNL     1      -2.966   4.854  -4.215  0.00  0.00    +0.132 C 
ATOM     18  C   UNL     1      -3.689   4.156  -3.061  0.00  0.00    +0.137 C 
BRANCH  17  19
ATOM     19  O   UNL     1      -3.485   6.176  -4.373  0.00  0.00    -0.390 OA
ATOM     20  H   UNL     1      -3.071   6.678  -5.089  0.00  0.00    +0.210 HD
ENDBRANCH  17  19
ENDBRANCH   9  13
BRANCH   1  21
ATOM     21  C   UNL     1      -1.491   1.027  -1.459  0.00  0.00    +0.146 C 
BRANCH  21  24
ATOM     22  C   UNL     1      -0.306   3.135  -1.760  0.00  0.00    +0.216 C 
ATOM     23  O   UNL     1      -0.653   3.133  -2.922  0.00  0.00    -0.276 OA
ATOM     24  N   UNL     1      -0.628   2.100  -0.959  0.00  0.00    -0.297 N 
BRANCH  22  26
ATOM     25  C   UNL     1       0.715   5.324  -2.320  0.00  0.00    +0.013 C 
ATOM     26  C   UNL     1       0.487   4.294  -1.212  0.00  0.00    +0.092 C 
ENDBRANCH  22  26
BRANCH  24  27
ATOM     27  C   UNL     1      -0.115   2.048   0.413  0.00  0.00    +0.113 C 
BRANCH  27  28
ATOM     28  C   UNL     1      -1.099   2.750   1.352  0.00  0.00    +0.054 C 
BRANCH  28  29
ATOM     29  C   UNL     1      -0.572   2.696   2.763  0.00  0.00    -0.046 A 
ATOM     30  C   UNL     1      -0.907   1.638   3.586  0.00  0.00    +0.006 A 
ATOM     31  C   UNL     1      -0.421   1.585   4.878  0.00  0.00    +0.038 A 
ATOM     32  C   UNL     1       0.395   2.599   5.352  0.00  0.00    +0.123 A 
ATOM     33  C   UNL     1       0.726   3.662   4.528  0.00  0.00    +0.038 A 
ATOM     34  C   UNL     1       0.242   3.709   3.234  0.00  0.00    +0.006 A 
ATOM     35  F   UNL     1       0.867   2.551   6.617  0.00  0.00    -0.205 F 
ENDBRANCH  28  29
ENDBRANCH  27  28
ENDBRANCH  24  27
ENDBRANCH  21  24
ENDBRANCH   1  21
TORSDOF 8
