REMARK  Name = ZINC12047075
REMARK  14 active torsions:
REMARK  status: ('A' for Active; 'I' for Inactive)
REMARK    1  A    between atoms: C_1  and  C_2
REMARK    2  A    between atoms: C_2  and  C_3
REMARK    3  A    between atoms: C_3  and  C_4
REMARK    4  A    between atoms: C_4  and  C_5
REMARK    5  A    between atoms: C_5  and  N_6
REMARK    6  A    between atoms: C_19  and  S_20
REMARK    7  A    between atoms: S_20  and  C_21
REMARK    8  A    between atoms: C_21  and  C_23
REMARK    9  A    between atoms: C_21  and  C_24
REMARK   10  A    between atoms: N_26  and  C_27
REMARK   11  A    between atoms: C_29  and  O_35
REMARK   12  A    between atoms: C_32  and  O_33
REMARK   13  A    between atoms: O_33  and  C_34
REMARK   14  A    between atoms: O_35  and  C_36
REMARK                            x       y       z     vdW  Elec       q    Type
REMARK                         _______ _______ _______ _____ _____    ______ ____
ROOT
ATOM      1  N   UNL     1      -8.658   0.388  -1.065  0.00  0.00    -0.277 N 
ATOM      2  C   UNL     1      -9.181   1.492  -1.637  0.00  0.00    +0.263 A 
ATOM      3  O   UNL     1     -10.361   1.537  -1.929  0.00  0.00    -0.267 OA
ATOM      4  C   UNL     1      -8.298   2.642  -1.901  0.00  0.00    +0.064 A 
ATOM      5  C   UNL     1      -8.785   3.807  -2.490  0.00  0.00    +0.015 A 
ATOM      6  C   UNL     1      -7.928   4.863  -2.722  0.00  0.00    +0.001 A 
ATOM      7  C   UNL     1      -6.590   4.769  -2.372  0.00  0.00    +0.002 A 
ATOM      8  C   UNL     1      -6.096   3.619  -1.789  0.00  0.00    +0.027 A 
ATOM      9  C   UNL     1      -6.943   2.548  -1.549  0.00  0.00    +0.064 A 
ATOM     10  N   UNL     1      -6.471   1.377  -0.960  0.00  0.00    -0.256 N 
ATOM     11  C   UNL     1      -7.315   0.326  -0.727  0.00  0.00    +0.240 A 
ATOM     12  N   UNL     1      -6.614  -0.636  -0.170  0.00  0.00    -0.109 NA
ATOM     13  N   UNL     1      -5.291  -0.196  -0.047  0.00  0.00    -0.120 NA
ATOM     14  C   UNL     1      -5.222   1.023  -0.524  0.00  0.00    +0.198 A 
ENDROOT
BRANCH   1  15
ATOM     15  C   UNL     1      -9.523  -0.763  -0.795  0.00  0.00    +0.128 C 
BRANCH  15  16
ATOM     16  C   UNL     1     -10.128  -0.631   0.604  0.00  0.00    +0.022 C 
BRANCH  16  17
ATOM     17  C   UNL     1     -11.031  -1.833   0.885  0.00  0.00    +0.001 C 
BRANCH  17  19
ATOM     18  C   UNL     1     -12.540  -2.903   2.565  0.00  0.00    +0.004 C 
ATOM     19  C   UNL     1     -11.636  -1.700   2.284  0.00  0.00    -0.003 C 
ENDBRANCH  17  19
ENDBRANCH  16  17
ENDBRANCH  15  16
ENDBRANCH   1  15
BRANCH  14  20
ATOM     20  S   UNL     1      -3.776   2.027  -0.597  0.00  0.00    -0.073 S 
BRANCH  20  21
ATOM     21  C   UNL     1      -2.482   0.985   0.131  0.00  0.00    +0.137 C 
ATOM     22  C   UNL     1      -2.801   0.731   1.605  0.00  0.00    +0.029 C 
BRANCH  21  23
ATOM     23  C   UNL     1      -1.151   1.684   0.018  0.00  0.00    +0.230 C 
ATOM     24  O   UNL     1      -1.107   2.894  -0.063  0.00  0.00    -0.274 OA
ATOM     25  N   UNL     1      -0.011   0.966   0.007  0.00  0.00    -0.282 N 
ATOM     26  H   UNL     1      -0.049  -0.003  -0.011  0.00  0.00    +0.155 HD
BRANCH  25  27
ATOM     27  C   UNL     1       1.228   1.619   0.017  0.00  0.00    +0.079 A 
ATOM     28  C   UNL     1       1.335   2.900   0.539  0.00  0.00    +0.072 A 
ATOM     29  C   UNL     1       2.564   3.542   0.551  0.00  0.00    +0.122 A 
ATOM     30  C   UNL     1       3.684   2.908   0.033  0.00  0.00    +0.049 A 
ATOM     31  C   UNL     1       3.579   1.634  -0.492  0.00  0.00    +0.051 A 
ATOM     32  C   UNL     1       2.355   0.986  -0.503  0.00  0.00    +0.141 A 
BRANCH  32  33
ATOM     33  O   UNL     1       2.252  -0.268  -1.021  0.00  0.00    -0.493 OA
ATOM     34  C   UNL     1       3.448  -0.857  -1.536  0.00  0.00    +0.277 C 
ENDBRANCH  32  33
BRANCH  29  35
ATOM     35  O   UNL     1       2.670   4.795   1.068  0.00  0.00    -0.495 OA
ATOM     36  C   UNL     1       3.965   5.399   1.044  0.00  0.00    +0.277 C 
ENDBRANCH  29  35
ENDBRANCH  25  27
ENDBRANCH  21  23
ENDBRANCH  20  21
ENDBRANCH  14  20
TORSDOF 10
