REMARK  Name = ZINC05573873
REMARK  2 active torsions:
REMARK  status: ('A' for Active; 'I' for Inactive)
REMARK    1  A    between atoms: C_1  and  C_2
REMARK    2  A    between atoms: C_2  and  N_3
REMARK                            x       y       z     vdW  Elec       q    Type
REMARK                         _______ _______ _______ _____ _____    ______ ____
ROOT
ATOM      1  N   UNL     1      -1.372  -0.511   0.012  0.00  0.00    -0.327 N 
ATOM      2  C   UNL     1      -1.607  -1.877   0.007  0.00  0.00    +0.151 A 
ATOM      3  C   UNL     1      -2.938  -2.375   0.011  0.00  0.00    +0.138 A 
ATOM      4  C   UNL     1      -3.050  -3.783   0.006  0.00  0.00    +0.136 A 
ATOM      5  N   UNL     1      -1.994  -4.564  -0.003  0.00  0.00    -0.206 NA
ATOM      6  C   UNL     1      -0.774  -4.041  -0.006  0.00  0.00    +0.215 A 
ATOM      7  N   UNL     1      -0.594  -2.727  -0.007  0.00  0.00    -0.198 NA
ATOM      8  N   UNL     1       0.329  -4.881  -0.016  0.00  0.00    -0.327 N 
ATOM      9  S   UNL     1      -4.809  -4.019   0.013  0.00  0.00    -0.040 S 
ATOM     10  C   UNL     1      -5.271  -2.292   0.023  0.00  0.00    +0.148 A 
ATOM     11  S   UNL     1      -6.881  -1.579   0.035  0.00  0.00    -0.023 SA
ATOM     12  N   UNL     1      -4.103  -1.691   0.021  0.00  0.00    -0.227 NA
ATOM     13  H   UNL     1      -2.118   0.109   0.023  0.00  0.00    +0.148 HD
ATOM     14  H   UNL     1       0.206  -5.843  -0.019  0.00  0.00    +0.145 HD
ATOM     15  H   UNL     1       1.224  -4.507  -0.018  0.00  0.00    +0.145 HD
ENDROOT
BRANCH   1  17
ATOM     16  C   UNL     1      -0.019   1.526   0.010  0.00  0.00    +0.024 C 
ATOM     17  C   UNL     1       0.002  -0.004   0.002  0.00  0.00    +0.099 C 
ENDBRANCH   1  17
TORSDOF 1
