REMARK  Name = ZINC13064925
REMARK  12 active torsions:
REMARK  status: ('A' for Active; 'I' for Inactive)
REMARK    1  A    between atoms: C_1  and  C_2
REMARK    2  A    between atoms: C_2  and  C_3
REMARK    3  A    between atoms: C_3  and  C_5
REMARK    4  A    between atoms: C_3  and  N_72
REMARK    5  A    between atoms: N_9  and  C_10
REMARK    6  A    between atoms: C_15  and  C_16
REMARK    7  A    between atoms: C_15  and  N_72
REMARK    8  A    between atoms: C_19  and  C_22
REMARK    9  A    between atoms: C_23  and  C_24
REMARK   10  A    between atoms: C_23  and  N_72
REMARK   11  A    between atoms: C_27  and  C_37
REMARK   12  A    between atoms: C_29  and  C_36
REMARK                            x       y       z     vdW  Elec       q    Type
REMARK                         _______ _______ _______ _____ _____    ______ ____
ROOT
ATOM      1  N   UNL     1      -1.930   2.365   1.756  0.00  0.00    +0.392 N 
ATOM      2  H   UNL     1      -1.185   2.992   2.082  0.00  0.00    -0.080 HD
ENDROOT
BRANCH   1   3
ATOM      3  C   UNL     1      -1.935   1.149   2.596  0.00  0.00    +0.003 C 
BRANCH   3   4
ATOM      4  C   UNL     1      -3.134   0.292   2.279  0.00  0.00    +0.138 A 
ATOM      5  N   UNL     1      -4.366   0.703   2.108  0.00  0.00    -0.115 NA
ATOM      6  N   UNL     1      -5.097  -0.327   1.852  0.00  0.00    -0.023 NA
ATOM      7  N   UNL     1      -4.363  -1.384   1.856  0.00  0.00    -0.044 NA
ATOM      8  N   UNL     1      -3.145  -1.043   2.109  0.00  0.00    -0.228 N 
BRANCH   8   9
ATOM      9  C   UNL     1      -1.991  -1.941   2.200  0.00  0.00    +0.111 C 
ATOM     10  C   UNL     1      -1.854  -2.759   0.898  0.00  0.00    +0.027 C 
ATOM     11  C   UNL     1      -1.386  -4.157   1.376  0.00  0.00    +0.002 C 
ATOM     12  C   UNL     1      -2.185  -4.356   2.688  0.00  0.00    +0.002 C 
ATOM     13  C   UNL     1      -2.200  -2.956   3.337  0.00  0.00    +0.027 C 
ENDBRANCH   8   9
ENDBRANCH   3   4
BRANCH   3  15
ATOM     14  C   UNL     1      -0.699   2.319   4.425  0.00  0.00    +0.002 C 
ATOM     15  C   UNL     1      -1.982   1.566   4.068  0.00  0.00    -0.011 C 
ENDBRANCH   3  15
ENDBRANCH   1   3
BRANCH   1  16
ATOM     16  C   UNL     1      -1.671   2.003   0.346  0.00  0.00    -0.042 C 
BRANCH  16  17
ATOM     17  C   UNL     1      -0.211   1.661   0.195  0.00  0.00    -0.064 A 
ATOM     18  C   UNL     1       0.720   2.668   0.018  0.00  0.00    +0.002 A 
ATOM     19  C   UNL     1       2.058   2.354  -0.128  0.00  0.00    +0.003 A 
ATOM     20  C   UNL     1       2.466   1.033  -0.094  0.00  0.00    -0.050 A 
ATOM     21  C   UNL     1       1.535   0.027   0.085  0.00  0.00    +0.003 A 
ATOM     22  C   UNL     1       0.197   0.341   0.229  0.00  0.00    +0.002 A 
ATOM     23  C   UNL     1       3.925   0.691  -0.251  0.00  0.00    +0.044 C 
ENDBRANCH  16  17
ENDBRANCH   1  16
BRANCH   1  24
ATOM     24  C   UNL     1      -3.229   3.062   1.868  0.00  0.00    -0.036 C 
BRANCH  24  25
ATOM     25  C   UNL     1      -3.052   4.488   1.414  0.00  0.00    +0.001 A 
ATOM     26  C   UNL     1      -3.350   4.832   0.137  0.00  0.00    +0.017 A 
ATOM     27  C   UNL     1      -3.167   6.226  -0.273  0.00  0.00    +0.002 A 
ATOM     28  C   UNL     1      -3.459   6.641  -1.577  0.00  0.00    -0.041 A 
ATOM     29  C   UNL     1      -3.278   7.948  -1.927  0.00  0.00    +0.007 A 
ATOM     30  C   UNL     1      -2.807   8.870  -1.001  0.00  0.00    -0.048 A 
ATOM     31  C   UNL     1      -2.513   8.483   0.289  0.00  0.00    +0.029 A 
ATOM     32  C   UNL     1      -2.690   7.156   0.669  0.00  0.00    +0.050 A 
ATOM     33  N   UNL     1      -2.405   6.742   1.952  0.00  0.00    -0.322 N 
ATOM     34  H   UNL     1      -2.076   7.385   2.600  0.00  0.00    +0.169 HD
ATOM     35  C   UNL     1      -2.581   5.461   2.321  0.00  0.00    +0.251 A 
ATOM     36  O   UNL     1      -2.324   5.131   3.466  0.00  0.00    -0.268 OA
ATOM     37  C   UNL     1      -2.615  10.307  -1.411  0.00  0.00    +0.044 C 
ATOM     38  C   UNL     1      -3.970   5.649  -2.590  0.00  0.00    +0.044 C 
ENDBRANCH  24  25
ENDBRANCH   1  24
TORSDOF 8
