REMARK  Name = ZINC14476122
REMARK  8 active torsions:
REMARK  status: ('A' for Active; 'I' for Inactive)
REMARK    1  A    between atoms: C_1  and  C_2
REMARK    2  A    between atoms: C_2  and  C_3
REMARK    3  A    between atoms: C_3  and  C_4
REMARK    4  A    between atoms: C_4  and  O_5
REMARK    5  A    between atoms: O_5  and  C_6
REMARK    6  A    between atoms: C_13  and  C_22
REMARK    7  A    between atoms: C_24  and  N_29
REMARK    8  A    between atoms: C_27  and  O_28
REMARK                            x       y       z     vdW  Elec       q    Type
REMARK                         _______ _______ _______ _____ _____    ______ ____
ROOT
ATOM      1  C   UNL     1       1.015   1.858   0.304  0.00  0.00    +0.142 A 
ATOM      2  C   UNL     1      -0.203   1.207   0.327  0.00  0.00    +0.047 A 
ATOM      3  C   UNL     1      -1.378   1.926   0.209  0.00  0.00    +0.004 A 
ATOM      4  C   UNL     1      -1.328   3.300   0.071  0.00  0.00    +0.006 A 
ATOM      5  C   UNL     1      -0.116   3.959   0.037  0.00  0.00    -0.016 A 
ATOM      6  C   UNL     1       1.079   3.250   0.166  0.00  0.00    +0.074 A 
ATOM      7  N   UNL     1       2.342   3.844   0.190  0.00  0.00    -0.334 N 
ATOM      8  C   UNL     1       2.397   5.292  -0.066  0.00  0.00    +0.109 C 
ATOM      9  C   UNL     1       1.212   5.915   0.642  0.00  0.00    +0.029 C 
ATOM     10  C   UNL     1      -0.032   5.422  -0.160  0.00  0.00    +0.049 C 
ATOM     11  C   UNL     1      -1.102   6.354   0.271  0.00  0.00    -0.023 C 
ATOM     12  C   UNL     1      -0.544   7.511   0.609  0.00  0.00    -0.030 C 
ATOM     13  C   UNL     1       0.977   7.420   0.459  0.00  0.00    +0.033 C 
ATOM     14  H   UNL     1       3.268   3.285   0.388  0.00  0.00    +0.147 HD
ENDROOT
BRANCH   8  15
ATOM     15  C   UNL     1       3.680   5.864   0.479  0.00  0.00    +0.017 A 
ATOM     16  C   UNL     1       3.681   6.530   1.689  0.00  0.00    +0.041 A 
ATOM     17  C   UNL     1       4.858   7.055   2.190  0.00  0.00    +0.127 A 
ATOM     18  C   UNL     1       6.037   6.913   1.481  0.00  0.00    +0.036 A 
ATOM     19  C   UNL     1       6.042   6.247   0.271  0.00  0.00    +0.048 A 
ATOM     20  C   UNL     1       4.863   5.716  -0.231  0.00  0.00    +0.122 A 
BRANCH  17  21
ATOM     21  N   UNL     1       4.856   7.769   3.486  0.00  0.00    +0.056 N 
ATOM     22  O   UNL     1       3.818   7.894   4.111  0.00  0.00    -0.126 OA
ATOM     23  O   UNL     1       5.893   8.231   3.928  0.00  0.00    -0.126 OA
ENDBRANCH  17  21
BRANCH  20  24
ATOM     24  O   UNL     1       4.865   5.055  -1.419  0.00  0.00    -0.506 OA
ATOM     25  H   UNL     1       5.804   4.939  -1.981  0.00  0.00    +0.292 HD
ENDBRANCH  20  24
ENDBRANCH   8  15
BRANCH   1  26
ATOM     26  O   UNL     1       2.164   1.139   0.417  0.00  0.00    -0.490 OA
BRANCH  26  27
ATOM     27  C   UNL     1       2.033  -0.277   0.555  0.00  0.00    +0.229 C 
BRANCH  27  28
ATOM     28  C   UNL     1       3.422  -0.909   0.668  0.00  0.00    +0.041 C 
BRANCH  28  30
ATOM     29  C   UNL     1       4.670  -3.058   0.929  0.00  0.00    +0.004 C 
ATOM     30  C   UNL     1       3.281  -2.425   0.816  0.00  0.00    -0.000 C 
ENDBRANCH  28  30
ENDBRANCH  27  28
ENDBRANCH  26  27
ENDBRANCH   1  26
TORSDOF 7
