REMARK  Name = ZINC62041959
REMARK  10 active torsions:
REMARK  status: ('A' for Active; 'I' for Inactive)
REMARK    1  A    between atoms: C_1  and  C_2
REMARK    2  A    between atoms: C_9  and  C_24
REMARK    3  A    between atoms: C_10  and  C_11
REMARK    4  A    between atoms: C_11  and  C_12
REMARK    5  A    between atoms: N_14  and  C_15
REMARK    6  A    between atoms: C_16  and  C_23
REMARK    7  A    between atoms: C_18  and  C_22
REMARK    8  A    between atoms: C_20  and  C_21
REMARK    9  A    between atoms: C_27  and  C_31
REMARK   10  A    between atoms: C_28  and  C_30
REMARK                            x       y       z     vdW  Elec       q    Type
REMARK                         _______ _______ _______ _____ _____    ______ ____
ROOT
ATOM      1  C   UNL     1      -1.096   1.614   4.276  0.00  0.00    +0.047 C 
ATOM      2  C   UNL     1      -0.585   0.537   3.353  0.00  0.00    -0.009 A 
ATOM      3  C   UNL     1      -0.003   0.867   2.169  0.00  0.00    +0.008 A 
ATOM      4  C   UNL     1       0.469  -0.148   1.319  0.00  0.00    +0.018 A 
ATOM      5  C   UNL     1       0.346  -1.444   1.673  0.00  0.00    +0.093 A 
ATOM      6  N   UNL     1      -0.237  -1.790   2.858  0.00  0.00    -0.304 N 
ATOM      7  C   UNL     1      -0.701  -0.822   3.712  0.00  0.00    +0.119 A 
ATOM      8  N   UNL     1      -1.207  -1.418   4.781  0.00  0.00    -0.339 N 
ATOM      9  C   UNL     1      -1.077  -2.748   4.645  0.00  0.00    +0.068 A 
ATOM     10  C   UNL     1      -0.482  -2.999   3.446  0.00  0.00    +0.058 A 
ATOM     11  H   UNL     1      -1.607  -0.967   5.540  0.00  0.00    +0.167 HD
ENDROOT
BRANCH   9  12
ATOM     12  C   UNL     1      -1.520  -3.769   5.627  0.00  0.00    +0.000 A 
ATOM     13  C   UNL     1      -0.679  -4.828   5.961  0.00  0.00    +0.010 A 
ATOM     14  C   UNL     1      -1.095  -5.775   6.874  0.00  0.00    +0.004 A 
ATOM     15  C   UNL     1      -2.345  -5.674   7.458  0.00  0.00    -0.047 A 
ATOM     16  C   UNL     1      -3.184  -4.624   7.130  0.00  0.00    -0.047 A 
ATOM     17  C   UNL     1      -2.775  -3.668   6.222  0.00  0.00    +0.013 A 
ATOM     18  C   UNL     1      -4.545  -4.521   7.770  0.00  0.00    +0.044 C 
ATOM     19  C   UNL     1      -2.795  -6.711   8.454  0.00  0.00    +0.044 C 
ENDBRANCH   9  12
BRANCH  10  20
ATOM     20  C   UNL     1      -0.142  -4.354   2.882  0.00  0.00    +0.152 C 
BRANCH  20  21
ATOM     21  C   UNL     1       1.240  -4.753   3.333  0.00  0.00    +0.223 C 
ATOM     22  O   UNL     1       1.884  -4.010   4.042  0.00  0.00    -0.275 OA
ATOM     23  N   UNL     1       1.759  -5.936   2.948  0.00  0.00    -0.285 N 
ATOM     24  H   UNL     1       1.218  -6.562   2.442  0.00  0.00    +0.155 HD
BRANCH  23  25
ATOM     25  C   UNL     1       3.080  -6.261   3.278  0.00  0.00    +0.039 A 
ATOM     26  C   UNL     1       3.359  -7.447   3.943  0.00  0.00    -0.029 A 
ATOM     27  C   UNL     1       4.663  -7.765   4.268  0.00  0.00    +0.008 A 
ATOM     28  C   UNL     1       5.691  -6.903   3.930  0.00  0.00    -0.050 A 
ATOM     29  C   UNL     1       5.416  -5.721   3.267  0.00  0.00    +0.008 A 
ATOM     30  C   UNL     1       4.114  -5.400   2.935  0.00  0.00    -0.029 A 
ATOM     31  C   UNL     1       3.817  -4.115   2.206  0.00  0.00    +0.045 C 
ATOM     32  C   UNL     1       7.113  -7.253   4.285  0.00  0.00    +0.044 C 
ATOM     33  C   UNL     1       2.240  -8.386   4.312  0.00  0.00    +0.045 C 
ENDBRANCH  23  25
ENDBRANCH  20  21
ENDBRANCH  10  20
TORSDOF 4
