REMARK  Name = ZINC17080797
REMARK  11 active torsions:
REMARK  status: ('A' for Active; 'I' for Inactive)
REMARK    1  A    between atoms: C_1  and  C_2
REMARK    2  A    between atoms: C_2  and  O_3
REMARK    3  A    between atoms: O_3  and  C_4
REMARK    4  A    between atoms: C_4  and  C_6
REMARK    5  A    between atoms: C_7  and  C_28
REMARK    6  A    between atoms: C_8  and  C_24
REMARK    7  A    between atoms: C_9  and  N_11
REMARK    8  A    between atoms: C_12  and  C_14
REMARK    9  A    between atoms: C_20  and  C_22
REMARK   10  A    between atoms: C_24  and  O_26
REMARK   11  A    between atoms: O_26  and  C_27
REMARK                            x       y       z     vdW  Elec       q    Type
REMARK                         _______ _______ _______ _____ _____    ______ ____
ROOT
ATOM      1  C   UNL     1      -4.225   0.961   2.404  0.00  0.00    +0.102 A 
ATOM      2  C   UNL     1      -5.157   1.202   3.378  0.00  0.00    -0.014 A 
ATOM      3  C   UNL     1      -6.413   0.637   3.221  0.00  0.00    +0.091 A 
ATOM      4  C   UNL     1      -6.640  -0.138   2.078  0.00  0.00    +0.087 A 
ATOM      5  S   UNL     1      -5.119  -0.061   1.250  0.00  0.00    -0.066 S 
ATOM      6  C   UNL     1      -4.828   2.050   4.580  0.00  0.00    +0.046 C 
ENDROOT
BRANCH   4   7
ATOM      7  N   UNL     1      -7.793  -0.797   1.700  0.00  0.00    -0.279 N 
ATOM      8  C   UNL     1      -7.821  -1.502   0.552  0.00  0.00    +0.222 C 
ATOM      9  O   UNL     1      -6.834  -1.557  -0.150  0.00  0.00    -0.275 OA
ATOM     10  H   UNL     1      -8.583  -0.753   2.262  0.00  0.00    +0.155 HD
BRANCH   8  11
ATOM     11  C   UNL     1      -9.079  -2.221   0.140  0.00  0.00    +0.093 C 
ATOM     12  C   UNL     1      -9.445  -3.266   1.196  0.00  0.00    +0.040 C 
ATOM     13  C   UNL     1     -10.531  -4.164   0.682  0.00  0.00    -0.030 C 
ATOM     14  C   UNL     1     -10.850  -4.274  -0.568  0.00  0.00    -0.030 C 
ATOM     15  C   UNL     1     -10.185  -3.511  -1.676  0.00  0.00    +0.042 C 
ATOM     16  C   UNL     1      -8.848  -2.942  -1.195  0.00  0.00    +0.118 C 
BRANCH  16  17
ATOM     17  C   UNL     1      -8.313  -1.966  -2.211  0.00  0.00    +0.360 C 
ATOM     18  O   UNL     1      -8.134  -0.811  -1.904  0.00  0.00    -0.246 OA
ATOM     19  O   UNL     1      -8.036  -2.380  -3.458  0.00  0.00    -0.246 OA
ENDBRANCH  16  17
ENDBRANCH   8  11
ENDBRANCH   4   7
BRANCH   1  20
ATOM     20  C   UNL     1      -2.842   1.431   2.327  0.00  0.00    +0.346 C 
ATOM     21  O   UNL     1      -2.389   2.134   3.211  0.00  0.00    -0.244 OA
BRANCH  20  22
ATOM     22  O   UNL     1      -2.070   1.085   1.277  0.00  0.00    -0.461 OA
BRANCH  22  24
ATOM     23  C   UNL     1      -0.013   1.086   0.008  0.00  0.00    +0.048 C 
ATOM     24  C   UNL     1      -0.729   1.579   1.267  0.00  0.00    +0.229 C 
ENDBRANCH  22  24
ENDBRANCH  20  22
ENDBRANCH   1  20
BRANCH   3  25
ATOM     25  C   UNL     1      -7.469   0.846   4.218  0.00  0.00    +0.342 C 
ATOM     26  O   UNL     1      -8.227   1.791   4.112  0.00  0.00    -0.245 OA
BRANCH  25  27
ATOM     27  O   UNL     1      -7.599  -0.010   5.252  0.00  0.00    -0.464 OA
ATOM     28  C   UNL     1      -8.666   0.258   6.199  0.00  0.00    +0.280 C 
ENDBRANCH  25  27
ENDBRANCH   3  25
TORSDOF 8
