REMARK  Name = ZINC19096450
REMARK  6 active torsions:
REMARK  status: ('A' for Active; 'I' for Inactive)
REMARK    1  A    between atoms: C_1  and  C_2
REMARK    2  A    between atoms: C_5  and  N_22
REMARK    3  A    between atoms: C_7  and  N_8
REMARK    4  A    between atoms: N_8  and  C_9
REMARK    5  A    between atoms: C_9  and  C_10
REMARK    6  A    between atoms: N_12  and  C_13
REMARK                            x       y       z     vdW  Elec       q    Type
REMARK                         _______ _______ _______ _____ _____    ______ ____
ROOT
ATOM      1  C   UNL     1       0.002  -0.004  -0.011  0.00  0.00    +0.198 C 
ENDROOT
BRANCH   1   2
ATOM      2  C   UNL     1      -1.412  -0.526   0.011  0.00  0.00    +0.234 C 
ATOM      3  O   UNL     1      -2.344   0.250   0.030  0.00  0.00    -0.274 OA
ATOM      4  N   UNL     1      -1.640  -1.854   0.008  0.00  0.00    -0.282 N 
ATOM      5  H   UNL     1      -0.898  -2.473  -0.074  0.00  0.00    +0.155 HD
BRANCH   4   6
ATOM      6  C   UNL     1      -2.945  -2.339   0.123  0.00  0.00    +0.062 A 
ATOM      7  C   UNL     1      -3.978  -1.657  -0.443  0.00  0.00    +0.025 A 
ATOM      8  C   UNL     1      -5.290  -2.114  -0.346  0.00  0.00    +0.004 A 
ATOM      9  C   UNL     1      -5.598  -3.256   0.315  0.00  0.00    +0.031 A 
ATOM     10  C   UNL     1      -4.573  -4.022   0.931  0.00  0.00    +0.102 A 
ATOM     11  C   UNL     1      -3.196  -3.551   0.828  0.00  0.00    +0.121 A 
ATOM     12  N   UNL     1      -2.342  -4.364   1.444  0.00  0.00    -0.189 NA
ATOM     13  S   UNL     1      -3.201  -5.533   2.038  0.00  0.00    +0.117 S 
ATOM     14  N   UNL     1      -4.663  -5.158   1.619  0.00  0.00    -0.191 NA
ENDBRANCH   4   6
ENDBRANCH   1   2
BRANCH   1  15
ATOM     15  N   UNL     1      -0.018   1.461  -0.003  0.00  0.00    -0.335 N 
ATOM     16  H   UNL     1      -0.865   1.934   0.009  0.00  0.00    +0.147 HD
BRANCH  15  23
ATOM     17  C   UNL     1      -0.150   4.303   0.013  0.00  0.00    +0.045 C 
ATOM     18  C   UNL     1       1.164   3.565  -0.012  0.00  0.00    -0.029 A 
ATOM     19  C   UNL     1       2.352   4.269  -0.029  0.00  0.00    +0.007 A 
ATOM     20  C   UNL     1       3.558   3.592  -0.052  0.00  0.00    +0.033 A 
ATOM     21  C   UNL     1       3.579   2.210  -0.059  0.00  0.00    +0.128 A 
ATOM     22  C   UNL     1       2.395   1.500  -0.037  0.00  0.00    +0.056 A 
ATOM     23  C   UNL     1       1.181   2.176  -0.019  0.00  0.00    +0.033 A 
BRANCH  21  24
ATOM     24  N   UNL     1       4.872   1.490  -0.084  0.00  0.00    +0.056 N 
ATOM     25  O   UNL     1       5.917   2.115  -0.098  0.00  0.00    -0.126 OA
ATOM     26  O   UNL     1       4.891   0.272  -0.090  0.00  0.00    -0.126 OA
ENDBRANCH  21  24
ENDBRANCH  15  23
ENDBRANCH   1  15
TORSDOF 5
