REMARK  Name = ZINC12497564
REMARK  8 active torsions:
REMARK  status: ('A' for Active; 'I' for Inactive)
REMARK    1  A    between atoms: C_1  and  O_2
REMARK    2  A    between atoms: O_2  and  C_3
REMARK    3  A    between atoms: C_3  and  C_5
REMARK    4  A    between atoms: C_5  and  C_31
REMARK    5  A    between atoms: C_10  and  C_12
REMARK    6  A    between atoms: N_21  and  C_24
REMARK    7  A    between atoms: C_31  and  C_32
REMARK    8  A    between atoms: C_35  and  O_38
REMARK                            x       y       z     vdW  Elec       q    Type
REMARK                         _______ _______ _______ _____ _____    ______ ____
ROOT
ATOM      1  C   UNL     1       5.037   4.890  -0.063  0.00  0.00    +0.048 C 
ATOM      2  C   UNL     1       6.334   5.590   0.026  0.00  0.00    +0.086 C 
ATOM      3  C   UNL     1       5.877   7.029   0.497  0.00  0.00    +0.077 C 
ATOM      4  C   UNL     1       4.995   6.588   1.663  0.00  0.00    -0.027 C 
ATOM      5  C   UNL     1       7.263   7.551   0.763  0.00  0.00    +0.229 C 
ATOM      6  O   UNL     1       7.605   8.308   1.646  0.00  0.00    -0.275 OA
ATOM      7  N   UNL     1       8.055   6.992  -0.199  0.00  0.00    -0.207 N 
ATOM      8  C   UNL     1       7.455   5.931  -0.820  0.00  0.00    +0.229 C 
ATOM      9  O   UNL     1       7.792   5.396  -1.854  0.00  0.00    -0.275 OA
ATOM     10  N   UNL     1       4.379   5.311   1.214  0.00  0.00    +0.396 N 
ATOM     11  H   UNL     1       4.518   4.589   1.929  0.00  0.00    -0.083 HD
ATOM     12  H   UNL     1       3.374   5.449   1.056  0.00  0.00    -0.083 HD
ENDROOT
BRANCH   4  13
ATOM     13  C   UNL     1       5.832   6.363   2.896  0.00  0.00    -0.058 A 
ATOM     14  C   UNL     1       6.019   7.391   3.801  0.00  0.00    +0.002 A 
ATOM     15  C   UNL     1       6.787   7.187   4.932  0.00  0.00    +0.003 A 
ATOM     16  C   UNL     1       7.368   5.953   5.160  0.00  0.00    +0.038 A 
ATOM     17  C   UNL     1       7.181   4.923   4.254  0.00  0.00    +0.124 A 
ATOM     18  C   UNL     1       6.408   5.128   3.124  0.00  0.00    +0.040 A 
ATOM     19  F   UNL     1       7.749   3.717   4.475  0.00  0.00    -0.205 F 
ENDBRANCH   4  13
BRANCH   7  20
ATOM     20  C   UNL     1       9.337   7.462  -0.522  0.00  0.00    +0.079 A 
ATOM     21  C   UNL     1      10.449   6.960   0.139  0.00  0.00    +0.027 A 
ATOM     22  C   UNL     1      11.710   7.425  -0.181  0.00  0.00    +0.002 A 
ATOM     23  C   UNL     1      11.866   8.390  -1.159  0.00  0.00    +0.003 A 
ATOM     24  C   UNL     1      10.761   8.894  -1.820  0.00  0.00    +0.040 A 
ATOM     25  C   UNL     1       9.496   8.429  -1.508  0.00  0.00    +0.145 A 
ATOM     26  F   UNL     1       8.417   8.917  -2.158  0.00  0.00    -0.204 F 
ENDBRANCH   7  20
BRANCH   1  27
ATOM     27  C   UNL     1       4.251   5.365  -1.258  0.00  0.00    +0.297 C 
ATOM     28  O   UNL     1       4.827   5.785  -2.232  0.00  0.00    -0.252 OA
BRANCH  27  30
ATOM     29  C   UNL     1       2.217   5.794  -2.424  0.00  0.00    +0.280 C 
ATOM     30  O   UNL     1       2.909   5.321  -1.238  0.00  0.00    -0.469 OA
ENDBRANCH  27  30
ENDBRANCH   1  27
BRANCH   1  31
ATOM     31  C   UNL     1       5.236   3.374  -0.110  0.00  0.00    +0.034 C 
BRANCH  31  32
ATOM     32  C   UNL     1       3.892   2.692  -0.126  0.00  0.00    -0.048 A 
ATOM     33  C   UNL     1       3.273   2.416  -1.331  0.00  0.00    +0.007 A 
ATOM     34  C   UNL     1       2.041   1.791  -1.349  0.00  0.00    +0.045 A 
ATOM     35  C   UNL     1       1.426   1.439  -0.156  0.00  0.00    +0.117 A 
ATOM     36  C   UNL     1       2.047   1.722   1.052  0.00  0.00    +0.045 A 
ATOM     37  C   UNL     1       3.281   2.343   1.064  0.00  0.00    +0.007 A 
BRANCH  35  38
ATOM     38  O   UNL     1       0.214   0.824  -0.171  0.00  0.00    -0.507 OA
ATOM     39  H   UNL     1       0.264  -0.141  -0.201  0.00  0.00    +0.292 HD
ENDBRANCH  35  38
ENDBRANCH  31  32
ENDBRANCH   1  31
TORSDOF 7
