REMARK  Name = ZINC11966202
REMARK  9 active torsions:
REMARK  status: ('A' for Active; 'I' for Inactive)
REMARK    1  A    between atoms: C_1  and  C_2
REMARK    2  A    between atoms: C_2  and  C_4
REMARK    3  A    between atoms: C_2  and  N_24
REMARK    4  A    between atoms: C_13  and  C_14
REMARK    5  A    between atoms: C_13  and  N_61
REMARK    6  A    between atoms: C_19  and  O_20
REMARK    7  A    between atoms: O_20  and  C_21
REMARK    8  A    between atoms: C_21  and  C_22
REMARK    9  A    between atoms: C_25  and  C_27
REMARK                            x       y       z     vdW  Elec       q    Type
REMARK                         _______ _______ _______ _____ _____    ______ ____
ROOT
ATOM      1  C   UNL     1       1.821   0.716   1.089  0.00  0.00    +0.154 A 
ATOM      2  N   UNL     1       0.940   1.663   1.275  0.00  0.00    -0.132 NA
ATOM      3  N   UNL     1      -0.249   1.180   1.155  0.00  0.00    -0.134 NA
ATOM      4  C   UNL     1      -0.176  -0.090   0.882  0.00  0.00    +0.132 A 
ATOM      5  N   UNL     1       1.137  -0.422   0.847  0.00  0.00    -0.315 N 
ATOM      6  C   UNL     1       1.680  -1.760   0.609  0.00  0.00    +0.106 C 
ATOM      7  C   UNL     1       0.693  -2.559  -0.248  0.00  0.00    -0.056 C 
ATOM      8  C   UNL     1      -1.065  -2.332   1.420  0.00  0.00    -0.071 C 
ATOM      9  C   UNL     1      -1.315  -1.044   0.629  0.00  0.00    +0.058 C 
ATOM     10  N   UNL     1      -0.247  -3.285   0.637  0.00  0.00    +0.384 N 
ATOM     11  H   UNL     1       0.294  -3.867   1.286  0.00  0.00    -0.081 HD
ENDROOT
BRANCH   1  13
ATOM     12  C   UNL     1       3.802   1.563  -0.139  0.00  0.00    +0.036 C 
ATOM     13  C   UNL     1       3.320   0.867   1.135  0.00  0.00    +0.138 C 
BRANCH  13  14
ATOM     14  N   UNL     1       3.694   1.670   2.302  0.00  0.00    -0.302 N 
ATOM     15  C   UNL     1       4.919   1.536   2.847  0.00  0.00    +0.247 C 
ATOM     16  O   UNL     1       5.714   0.749   2.371  0.00  0.00    -0.270 OA
ATOM     17  H   UNL     1       3.060   2.298   2.682  0.00  0.00    +0.150 HD
BRANCH  15  18
ATOM     18  C   UNL     1       5.296   2.346   4.024  0.00  0.00    +0.075 A 
ATOM     19  C   UNL     1       4.386   3.251   4.574  0.00  0.00    +0.054 A 
ATOM     20  C   UNL     1       4.745   4.004   5.673  0.00  0.00    +0.124 A 
ATOM     21  C   UNL     1       6.006   3.864   6.232  0.00  0.00    +0.041 A 
ATOM     22  C   UNL     1       6.912   2.971   5.694  0.00  0.00    +0.042 A 
ATOM     23  C   UNL     1       6.564   2.205   4.596  0.00  0.00    +0.136 A 
ATOM     24  F   UNL     1       7.449   1.328   4.074  0.00  0.00    -0.205 F 
ATOM     25  F   UNL     1       3.865   4.880   6.207  0.00  0.00    -0.205 F 
ENDBRANCH  15  18
ENDBRANCH  13  14
ENDBRANCH   1  13
BRANCH  10  26
ATOM     26  C   UNL     1      -1.124  -4.154  -0.167  0.00  0.00    -0.039 C 
BRANCH  26  27
ATOM     27  C   UNL     1      -0.346  -5.386  -0.554  0.00  0.00    -0.022 A 
ATOM     28  C   UNL     1       0.097  -5.543  -1.853  0.00  0.00    +0.005 A 
ATOM     29  C   UNL     1       0.811  -6.673  -2.208  0.00  0.00    +0.000 A 
ATOM     30  C   UNL     1       1.083  -7.647  -1.265  0.00  0.00    +0.004 A 
ATOM     31  C   UNL     1       0.642  -7.494   0.035  0.00  0.00    +0.046 A 
ATOM     32  C   UNL     1      -0.070  -6.359   0.395  0.00  0.00    +0.122 A 
BRANCH  32  33
ATOM     33  O   UNL     1      -0.501  -6.203   1.675  0.00  0.00    -0.488 OA
BRANCH  33  34
ATOM     34  C   UNL     1      -0.180  -7.245   2.598  0.00  0.00    +0.256 C 
BRANCH  34  35
ATOM     35  C   UNL     1      -0.735  -6.901   3.957  0.00  0.00    +0.006 C 
ATOM     36  C   UNL     1      -1.365  -7.811   4.656  0.00  0.00    +0.007 C 
ENDBRANCH  34  35
ENDBRANCH  33  34
ENDBRANCH  32  33
ENDBRANCH  26  27
ENDBRANCH  10  26
TORSDOF 8
