REMARK  Name = ZINC40146057
REMARK  8 active torsions:
REMARK  status: ('A' for Active; 'I' for Inactive)
REMARK    1  A    between atoms: C_1  and  O_2
REMARK    2  A    between atoms: O_2  and  C_3
REMARK    3  A    between atoms: C_3  and  C_5
REMARK    4  A    between atoms: C_7  and  N_28
REMARK    5  A    between atoms: C_10  and  C_11
REMARK    6  A    between atoms: C_12  and  C_13
REMARK    7  A    between atoms: C_16  and  C_18
REMARK    8  A    between atoms: C_21  and  N_25
REMARK                            x       y       z     vdW  Elec       q    Type
REMARK                         _______ _______ _______ _____ _____    ______ ____
ROOT
ATOM      1  C   UNL     1      -3.724  -2.015   0.244  0.00  0.00    +0.032 C 
ATOM      2  C   UNL     1      -4.932  -2.672   0.461  0.00  0.00    +0.048 C 
ENDROOT
BRANCH   1   8
ATOM      3  C   UNL     1      -1.246  -2.110   0.014  0.00  0.00    +0.086 A 
ATOM      4  C   UNL     1      -0.078  -2.867  -0.100  0.00  0.00    +0.051 A 
ATOM      5  C   UNL     1      -0.187  -4.250  -0.114  0.00  0.00    +0.145 A 
ATOM      6  C   UNL     1      -1.442  -4.841  -0.014  0.00  0.00    +0.144 A 
ATOM      7  N   UNL     1      -2.530  -4.115   0.093  0.00  0.00    -0.252 NA
ATOM      8  C   UNL     1      -2.485  -2.784   0.117  0.00  0.00    +0.078 A 
BRANCH   5   9
ATOM      9  N   UNL     1       1.026  -5.091  -0.234  0.00  0.00    +0.058 N 
ATOM     10  O   UNL     1       2.212  -4.527  -0.328  0.00  0.00    -0.126 OA
ATOM     11  O   UNL     1       0.918  -6.403  -0.247  0.00  0.00    -0.126 OA
ENDBRANCH   5   9
BRANCH   3  12
ATOM     12  C   UNL     1      -1.187  -0.632   0.034  0.00  0.00    +0.341 C 
ATOM     13  O   UNL     1      -2.214   0.016   0.026  0.00  0.00    -0.245 OA
BRANCH  12  15
ATOM     14  C   UNL     1      -0.013   1.423   0.078  0.00  0.00    +0.280 C 
ATOM     15  O   UNL     1       0.005  -0.006   0.061  0.00  0.00    -0.464 OA
ENDBRANCH  12  15
ENDBRANCH   3  12
ENDBRANCH   1   8
BRANCH   2  16
ATOM     16  C   UNL     1      -6.109  -1.941   0.582  0.00  0.00    +0.129 A 
ATOM     17  C   UNL     1      -7.447  -2.498   0.817  0.00  0.00    +0.050 A 
ATOM     18  C   UNL     1      -8.303  -1.446   0.868  0.00  0.00    +0.050 A 
ATOM     19  C   UNL     1      -7.503  -0.239   0.666  0.00  0.00    +0.137 A 
ATOM     20  O   UNL     1      -6.216  -0.599   0.509  0.00  0.00    -0.455 OA
BRANCH  19  21
ATOM     21  C   UNL     1      -7.998   1.087   0.645  0.00  0.00    +0.031 A 
ATOM     22  C   UNL     1      -9.108   1.418  -0.156  0.00  0.00    +0.015 A 
ATOM     23  C   UNL     1      -9.580   2.698  -0.170  0.00  0.00    +0.033 A 
ATOM     24  C   UNL     1      -8.971   3.680   0.601  0.00  0.00    +0.127 A 
ATOM     25  C   UNL     1      -7.877   3.374   1.395  0.00  0.00    +0.048 A 
ATOM     26  C   UNL     1      -7.387   2.087   1.431  0.00  0.00    +0.031 A 
ATOM     27 BR   UNL     1      -5.900   1.664   2.520  0.00  0.00    -0.049 Br
BRANCH  24  28
ATOM     28  N   UNL     1      -9.495   5.064   0.574  0.00  0.00    +0.056 N 
ATOM     29  O   UNL     1     -10.534   5.361  -0.179  0.00  0.00    -0.126 OA
ATOM     30  O   UNL     1      -8.922   5.999   1.303  0.00  0.00    -0.126 OA
ENDBRANCH  24  28
ENDBRANCH  19  21
ENDBRANCH   2  16
TORSDOF 7
