REMARK  Name = ZINC00832051
REMARK  12 active torsions:
REMARK  status: ('A' for Active; 'I' for Inactive)
REMARK    1  A    between atoms: C_1  and  C_2
REMARK    2  A    between atoms: C_5  and  S_8
REMARK    3  A    between atoms: S_8  and  N_11
REMARK    4  A    between atoms: N_11  and  C_12
REMARK    5  A    between atoms: N_11  and  C_30
REMARK    6  A    between atoms: C_12  and  C_13
REMARK    7  A    between atoms: N_15  and  C_16
REMARK    8  A    between atoms: C_17  and  C_29
REMARK    9  A    between atoms: N_18  and  C_28
REMARK   10  A    between atoms: N_19  and  C_22
REMARK   11  A    between atoms: C_35  and  O_36
REMARK   12  A    between atoms: O_36  and  C_37
REMARK                            x       y       z     vdW  Elec       q    Type
REMARK                         _______ _______ _______ _____ _____    ______ ____
ROOT
ATOM      1  N   UNL     1       2.652  -2.002  -2.261  0.00  0.00    -0.191 N 
ENDROOT
BRANCH   1   2
ATOM      2  C   UNL     1       3.782  -2.304  -1.492  0.00  0.00    +0.095 A 
ATOM      3  C   UNL     1       4.038  -3.614  -1.117  0.00  0.00    +0.048 A 
ATOM      4  C   UNL     1       5.156  -3.909  -0.357  0.00  0.00    +0.043 A 
ATOM      5  C   UNL     1       6.020  -2.900   0.028  0.00  0.00    +0.024 A 
ATOM      6  C   UNL     1       5.770  -1.592  -0.343  0.00  0.00    +0.049 A 
ATOM      7  C   UNL     1       4.656  -1.289  -1.108  0.00  0.00    +0.143 A 
ATOM      8 CL   UNL     1       5.475  -5.550   0.112  0.00  0.00    -0.083 Cl
BRANCH   7   9
ATOM      9  O   UNL     1       4.413  -0.003  -1.479  0.00  0.00    -0.493 OA
ATOM     10  C   UNL     1       5.352   0.985  -1.049  0.00  0.00    +0.277 C 
ENDBRANCH   7   9
ENDBRANCH   1   2
BRANCH   1  11
ATOM     11  S   UNL     1       2.774  -1.897  -3.909  0.00  0.00    +0.075 S 
ATOM     12  O   UNL     1       3.905  -2.673  -4.282  0.00  0.00    -0.150 OA
ATOM     13  O   UNL     1       1.476  -2.144  -4.429  0.00  0.00    -0.150 OA
BRANCH  11  18
ATOM     14  C   UNL     1       4.102   3.837  -5.237  0.00  0.00    +0.044 C 
ATOM     15  C   UNL     1       3.770   2.405  -4.906  0.00  0.00    -0.050 A 
ATOM     16  C   UNL     1       4.786   1.494  -4.682  0.00  0.00    +0.005 A 
ATOM     17  C   UNL     1       4.482   0.180  -4.378  0.00  0.00    +0.029 A 
ATOM     18  C   UNL     1       3.162  -0.223  -4.297  0.00  0.00    +0.109 A 
ATOM     19  C   UNL     1       2.146   0.687  -4.525  0.00  0.00    +0.029 A 
ATOM     20  C   UNL     1       2.450   2.002  -4.825  0.00  0.00    +0.005 A 
ENDBRANCH  11  18
ENDBRANCH   1  11
BRANCH   1  21
ATOM     21  C   UNL     1       1.360  -1.780  -1.607  0.00  0.00    +0.227 C 
BRANCH  21  22
ATOM     22  C   UNL     1       1.262  -0.343  -1.162  0.00  0.00    +0.237 C 
ATOM     23  O   UNL     1       2.182   0.420  -1.371  0.00  0.00    -0.274 OA
ATOM     24  N   UNL     1       0.154   0.094  -0.533  0.00  0.00    -0.278 N 
ATOM     25  H   UNL     1      -0.549  -0.532  -0.297  0.00  0.00    +0.155 HD
BRANCH  24  26
ATOM     26  C   UNL     1       0.016   1.460  -0.216  0.00  0.00    +0.121 A 
ATOM     27  C   UNL     1      -1.040   2.250  -0.513  0.00  0.00    +0.059 A 
ATOM     28  N   UNL     1      -0.794   3.509  -0.034  0.00  0.00    -0.282 N 
ATOM     29  N   UNL     1       0.463   3.528   0.581  0.00  0.00    -0.216 N 
ATOM     30  C   UNL     1       0.992   2.290   0.491  0.00  0.00    +0.293 A 
ATOM     31  O   UNL     1       2.076   1.932   0.916  0.00  0.00    -0.264 OA
ATOM     32  C   UNL     1      -1.699   4.655  -0.153  0.00  0.00    +0.171 C 
ATOM     33  C   UNL     1      -2.284   1.815  -1.245  0.00  0.00    +0.067 C 
BRANCH  29  34
ATOM     34  C   UNL     1       1.066   4.637   1.183  0.00  0.00    +0.067 A 
ATOM     35  C   UNL     1       1.124   5.850   0.509  0.00  0.00    +0.028 A 
ATOM     36  C   UNL     1       1.714   6.944   1.109  0.00  0.00    +0.002 A 
ATOM     37  C   UNL     1       2.258   6.831   2.376  0.00  0.00    +0.000 A 
ATOM     38  C   UNL     1       2.207   5.623   3.047  0.00  0.00    +0.002 A 
ATOM     39  C   UNL     1       1.613   4.526   2.455  0.00  0.00    +0.028 A 
ENDBRANCH  29  34
ENDBRANCH  24  26
ENDBRANCH  21  22
ENDBRANCH   1  21
TORSDOF 8
