REMARK  Name = ZINC22663935
REMARK  7 active torsions:
REMARK  status: ('A' for Active; 'I' for Inactive)
REMARK    1  A    between atoms: C_3  and  C_6
REMARK    2  A    between atoms: C_6  and  N_7
REMARK    3  A    between atoms: C_8  and  C_25
REMARK    4  A    between atoms: C_11  and  S_12
REMARK    5  A    between atoms: S_12  and  C_13
REMARK    6  A    between atoms: C_13  and  C_14
REMARK    7  A    between atoms: C_19  and  C_22
REMARK                            x       y       z     vdW  Elec       q    Type
REMARK                         _______ _______ _______ _____ _____    ______ ____
ROOT
ATOM      1  N   UNL     1      -2.911  -4.450   0.049  0.00  0.00    -0.295 N 
ATOM      2  C   UNL     1      -4.287  -4.433   0.019  0.00  0.00    +0.165 A 
ATOM      3  N   UNL     1      -4.654  -3.178  -0.093  0.00  0.00    -0.128 NA
ATOM      4  N   UNL     1      -3.618  -2.419  -0.130  0.00  0.00    -0.122 NA
ATOM      5  C   UNL     1      -2.524  -3.144  -0.051  0.00  0.00    +0.193 A 
ENDROOT
BRANCH   2   6
ATOM      6  C   UNL     1      -5.182  -5.607   0.098  0.00  0.00    +0.019 A 
ATOM      7  C   UNL     1      -6.519  -5.496  -0.287  0.00  0.00    +0.013 A 
ATOM      8  C   UNL     1      -7.348  -6.596  -0.217  0.00  0.00    +0.021 A 
ATOM      9  C   UNL     1      -6.859  -7.806   0.245  0.00  0.00    +0.041 A 
ATOM     10  C   UNL     1      -5.535  -7.921   0.634  0.00  0.00    +0.021 A 
ATOM     11  C   UNL     1      -4.695  -6.829   0.563  0.00  0.00    +0.013 A 
ATOM     12 CL   UNL     1      -7.910  -9.184   0.339  0.00  0.00    -0.084 Cl
ENDBRANCH   2   6
BRANCH   1  13
ATOM     13  C   UNL     1      -2.043  -5.624   0.166  0.00  0.00    +0.200 C 
BRANCH  13  16
ATOM     14  C   UNL     1      -1.536  -6.499   3.709  0.00  0.00    +0.041 A 
ATOM     15  C   UNL     1      -2.231  -6.639   2.486  0.00  0.00    +0.046 A 
ATOM     16  C   UNL     1      -1.641  -5.811   1.606  0.00  0.00    +0.125 A 
ATOM     17  O   UNL     1      -0.636  -5.175   2.230  0.00  0.00    -0.466 OA
ATOM     18  C   UNL     1      -0.568  -5.589   3.506  0.00  0.00    +0.195 A 
ENDBRANCH  13  16
ENDBRANCH   1  13
BRANCH   5  19
ATOM     19  S   UNL     1      -0.868  -2.543  -0.066  0.00  0.00    -0.077 S 
BRANCH  19  20
ATOM     20  C   UNL     1      -1.180  -0.766  -0.221  0.00  0.00    +0.173 C 
BRANCH  20  21
ATOM     21  C   UNL     1       0.133  -0.027  -0.254  0.00  0.00    +0.226 C 
ATOM     22  O   UNL     1       1.177  -0.641  -0.181  0.00  0.00    -0.275 OA
ATOM     23  N   UNL     1       0.147   1.316  -0.366  0.00  0.00    -0.301 N 
ATOM     24  C   UNL     1      -1.109   2.072  -0.462  0.00  0.00    +0.108 C 
ATOM     25  C   UNL     1      -1.059   2.964  -1.702  0.00  0.00    +0.032 C 
ATOM     26  C   UNL     1       0.198   3.835  -1.651  0.00  0.00    +0.078 C 
ATOM     27  C   UNL     1       1.440   2.942  -1.646  0.00  0.00    +0.032 C 
ATOM     28  C   UNL     1       1.419   2.051  -0.400  0.00  0.00    +0.108 C 
BRANCH  26  29
ATOM     29  C   UNL     1       0.233   4.737  -2.858  0.00  0.00    +0.214 C 
ATOM     30  O   UNL     1       1.160   4.672  -3.637  0.00  0.00    -0.276 OA
ATOM     31  N   UNL     1      -0.766   5.616  -3.071  0.00  0.00    -0.329 N 
ATOM     32  H   UNL     1      -0.741   6.274  -3.952  0.00  0.00    +0.145 HD
ATOM     33  H   UNL     1      -1.607   5.676  -2.364  0.00  0.00    +0.145 HD
ENDBRANCH  26  29
ENDBRANCH  20  21
ENDBRANCH  19  20
ENDBRANCH   5  19
TORSDOF 7
