REMARK  Name = ZINC08720482
REMARK  4 active torsions:
REMARK  status: ('A' for Active; 'I' for Inactive)
REMARK    1  A    between atoms: C_4  and  C_7
REMARK    2  A    between atoms: C_7  and  C_9
REMARK    3  A    between atoms: C_7  and  N_12
REMARK    4  A    between atoms: C_13  and  C_15
REMARK                            x       y       z     vdW  Elec       q    Type
REMARK                         _______ _______ _______ _____ _____    ______ ____
ROOT
ATOM      1  C   UNL     1       1.940   4.292   2.720  0.00  0.00    +0.039 A 
ATOM      2  C   UNL     1       3.162   4.845   2.327  0.00  0.00    +0.015 A 
ATOM      3  C   UNL     1       3.484   6.138   2.673  0.00  0.00    +0.026 A 
ATOM      4  C   UNL     1       2.581   6.900   3.409  0.00  0.00    +0.062 A 
ATOM      5  C   UNL     1       1.362   6.352   3.785  0.00  0.00    +0.134 A 
ATOM      6  C   UNL     1       1.031   5.064   3.455  0.00  0.00    +0.044 A 
ATOM      7  S   UNL     1       0.254   7.391   4.684  0.00  0.00    +0.102 S 
ATOM      8  O   UNL     1       0.478   7.141   6.065  0.00  0.00    -0.146 OA
ATOM      9  O   UNL     1      -1.024   7.261   4.077  0.00  0.00    -0.146 OA
ATOM     10  N   UNL     1       0.780   8.928   4.379  0.00  0.00    -0.118 NA
ATOM     11  C   UNL     1       1.995   9.175   3.957  0.00  0.00    +0.124 C 
ATOM     12  N   UNL     1       2.923   8.212   3.792  0.00  0.00    -0.286 N 
ATOM     13  C   UNL     1       4.344   8.382   4.035  0.00  0.00    +0.112 C 
ATOM     14  C   UNL     1       4.844   9.361   5.002  0.00  0.00    +0.019 C 
ATOM     15  C   UNL     1       4.333  10.747   5.146  0.00  0.00    +0.002 C 
ATOM     16  C   UNL     1       3.462  11.347   4.080  0.00  0.00    +0.008 C 
ATOM     17  C   UNL     1       2.276  10.587   3.682  0.00  0.00    +0.073 C 
ENDROOT
BRANCH   1  19
ATOM     18  N   UNL     1       2.477   2.163   1.642  0.00  0.00    -0.304 N 
ATOM     19  C   UNL     1       1.604   2.902   2.355  0.00  0.00    +0.245 C 
ATOM     20  O   UNL     1       0.540   2.424   2.697  0.00  0.00    -0.270 OA
ATOM     21  H   UNL     1       3.326   2.545   1.369  0.00  0.00    +0.150 HD
BRANCH  18  22
ATOM     22  C   UNL     1       2.144   0.783   1.280  0.00  0.00    +0.107 C 
BRANCH  22  26
ATOM     23  C   UNL     1       5.743  -1.435   0.664  0.00  0.00    +0.000 A 
ATOM     24  C   UNL     1       4.673  -2.021   1.315  0.00  0.00    +0.000 A 
ATOM     25  C   UNL     1       3.508  -1.303   1.514  0.00  0.00    +0.005 A 
ATOM     26  C   UNL     1       3.414   0.001   1.063  0.00  0.00    -0.027 A 
ATOM     27  C   UNL     1       4.482   0.584   0.408  0.00  0.00    +0.005 A 
ATOM     28  C   UNL     1       5.648  -0.132   0.213  0.00  0.00    +0.000 A 
ENDBRANCH  22  26
BRANCH  22  29
ATOM     29  C   UNL     1       1.317   0.779  -0.006  0.00  0.00    +0.014 C 
ATOM     30  C   UNL     1      -0.019   1.526   0.010  0.00  0.00    +0.006 C 
ATOM     31  C   UNL     1       0.002  -0.004   0.002  0.00  0.00    +0.006 C 
ENDBRANCH  22  29
ENDBRANCH  18  22
ENDBRANCH   1  19
TORSDOF 4
