REMARK  Name = ZINC36583818
REMARK  14 active torsions:
REMARK  status: ('A' for Active; 'I' for Inactive)
REMARK    1  A    between atoms: C_1  and  C_2
REMARK    2  A    between atoms: C_2  and  C_3
REMARK    3  A    between atoms: C_2  and  C_4
REMARK    4  A    between atoms: C_2  and  N_5
REMARK    5  A    between atoms: N_5  and  C_6
REMARK    6  A    between atoms: C_6  and  C_8
REMARK    7  A    between atoms: C_6  and  C_17
REMARK    8  A    between atoms: C_11  and  N_14
REMARK    9  A    between atoms: N_14  and  C_15
REMARK   10  A    between atoms: N_14  and  C_16
REMARK   11  A    between atoms: N_19  and  C_20
REMARK   12  A    between atoms: C_26  and  C_28
REMARK   13  A    between atoms: C_30  and  N_37
REMARK   14  A    between atoms: C_32  and  N_34
REMARK                            x       y       z     vdW  Elec       q    Type
REMARK                         _______ _______ _______ _____ _____    ______ ____
ROOT
ATOM      1  C   UNL     1       1.344  -1.516   0.265  0.00  0.00    +0.193 C 
ENDROOT
BRANCH   1   2
ATOM      2  C   UNL     1       1.680  -2.814   0.954  0.00  0.00    -0.018 A 
ATOM      3  C   UNL     1       0.678  -3.556   1.552  0.00  0.00    +0.008 A 
ATOM      4  C   UNL     1       0.982  -4.745   2.184  0.00  0.00    +0.023 A 
ATOM      5  C   UNL     1       2.296  -5.196   2.219  0.00  0.00    +0.029 A 
ATOM      6  C   UNL     1       3.299  -4.448   1.616  0.00  0.00    +0.023 A 
ATOM      7  C   UNL     1       2.988  -3.262   0.981  0.00  0.00    +0.008 A 
BRANCH   5   8
ATOM      8  N   UNL     1       2.607  -6.399   2.857  0.00  0.00    -0.336 N 
ATOM      9  C   UNL     1       1.547  -7.186   3.493  0.00  0.00    +0.129 C 
ATOM     10  C   UNL     1       3.992  -6.873   2.892  0.00  0.00    +0.129 C 
ENDBRANCH   5   8
ENDBRANCH   1   2
BRANCH   1  11
ATOM     11  C   UNL     1       1.458  -0.381   1.249  0.00  0.00    +0.238 C 
ATOM     12  O   UNL     1       0.498   0.327   1.473  0.00  0.00    -0.273 OA
ATOM     13  N   UNL     1       2.626  -0.151   1.881  0.00  0.00    -0.311 N 
ATOM     14  H   UNL     1       3.393  -0.717   1.703  0.00  0.00    +0.149 HD
BRANCH  13  15
ATOM     15  C   UNL     1       2.736   0.953   2.838  0.00  0.00    +0.073 C 
ATOM     16  C   UNL     1       3.056   2.248   2.089  0.00  0.00    +0.022 C 
ATOM     17  C   UNL     1       3.171   3.400   3.088  0.00  0.00    +0.002 C 
ATOM     18  C   UNL     1       4.290   3.099   4.087  0.00  0.00    +0.000 C 
ATOM     19  C   UNL     1       3.971   1.804   4.837  0.00  0.00    +0.002 C 
ATOM     20  C   UNL     1       3.855   0.652   3.837  0.00  0.00    +0.022 C 
ENDBRANCH  13  15
ENDBRANCH   1  11
BRANCH   1  21
ATOM     21  N   UNL     1      -0.024  -1.578  -0.254  0.00  0.00    -0.277 N 
ATOM     22  C   UNL     1      -1.040  -1.919   0.564  0.00  0.00    +0.248 C 
ATOM     23  O   UNL     1      -0.973  -1.670   1.752  0.00  0.00    -0.270 OA
BRANCH  22  24
ATOM     24  C   UNL     1      -2.235  -2.595   0.017  0.00  0.00    +0.041 A 
ATOM     25  C   UNL     1      -2.421  -2.681  -1.364  0.00  0.00    +0.046 A 
ATOM     26  C   UNL     1      -3.538  -3.314  -1.869  0.00  0.00    +0.129 A 
ATOM     27  C   UNL     1      -4.473  -3.862  -1.010  0.00  0.00    +0.065 A 
ATOM     28  C   UNL     1      -4.296  -3.780   0.360  0.00  0.00    +0.129 A 
ATOM     29  C   UNL     1      -3.180  -3.155   0.878  0.00  0.00    +0.046 A 
BRANCH  28  30
ATOM     30  N   UNL     1      -5.302  -4.369   1.272  0.00  0.00    +0.057 N 
ATOM     31  O   UNL     1      -6.278  -4.921   0.820  0.00  0.00    -0.126 OA
ATOM     32  O   UNL     1      -5.148  -4.298   2.469  0.00  0.00    -0.126 OA
ENDBRANCH  28  30
BRANCH  26  33
ATOM     33  N   UNL     1      -3.736  -3.407  -3.333  0.00  0.00    +0.057 N 
ATOM     34  O   UNL     1      -2.877  -3.010  -4.085  0.00  0.00    -0.126 OA
ATOM     35  O   UNL     1      -4.757  -3.879  -3.776  0.00  0.00    -0.126 OA
ENDBRANCH  26  33
ENDBRANCH  22  24
BRANCH  21  37
ATOM     36  C   UNL     1       0.752  -0.270  -2.169  0.00  0.00    +0.031 C 
ATOM     37  C   UNL     1      -0.289  -1.269  -1.661  0.00  0.00    +0.030 C 
ATOM     38  C   UNL     1      -1.687  -0.662  -1.796  0.00  0.00    +0.031 C 
ATOM     39  C   UNL     1      -0.210  -2.554  -2.489  0.00  0.00    +0.031 C 
ENDBRANCH  21  37
ENDBRANCH   1  21
TORSDOF 9
