REMARK  Name = ZINC12566815
REMARK  6 active torsions:
REMARK  status: ('A' for Active; 'I' for Inactive)
REMARK    1  A    between atoms: C_1  and  C_2
REMARK    2  A    between atoms: C_9  and  C_14
REMARK    3  A    between atoms: C_14  and  C_16
REMARK    4  A    between atoms: C_14  and  N_26
REMARK    5  A    between atoms: N_20  and  C_21
REMARK    6  A    between atoms: C_34  and  C_36
REMARK                            x       y       z     vdW  Elec       q    Type
REMARK                         _______ _______ _______ _____ _____    ______ ____
ROOT
ATOM      1  C   UNL     1       5.408   1.481  -0.053  0.00  0.00    +0.179 C 
ENDROOT
BRANCH   1  10
ATOM      2  C   UNL     1      -1.992   1.311  -0.957  0.00  0.00    +0.044 C 
ATOM      3  C   UNL     1      -0.709   2.078  -0.768  0.00  0.00    -0.050 A 
ATOM      4  C   UNL     1      -0.738   3.465  -0.714  0.00  0.00    +0.005 A 
ATOM      5  C   UNL     1       0.425   4.186  -0.548  0.00  0.00    +0.026 A 
ATOM      6  C   UNL     1       1.640   3.519  -0.427  0.00  0.00    +0.049 A 
ATOM      7  C   UNL     1       1.664   2.113  -0.476  0.00  0.00    -0.001 A 
ATOM      8  C   UNL     1       0.472   1.401  -0.645  0.00  0.00    +0.013 A 
ATOM      9  C   UNL     1       2.947   1.421  -0.348  0.00  0.00    +0.021 A 
ATOM     10  C   UNL     1       4.071   2.163  -0.187  0.00  0.00    +0.045 A 
ATOM     11  C   UNL     1       3.992   3.571  -0.145  0.00  0.00    +0.255 A 
ATOM     12  O   UNL     1       5.014   4.220   0.001  0.00  0.00    -0.268 OA
ATOM     13  N   UNL     1       2.818   4.216  -0.261  0.00  0.00    -0.322 N 
ATOM     14  H   UNL     1       2.799   5.185  -0.228  0.00  0.00    +0.169 HD
ENDBRANCH   1  10
BRANCH   1  15
ATOM     15  N   UNL     1       6.023   1.857   1.227  0.00  0.00    -0.312 N 
ATOM     16  C   UNL     1       7.229   1.173   1.425  0.00  0.00    +0.034 A 
ATOM     17  C   UNL     1       8.241   0.863   0.518  0.00  0.00    +0.023 A 
ATOM     18  C   UNL     1       9.361   0.176   0.937  0.00  0.00    +0.002 A 
ATOM     19  C   UNL     1       9.489  -0.209   2.259  0.00  0.00    +0.000 A 
ATOM     20  C   UNL     1       8.487   0.092   3.164  0.00  0.00    +0.005 A 
ATOM     21  C   UNL     1       7.363   0.776   2.749  0.00  0.00    -0.025 A 
ATOM     22  C   UNL     1       6.124   1.222   3.499  0.00  0.00    +0.059 C 
ATOM     23  C   UNL     1       5.128   1.536   2.359  0.00  0.00    +0.076 C 
ATOM     24  C   UNL     1       4.254   2.740   2.719  0.00  0.00    +0.028 C 
ENDBRANCH   1  15
BRANCH   1  25
ATOM     25  C   UNL     1       6.306   1.909  -1.186  0.00  0.00    +0.177 A 
ATOM     26  N   UNL     1       6.984   3.027  -1.268  0.00  0.00    -0.111 NA
ATOM     27  N   UNL     1       7.629   3.020  -2.383  0.00  0.00    -0.023 NA
ATOM     28  N   UNL     1       7.373   1.930  -3.019  0.00  0.00    -0.044 NA
ATOM     29  N   UNL     1       6.561   1.218  -2.313  0.00  0.00    -0.224 N 
BRANCH  29  30
ATOM     30  C   UNL     1       6.018  -0.094  -2.671  0.00  0.00    +0.111 C 
ATOM     31  C   UNL     1       7.168  -1.094  -2.913  0.00  0.00    +0.027 C 
ATOM     32  C   UNL     1       6.670  -1.966  -4.093  0.00  0.00    +0.002 C 
ATOM     33  C   UNL     1       5.934  -0.941  -4.991  0.00  0.00    +0.002 C 
ATOM     34  C   UNL     1       5.234   0.002  -3.991  0.00  0.00    +0.027 C 
ENDBRANCH  29  30
ENDBRANCH   1  25
TORSDOF 4
