REMARK  Name = ZINC39420559
REMARK  12 active torsions:
REMARK  status: ('A' for Active; 'I' for Inactive)
REMARK    1  A    between atoms: C_1  and  C_2
REMARK    2  A    between atoms: C_2  and  C_3
REMARK    3  A    between atoms: C_3  and  C_4
REMARK    4  A    between atoms: C_3  and  N_15
REMARK    5  A    between atoms: C_9  and  C_14
REMARK    6  A    between atoms: N_15  and  C_16
REMARK    7  A    between atoms: N_19  and  C_22
REMARK    8  A    between atoms: C_25  and  N_28
REMARK    9  A    between atoms: N_28  and  S_29
REMARK   10  A    between atoms: S_29  and  N_32
REMARK   11  A    between atoms: N_32  and  C_33
REMARK   12  A    between atoms: N_32  and  C_34
REMARK                            x       y       z     vdW  Elec       q    Type
REMARK                         _______ _______ _______ _____ _____    ______ ____
ROOT
ATOM      1  C   UNL     1      -0.245   1.152  -2.693  0.00  0.00    -0.068 C 
ATOM      2  C   UNL     1      -0.864   2.042  -1.612  0.00  0.00    +0.003 C 
ATOM      3  C   UNL     1      -0.744   3.510  -2.034  0.00  0.00    +0.103 C 
ATOM      4  N   UNL     1      -1.346   3.670  -3.365  0.00  0.00    -0.330 N 
ATOM      5  C   UNL     1      -0.887   2.801  -4.457  0.00  0.00    +0.103 C 
ATOM      6  C   UNL     1      -1.005   1.341  -4.008  0.00  0.00    +0.003 C 
ENDROOT
BRANCH   4   7
ATOM      7  C   UNL     1      -2.338   4.632  -3.588  0.00  0.00    +0.030 A 
ATOM      8  C   UNL     1      -2.675   5.527  -2.581  0.00  0.00    +0.025 A 
ATOM      9  C   UNL     1      -3.654   6.476  -2.801  0.00  0.00    +0.026 A 
ATOM     10  C   UNL     1      -4.301   6.535  -4.029  0.00  0.00    +0.049 A 
ATOM     11  C   UNL     1      -3.963   5.640  -5.035  0.00  0.00    +0.026 A 
ATOM     12  C   UNL     1      -2.980   4.695  -4.817  0.00  0.00    +0.025 A 
BRANCH  10  13
ATOM     13  N   UNL     1      -5.293   7.497  -4.252  0.00  0.00    -0.206 N 
ATOM     14  H   UNL     1      -5.981   7.648  -3.584  0.00  0.00    +0.175 HD
BRANCH  13  15
ATOM     15  S   UNL     1      -5.294   8.377  -5.655  0.00  0.00    +0.111 S 
ATOM     16  O   UNL     1      -5.232   7.440  -6.721  0.00  0.00    -0.138 OA
ATOM     17  O   UNL     1      -6.342   9.329  -5.536  0.00  0.00    -0.138 OA
BRANCH  15  18
ATOM     18  N   UNL     1      -3.877   9.234  -5.696  0.00  0.00    -0.170 NA
ATOM     19  C   UNL     1      -2.723   8.706  -6.426  0.00  0.00    +0.132 C 
ATOM     20  C   UNL     1      -3.779  10.520  -5.001  0.00  0.00    +0.132 C 
ENDBRANCH  15  18
ENDBRANCH  13  15
ENDBRANCH  10  13
ENDBRANCH   4   7
BRANCH   1  21
ATOM     21  N   UNL     1      -0.328  -0.254  -2.276  0.00  0.00    +0.388 N 
ATOM     22  H   UNL     1      -0.015  -0.847  -3.030  0.00  0.00    -0.084 HD
ATOM     23  H   UNL     1      -1.284  -0.480  -2.045  0.00  0.00    -0.084 HD
BRANCH  21  24
ATOM     24  C   UNL     1       0.525  -0.468  -1.099  0.00  0.00    -0.004 C 
BRANCH  24  25
ATOM     25  C   UNL     1       1.969  -0.270  -1.483  0.00  0.00    +0.094 A 
ATOM     26  N   UNL     1       2.963   0.081  -0.623  0.00  0.00    -0.343 N 
ATOM     27  H   UNL     1       2.868   0.246   0.328  0.00  0.00    +0.167 HD
ATOM     28  C   UNL     1       4.130   0.160  -1.355  0.00  0.00    +0.066 A 
ATOM     29  C   UNL     1       5.448   0.467  -1.044  0.00  0.00    +0.031 A 
ATOM     30  C   UNL     1       6.405   0.455  -2.037  0.00  0.00    -0.048 A 
ATOM     31  C   UNL     1       6.059   0.140  -3.343  0.00  0.00    +0.005 A 
ATOM     32  C   UNL     1       4.768  -0.165  -3.668  0.00  0.00    +0.030 A 
ATOM     33  C   UNL     1       3.781  -0.160  -2.678  0.00  0.00    +0.089 A 
ATOM     34  N   UNL     1       2.448  -0.417  -2.684  0.00  0.00    -0.234 NA
ATOM     35  C   UNL     1       7.835   0.788  -1.701  0.00  0.00    +0.044 C 
ENDBRANCH  24  25
BRANCH  24  37
ATOM     36  C   UNL     1      -1.112  -2.057  -0.081  0.00  0.00    +0.002 C 
ATOM     37  C   UNL     1       0.326  -1.892  -0.577  0.00  0.00    -0.012 C 
ENDBRANCH  24  37
ENDBRANCH  21  24
ENDBRANCH   1  21
TORSDOF 8
