REMARK  Name = ZINC61865978
REMARK  8 active torsions:
REMARK  status: ('A' for Active; 'I' for Inactive)
REMARK    1  A    between atoms: C_1  and  C_2
REMARK    2  A    between atoms: C_4  and  C_26
REMARK    3  A    between atoms: C_5  and  C_9
REMARK    4  A    between atoms: C_6  and  C_8
REMARK    5  A    between atoms: C_9  and  C_10
REMARK    6  A    between atoms: C_10  and  N_11
REMARK    7  A    between atoms: C_17  and  C_20
REMARK    8  A    between atoms: C_22  and  C_25
REMARK                            x       y       z     vdW  Elec       q    Type
REMARK                         _______ _______ _______ _____ _____    ______ ____
ROOT
ATOM      1  N   UNL     1       1.527  -6.231  -0.039  0.00  0.00    -0.299 N 
ATOM      2  C   UNL     1       2.703  -6.890  -0.050  0.00  0.00    +0.302 C 
ATOM      3  O   UNL     1       3.746  -6.272  -0.145  0.00  0.00    -0.253 OA
ATOM      4  N   UNL     1       2.723  -8.235   0.044  0.00  0.00    -0.286 N 
ATOM      5  C   UNL     1       1.472  -9.004   0.042  0.00  0.00    +0.110 C 
ATOM      6  C   UNL     1       1.449  -9.912   1.276  0.00  0.00    +0.032 C 
ATOM      7  C   UNL     1       2.715 -10.772   1.294  0.00  0.00    +0.081 C 
ATOM      8  C   UNL     1       3.947  -9.867   1.382  0.00  0.00    +0.032 C 
ATOM      9  C   UNL     1       3.998  -8.959   0.144  0.00  0.00    +0.110 C 
ATOM     10  H   UNL     1       0.694  -6.727  -0.038  0.00  0.00    +0.150 HD
ENDROOT
BRANCH   7  11
ATOM     11  C   UNL     1       2.681 -11.691   2.487  0.00  0.00    +0.231 A 
ATOM     12  N   UNL     1       2.712 -12.994   2.450  0.00  0.00    -0.196 NA
ATOM     13  C   UNL     1       2.666 -13.491   3.691  0.00  0.00    +0.169 A 
ATOM     14  N   UNL     1       2.605 -12.504   4.538  0.00  0.00    -0.062 NA
ATOM     15  O   UNL     1       2.619 -11.310   3.770  0.00  0.00    -0.338 OA
ATOM     16  C   UNL     1       2.681 -14.954   4.050  0.00  0.00    +0.091 C 
ENDBRANCH   7  11
BRANCH   1  17
ATOM     17  C   UNL     1       1.508  -4.767  -0.030  0.00  0.00    +0.110 C 
BRANCH  17  18
ATOM     18  C   UNL     1       0.060  -4.275  -0.018  0.00  0.00    +0.054 C 
BRANCH  18  23
ATOM     19  C   UNL     1      -0.018   1.503   0.020  0.00  0.00    +0.044 C 
ATOM     20  C   UNL     1       0.003  -0.004   0.010  0.00  0.00    -0.050 A 
ATOM     21  C   UNL     1       0.006  -0.687  -1.192  0.00  0.00    +0.007 A 
ATOM     22  C   UNL     1       0.025  -2.070  -1.201  0.00  0.00    -0.047 A 
ATOM     23  C   UNL     1       0.040  -2.768  -0.008  0.00  0.00    -0.040 A 
ATOM     24  C   UNL     1       0.038  -2.085   1.193  0.00  0.00    -0.047 A 
ATOM     25  C   UNL     1       0.024  -0.703   1.202  0.00  0.00    +0.007 A 
ATOM     26  C   UNL     1       0.055  -2.847   2.494  0.00  0.00    +0.044 C 
ATOM     27  C   UNL     1       0.027  -2.814  -2.511  0.00  0.00    +0.044 C 
ENDBRANCH  18  23
ENDBRANCH  17  18
ENDBRANCH   1  17
TORSDOF 4
