REMARK  Name = ZINC05060180
REMARK  3 active torsions:
REMARK  status: ('A' for Active; 'I' for Inactive)
REMARK    1  A    between atoms: N_13  and  C_14
REMARK    2  A    between atoms: C_14  and  C_15
REMARK    3  A    between atoms: N_17  and  C_18
REMARK                            x       y       z     vdW  Elec       q    Type
REMARK                         _______ _______ _______ _____ _____    ______ ____
ROOT
ATOM      1  C   UNL     1      -3.014  -2.361   0.018  0.00  0.00    +0.209 C 
ENDROOT
BRANCH   1  14
ATOM      2  C   UNL     1      -2.940  -8.393  -0.447  0.00  0.00    +0.001 A 
ATOM      3  C   UNL     1      -2.927  -8.328   0.921  0.00  0.00    +0.008 A 
ATOM      4  C   UNL     1      -2.936  -7.067   1.541  0.00  0.00    -0.015 A 
ATOM      5  C   UNL     1      -2.925  -6.833   2.926  0.00  0.00    +0.008 A 
ATOM      6  C   UNL     1      -2.938  -5.539   3.370  0.00  0.00    +0.002 A 
ATOM      7  C   UNL     1      -2.962  -4.437   2.515  0.00  0.00    +0.024 A 
ATOM      8  C   UNL     1      -2.973  -4.626   1.146  0.00  0.00    +0.046 A 
ATOM      9  C   UNL     1      -2.960  -5.947   0.709  0.00  0.00    +0.016 A 
ATOM     10  C   UNL     1      -2.973  -6.003  -0.692  0.00  0.00    +0.047 A 
ATOM     11  C   UNL     1      -2.963  -7.264  -1.264  0.00  0.00    +0.014 A 
ATOM     12  C   UNL     1      -3.001  -4.596  -1.110  0.00  0.00    +0.252 C 
ATOM     13  O   UNL     1      -3.022  -4.191  -2.257  0.00  0.00    -0.270 OA
ATOM     14  N   UNL     1      -2.994  -3.826   0.010  0.00  0.00    -0.258 N 
ENDBRANCH   1  14
BRANCH   1  15
ATOM     15  C   UNL     1      -1.601  -1.839   0.007  0.00  0.00    +0.231 C 
ATOM     16  O   UNL     1      -0.668  -2.615  -0.006  0.00  0.00    -0.274 OA
ATOM     17  N   UNL     1      -1.372  -0.511   0.012  0.00  0.00    -0.308 N 
ATOM     18  H   UNL     1      -2.118   0.109   0.023  0.00  0.00    +0.149 HD
BRANCH  17  19
ATOM     19  C   UNL     1       0.002  -0.004   0.002  0.00  0.00    +0.035 C 
ATOM     20  C   UNL     1      -0.019   1.526   0.010  0.00  0.00    +0.029 C 
ATOM     21  C   UNL     1       1.417   2.055  -0.000  0.00  0.00    -0.008 C 
ATOM     22  C   UNL     1       2.133   1.562  -1.259  0.00  0.00    +0.007 C 
ATOM     23  C   UNL     1       2.154   0.032  -1.268  0.00  0.00    -0.008 C 
ATOM     24  C   UNL     1       0.718  -0.497  -1.257  0.00  0.00    +0.029 C 
ATOM     25  C   UNL     1       2.894  -0.475  -0.028  0.00  0.00    +0.007 C 
ATOM     26  C   UNL     1       2.178   0.019   1.231  0.00  0.00    -0.008 C 
ATOM     27  C   UNL     1       2.157   1.548   1.239  0.00  0.00    +0.007 C 
ATOM     28  C   UNL     1       0.742  -0.511   1.242  0.00  0.00    +0.029 C 
ENDBRANCH  17  19
ENDBRANCH   1  15
TORSDOF 3
