REMARK  Name = ZINC11916701
REMARK  6 active torsions:
REMARK  status: ('A' for Active; 'I' for Inactive)
REMARK    1  A    between atoms: C_4  and  C_7
REMARK    2  A    between atoms: C_9  and  C_12
REMARK    3  A    between atoms: N_14  and  C_15
REMARK    4  A    between atoms: C_16  and  C_23
REMARK    5  A    between atoms: N_25  and  C_26
REMARK    6  A    between atoms: C_26  and  C_27
REMARK                            x       y       z     vdW  Elec       q    Type
REMARK                         _______ _______ _______ _____ _____    ______ ____
ROOT
ATOM      1  C   UNL     1      -5.547  -4.855   0.032  0.00  0.00    +0.085 A 
ATOM      2  C   UNL     1      -6.913  -5.084   0.050  0.00  0.00    +0.069 A 
ATOM      3  C   UNL     1      -7.367  -6.474   0.043  0.00  0.00    -0.023 A 
ATOM      4  C   UNL     1      -6.386  -7.395   0.028  0.00  0.00    -0.004 A 
ATOM      5  S   UNL     1      -4.881  -6.452   0.018  0.00  0.00    -0.077 S 
ATOM      6  C   UNL     1      -6.930  -8.798   0.024  0.00  0.00    +0.043 C 
ATOM      7  C   UNL     1      -8.408  -8.641  -0.399  0.00  0.00    +0.010 C 
ATOM      8  C   UNL     1      -8.713  -7.199   0.055  0.00  0.00    +0.037 C 
ENDROOT
BRANCH   1  11
ATOM      9  C   UNL     1      -3.530  -3.617   0.018  0.00  0.00    +0.270 C 
ATOM     10  O   UNL     1      -2.903  -4.658   0.006  0.00  0.00    -0.268 OA
ATOM     11  N   UNL     1      -4.877  -3.643   0.032  0.00  0.00    -0.274 N 
ATOM     12  H   UNL     1      -5.378  -2.812   0.041  0.00  0.00    +0.156 HD
BRANCH   9  15
ATOM     13  C   UNL     1      -1.266  -0.764   0.011  0.00  0.00    +0.168 A 
ATOM     14  C   UNL     1      -1.407  -2.124  -0.001  0.00  0.00    +0.086 A 
ATOM     15  C   UNL     1      -2.812  -2.319   0.018  0.00  0.00    +0.169 A 
ATOM     16  N   UNL     1      -3.350  -1.124   0.029  0.00  0.00    -0.073 NA
ATOM     17  O   UNL     1      -2.511  -0.254   0.025  0.00  0.00    -0.354 OA
BRANCH  13  21
ATOM     18  C   UNL     1       2.378   1.419  -0.013  0.00  0.00    +0.000 A 
ATOM     19  C   UNL     1       1.170   2.094   0.002  0.00  0.00    +0.001 A 
ATOM     20  C   UNL     1      -0.017   1.391   0.010  0.00  0.00    +0.011 A 
ATOM     21  C   UNL     1       0.002  -0.004   0.002  0.00  0.00    +0.020 A 
ATOM     22  C   UNL     1       1.223  -0.679  -0.013  0.00  0.00    +0.011 A 
ATOM     23  C   UNL     1       2.403   0.036  -0.021  0.00  0.00    +0.001 A 
ENDBRANCH  13  21
ENDBRANCH   9  15
ENDBRANCH   1  11
BRANCH   2  24
ATOM     24  C   UNL     1      -7.869  -3.972   0.072  0.00  0.00    +0.247 C 
ATOM     25  O   UNL     1      -8.281  -3.504  -0.973  0.00  0.00    -0.270 OA
ATOM     26  N   UNL     1      -8.291  -3.469   1.249  0.00  0.00    -0.304 N 
ATOM     27  H   UNL     1      -7.962  -3.843   2.082  0.00  0.00    +0.149 HD
BRANCH  26  28
ATOM     28  C   UNL     1      -9.246  -2.359   1.270  0.00  0.00    +0.179 C 
BRANCH  28  29
ATOM     29  C   UNL     1      -9.553  -1.988   2.699  0.00  0.00    +0.122 A 
ATOM     30  C   UNL     1      -8.886  -1.082   3.437  0.00  0.00    +0.046 A 
ATOM     31  C   UNL     1      -9.506  -1.052   4.707  0.00  0.00    +0.041 A 
ATOM     32  C   UNL     1     -10.515  -1.941   4.669  0.00  0.00    +0.195 A 
ATOM     33  O   UNL     1     -10.542  -2.501   3.449  0.00  0.00    -0.466 OA
ENDBRANCH  28  29
ENDBRANCH  26  28
ENDBRANCH   2  24
TORSDOF 6
