REMARK  Name = ZINC06378423
REMARK  6 active torsions:
REMARK  status: ('A' for Active; 'I' for Inactive)
REMARK    1  A    between atoms: C_1  and  C_2
REMARK    2  A    between atoms: C_3  and  C_20
REMARK    3  A    between atoms: C_4  and  C_10
REMARK    4  A    between atoms: C_13  and  C_16
REMARK    5  A    between atoms: N_22  and  C_23
REMARK    6  A    between atoms: N_22  and  C_24
REMARK                            x       y       z     vdW  Elec       q    Type
REMARK                         _______ _______ _______ _____ _____    ______ ____
ROOT
ATOM      1  C   UNL     1       0.284  -2.337  -3.345  0.00  0.00    +0.061 C 
ATOM      2  C   UNL     1       0.225  -2.674  -1.877  0.00  0.00    +0.019 C 
ATOM      3  C   UNL     1       0.173  -1.677  -0.970  0.00  0.00    +0.056 C 
ATOM      4  C   UNL     1       0.108  -2.059   0.495  0.00  0.00    +0.142 C 
ATOM      5  N   UNL     1       0.113  -3.498   0.811  0.00  0.00    -0.288 N 
ATOM      6  C   UNL     1       0.175  -4.377  -0.208  0.00  0.00    +0.304 C 
ATOM      7  O   UNL     1       0.180  -5.567   0.041  0.00  0.00    -0.252 OA
ATOM      8  N   UNL     1       0.232  -3.983  -1.487  0.00  0.00    -0.273 N 
ATOM      9  H   UNL     1       0.073  -3.804   1.730  0.00  0.00    +0.151 HD
ATOM     10  H   UNL     1       0.275  -4.666  -2.175  0.00  0.00    +0.156 HD
ENDROOT
BRANCH   4  11
ATOM     11  C   UNL     1      -1.148  -1.461   1.076  0.00  0.00    -0.023 A 
ATOM     12  C   UNL     1      -2.381  -2.000   0.759  0.00  0.00    +0.006 A 
ATOM     13  C   UNL     1      -3.532  -1.455   1.295  0.00  0.00    +0.013 A 
ATOM     14  C   UNL     1      -3.451  -0.364   2.141  0.00  0.00    +0.055 A 
ATOM     15  C   UNL     1      -2.219   0.178   2.453  0.00  0.00    +0.013 A 
ATOM     16  C   UNL     1      -1.067  -0.370   1.921  0.00  0.00    +0.006 A 
BRANCH  14  17
ATOM     17  C   UNL     1      -4.707   0.234   2.722  0.00  0.00    +0.417 C 
ATOM     18  F   UNL     1      -5.189   1.229   1.865  0.00  0.00    -0.166 F 
ATOM     19  F   UNL     1      -5.675  -0.765   2.867  0.00  0.00    -0.166 F 
ATOM     20  F   UNL     1      -4.422   0.793   3.972  0.00  0.00    -0.166 F 
ENDBRANCH  14  17
ENDBRANCH   4  11
BRANCH   3  21
ATOM     21  C   UNL     1       0.173  -0.319  -1.373  0.00  0.00    +0.246 C 
ATOM     22  O   UNL     1      -0.875   0.298  -1.433  0.00  0.00    -0.270 OA
ATOM     23  N   UNL     1       1.332   0.290  -1.690  0.00  0.00    -0.304 N 
ATOM     24  C   UNL     1       1.344   1.718  -2.017  0.00  0.00    +0.132 C 
ATOM     25  C   UNL     1       2.581  -0.475  -1.706  0.00  0.00    +0.132 C 
ENDBRANCH   3  21
TORSDOF 3
