REMARK  Name = ZINC09235864
REMARK  7 active torsions:
REMARK  status: ('A' for Active; 'I' for Inactive)
REMARK    1  A    between atoms: C_1  and  C_2
REMARK    2  A    between atoms: C_8  and  C_10
REMARK    3  A    between atoms: C_10  and  S_11
REMARK    4  A    between atoms: S_11  and  C_12
REMARK    5  A    between atoms: C_15  and  C_18
REMARK    6  A    between atoms: N_16  and  C_17
REMARK    7  A    between atoms: C_23  and  O_24
REMARK                            x       y       z     vdW  Elec       q    Type
REMARK                         _______ _______ _______ _____ _____    ______ ____
ROOT
ATOM      1  C   UNL     1       0.055  -7.855   4.006  0.00  0.00    +0.192 A 
ATOM      2  N   UNL     1       0.209  -7.408   5.232  0.00  0.00    -0.122 NA
ATOM      3  N   UNL     1       0.272  -8.391   6.056  0.00  0.00    -0.128 NA
ATOM      4  C   UNL     1       0.163  -9.528   5.408  0.00  0.00    +0.168 A 
ATOM      5  N   UNL     1       0.016  -9.219   4.075  0.00  0.00    -0.305 N 
ATOM      6  C   UNL     1      -0.146 -10.158   2.962  0.00  0.00    +0.153 C 
ENDROOT
BRANCH   4   7
ATOM      7  C   UNL     1       0.189 -10.882   5.998  0.00  0.00    +0.062 A 
ATOM      8  C   UNL     1       0.986 -11.879   5.433  0.00  0.00    +0.030 A 
ATOM      9  C   UNL     1       1.005 -13.142   5.989  0.00  0.00    +0.019 A 
ATOM     10  C   UNL     1       0.236 -13.424   7.106  0.00  0.00    +0.019 A 
ATOM     11  C   UNL     1      -0.557 -12.444   7.674  0.00  0.00    +0.047 A 
ATOM     12  C   UNL     1      -0.583 -11.170   7.131  0.00  0.00    +0.128 A 
ATOM     13 BR   UNL     1       2.085 -14.492   5.223  0.00  0.00    -0.050 Br
BRANCH  12  14
ATOM     14  O   UNL     1      -1.357 -10.206   7.692  0.00  0.00    -0.506 OA
ATOM     15  H   UNL     1      -2.255 -10.165   7.335  0.00  0.00    +0.292 HD
ENDBRANCH  12  14
ENDBRANCH   4   7
BRANCH   1  16
ATOM     16  S   UNL     1      -0.081  -6.878   2.546  0.00  0.00    -0.077 S 
BRANCH  16  17
ATOM     17  C   UNL     1       0.048  -5.171   3.147  0.00  0.00    +0.173 C 
BRANCH  17  25
ATOM     18  C   UNL     1      -0.085   1.504   0.016  0.00  0.00    +0.066 C 
ATOM     19  C   UNL     1      -0.139  -0.002   0.012  0.00  0.00    +0.047 A 
ATOM     20  C   UNL     1      -0.298  -0.701  -1.138  0.00  0.00    +0.071 A 
ATOM     21  S   UNL     1      -0.283  -2.374  -0.514  0.00  0.00    -0.060 S 
ATOM     22  C   UNL     1      -0.079  -2.013   1.117  0.00  0.00    +0.165 A 
ATOM     23  N   UNL     1      -0.027  -0.698   1.128  0.00  0.00    -0.230 NA
ATOM     24  N   UNL     1       0.016  -2.890   2.191  0.00  0.00    -0.264 N 
ATOM     25  C   UNL     1      -0.055  -4.220   1.982  0.00  0.00    +0.229 C 
ATOM     26  O   UNL     1      -0.201  -4.651   0.858  0.00  0.00    -0.275 OA
ATOM     27  H   UNL     1       0.133  -2.546   3.090  0.00  0.00    +0.157 HD
ENDBRANCH  17  25
ENDBRANCH  16  17
ENDBRANCH   1  16
TORSDOF 5
