REMARK  Name = ZINC49389225
REMARK  4 active torsions:
REMARK  status: ('A' for Active; 'I' for Inactive)
REMARK    1  A    between atoms: C_6  and  N_7
REMARK    2  A    between atoms: N_10  and  C_13
REMARK    3  A    between atoms: C_13  and  C_14
REMARK    4  A    between atoms: N_16  and  C_17
REMARK                            x       y       z     vdW  Elec       q    Type
REMARK                         _______ _______ _______ _____ _____    ______ ____
ROOT
ATOM      1  N   UNL     1      -1.202  -0.721   0.009  0.00  0.00    -0.254 N 
ATOM      2  C   UNL     1      -2.544  -0.132   0.124  0.00  0.00    +0.134 C 
ATOM      3  C   UNL     1      -3.487  -1.349   0.080  0.00  0.00    +0.129 C 
ATOM      4  N   UNL     1      -2.576  -2.496  -0.055  0.00  0.00    -0.275 N 
ATOM      5  C   UNL     1      -1.313  -2.052  -0.092  0.00  0.00    +0.310 C 
ATOM      6  O   UNL     1      -0.354  -2.791  -0.204  0.00  0.00    -0.252 OA
ENDROOT
BRANCH   1  12
ATOM      7  C   UNL     1      -0.017   1.384  -0.005  0.00  0.00    +0.027 A 
ATOM      8  C   UNL     1       1.170   2.092  -0.013  0.00  0.00    +0.051 A 
ATOM      9  C   UNL     1       2.381   1.420  -0.013  0.00  0.00    +0.166 A 
ATOM     10  C   UNL     1       2.403   0.027  -0.006  0.00  0.00    +0.168 A 
ATOM     11  C   UNL     1       1.214  -0.682   0.002  0.00  0.00    +0.073 A 
ATOM     12  C   UNL     1       0.002  -0.004   0.002  0.00  0.00    +0.041 A 
ATOM     13  O   UNL     1       3.703  -0.388  -0.008  0.00  0.00    -0.453 OA
ATOM     14  C   UNL     1       4.472   0.754  -0.429  0.00  0.00    +0.466 C 
ATOM     15  O   UNL     1       3.668   1.877  -0.020  0.00  0.00    -0.453 OA
ENDBRANCH   1  12
BRANCH   4  16
ATOM     16  C   UNL     1      -2.986  -3.900  -0.141  0.00  0.00    +0.205 C 
BRANCH  16  17
ATOM     17  C   UNL     1      -3.199  -4.273  -1.585  0.00  0.00    +0.231 C 
ATOM     18  O   UNL     1      -3.026  -3.448  -2.457  0.00  0.00    -0.274 OA
ATOM     19  N   UNL     1      -3.582  -5.524  -1.908  0.00  0.00    -0.308 N 
ATOM     20  H   UNL     1      -3.720  -6.185  -1.211  0.00  0.00    +0.149 HD
BRANCH  19  21
ATOM     21  C   UNL     1      -3.790  -5.888  -3.312  0.00  0.00    +0.035 C 
ATOM     22  C   UNL     1      -4.882  -5.000  -3.913  0.00  0.00    +0.029 C 
ATOM     23  C   UNL     1      -5.099  -5.379  -5.379  0.00  0.00    -0.008 C 
ATOM     24  C   UNL     1      -5.527  -6.845  -5.469  0.00  0.00    +0.007 C 
ATOM     25  C   UNL     1      -4.434  -7.733  -4.869  0.00  0.00    -0.008 C 
ATOM     26  C   UNL     1      -4.217  -7.354  -3.402  0.00  0.00    +0.029 C 
ATOM     27  C   UNL     1      -3.131  -7.533  -5.645  0.00  0.00    +0.007 C 
ATOM     28  C   UNL     1      -2.704  -6.067  -5.555  0.00  0.00    -0.008 C 
ATOM     29  C   UNL     1      -3.796  -5.179  -6.155  0.00  0.00    +0.007 C 
ATOM     30  C   UNL     1      -2.487  -5.688  -4.089  0.00  0.00    +0.029 C 
ENDBRANCH  19  21
ENDBRANCH  16  17
ENDBRANCH   4  16
TORSDOF 4
