REMARK  Name = ZINC25408302
REMARK  12 active torsions:
REMARK  status: ('A' for Active; 'I' for Inactive)
REMARK    1  A    between atoms: C_1  and  C_2
REMARK    2  A    between atoms: N_5  and  C_11
REMARK    3  A    between atoms: C_7  and  C_10
REMARK    4  A    between atoms: C_11  and  C_12
REMARK    5  A    between atoms: C_11  and  C_13
REMARK    6  A    between atoms: C_11  and  C_14
REMARK    7  A    between atoms: C_14  and  N_15
REMARK    8  A    between atoms: C_16  and  C_18
REMARK    9  A    between atoms: C_18  and  S_19
REMARK   10  A    between atoms: S_19  and  C_20
REMARK   11  A    between atoms: C_23  and  C_31
REMARK   12  A    between atoms: N_24  and  C_25
REMARK                            x       y       z     vdW  Elec       q    Type
REMARK                         _______ _______ _______ _____ _____    ______ ____
ROOT
ATOM      1  S   UNL     1      -1.442   2.376   0.282  0.00  0.00    -0.076 S 
ENDROOT
BRANCH   1   2
ATOM      2  C   UNL     1      -0.014   1.358   0.111  0.00  0.00    +0.197 A 
ATOM      3  N   UNL     1       1.237   1.763   0.110  0.00  0.00    -0.122 NA
ATOM      4  N   UNL     1       2.026   0.760  -0.040  0.00  0.00    -0.128 NA
ATOM      5  C   UNL     1       1.330  -0.348  -0.145  0.00  0.00    +0.172 A 
ATOM      6  N   UNL     1       0.000  -0.000  -0.051  0.00  0.00    -0.270 N 
BRANCH   5   7
ATOM      7  C   UNL     1       1.871  -1.711  -0.329  0.00  0.00    +0.055 A 
ATOM      8  C   UNL     1       1.329  -2.556  -1.298  0.00  0.00    +0.014 A 
ATOM      9  C   UNL     1       1.838  -3.827  -1.465  0.00  0.00    +0.001 A 
ATOM     10  C   UNL     1       2.886  -4.266  -0.674  0.00  0.00    +0.003 A 
ATOM     11  C   UNL     1       3.430  -3.436   0.289  0.00  0.00    +0.039 A 
ATOM     12  C   UNL     1       2.933  -2.158   0.464  0.00  0.00    +0.134 A 
ATOM     13  F   UNL     1       3.468  -1.345   1.401  0.00  0.00    -0.205 F 
ENDBRANCH   5   7
BRANCH   6  14
ATOM     14  C   UNL     1      -1.106  -0.859  -0.111  0.00  0.00    +0.051 A 
ATOM     15  C   UNL     1      -1.320  -1.788   0.898  0.00  0.00    +0.026 A 
ATOM     16  C   UNL     1      -2.414  -2.629   0.839  0.00  0.00    +0.002 A 
ATOM     17  C   UNL     1      -3.290  -2.553  -0.228  0.00  0.00    +0.000 A 
ATOM     18  C   UNL     1      -3.077  -1.631  -1.237  0.00  0.00    +0.002 A 
ATOM     19  C   UNL     1      -1.988  -0.784  -1.181  0.00  0.00    +0.026 A 
ENDBRANCH   6  14
ENDBRANCH   1   2
BRANCH   1  20
ATOM     20  C   UNL     1      -0.654   3.998   0.448  0.00  0.00    +0.173 C 
BRANCH  20  22
ATOM     21  N   UNL     1      -1.359   6.349   0.752  0.00  0.00    -0.313 N 
ATOM     22  C   UNL     1      -1.714   5.056   0.611  0.00  0.00    +0.223 C 
ATOM     23  O   UNL     1      -2.886   4.745   0.615  0.00  0.00    -0.275 OA
ATOM     24  H   UNL     1      -0.296   6.631   0.749  0.00  0.00    +0.149 HD
BRANCH  21  25
ATOM     25  C   UNL     1      -2.390   7.378   0.911  0.00  0.00    +0.126 C 
BRANCH  25  26
ATOM     26  C   UNL     1      -1.724   8.749   1.051  0.00  0.00    +0.032 C 
ATOM     27  C   UNL     1      -2.800   9.824   1.216  0.00  0.00    +0.029 C 
ATOM     28  C   UNL     1      -0.810   8.749   2.278  0.00  0.00    +0.029 C 
BRANCH  26  32
ATOM     29  C   UNL     1      -1.753   9.198  -3.851  0.00  0.00    +0.039 C 
ATOM     30  C   UNL     1      -0.882   9.198  -2.593  0.00  0.00    +0.130 C 
ATOM     31  C   UNL     1      -1.760   8.955  -1.362  0.00  0.00    +0.116 C 
ATOM     32  N   UNL     1      -0.929   9.032  -0.151  0.00  0.00    -0.291 NA
ATOM     33  C   UNL     1      -0.273  10.344  -0.052  0.00  0.00    +0.116 C 
ATOM     34  C   UNL     1       0.590  10.573  -1.296  0.00  0.00    +0.130 C 
ATOM     35  O   UNL     1      -0.228  10.463  -2.464  0.00  0.00    -0.371 OA
ATOM     36  C   UNL     1       1.212  11.969  -1.236  0.00  0.00    +0.039 C 
ENDBRANCH  26  32
ENDBRANCH  25  26
ENDBRANCH  21  25
ENDBRANCH  20  22
ENDBRANCH   1  20
TORSDOF 8
