REMARK  Name = ZINC22053218
REMARK  4 active torsions:
REMARK  status: ('A' for Active; 'I' for Inactive)
REMARK    1  A    between atoms: C_4  and  O_12
REMARK    2  A    between atoms: C_5  and  C_7
REMARK    3  A    between atoms: C_7  and  C_10
REMARK    4  A    between atoms: N_8  and  O_9
REMARK                            x       y       z     vdW  Elec       q    Type
REMARK                         _______ _______ _______ _____ _____    ______ ____
ROOT
ATOM      1  C   UNL     1      -0.492   0.998  -1.067  0.00  0.00    +0.001 A 
ATOM      2  C   UNL     1       0.584   1.815  -1.369  0.00  0.00    +0.004 A 
ATOM      3  C   UNL     1       1.877   1.347  -1.235  0.00  0.00    +0.046 A 
ATOM      4  C   UNL     1       2.105   0.052  -0.796  0.00  0.00    +0.126 A 
ATOM      5  C   UNL     1       1.019  -0.778  -0.489  0.00  0.00    +0.042 A 
ATOM      6  C   UNL     1      -0.283  -0.293  -0.629  0.00  0.00    +0.013 A 
ENDROOT
BRANCH   5   7
ATOM      7  C   UNL     1       1.249  -2.158  -0.022  0.00  0.00    +0.101 C 
ATOM      8  N   UNL     1       2.457  -2.605   0.106  0.00  0.00    -0.091 NA
BRANCH   8   9
ATOM      9  O   UNL     1       2.679  -3.975   0.387  0.00  0.00    -0.409 OA
ATOM     10  H   UNL     1       3.613  -4.214   0.465  0.00  0.00    +0.328 HD
ENDBRANCH   8   9
BRANCH   7  11
ATOM     11  C   UNL     1       0.078  -3.048   0.307  0.00  0.00    +0.139 C 
ATOM     12 BR   UNL     1       0.637  -4.413   1.607  0.00  0.00    -0.085 Br
ENDBRANCH   7  11
ENDBRANCH   5   7
BRANCH   4  13
ATOM     13  O   UNL     1       3.375  -0.410  -0.665  0.00  0.00    -0.506 OA
ATOM     14  H   UNL     1       3.760  -0.258   0.209  0.00  0.00    +0.292 HD
ENDBRANCH   4  13
TORSDOF 4
