REMARK  Name = ZINC00113802
REMARK  3 active torsions:
REMARK  status: ('A' for Active; 'I' for Inactive)
REMARK    1  A    between atoms: N_9  and  C_19
REMARK    2  A    between atoms: C_10  and  C_12
REMARK    3  A    between atoms: C_24  and  O_25
REMARK                            x       y       z     vdW  Elec       q    Type
REMARK                         _______ _______ _______ _____ _____    ______ ____
ROOT
ATOM      1  C   UNL     1      -1.213  -1.757  -1.202  0.00  0.00    +0.001 A 
ATOM      2  C   UNL     1      -0.130  -2.000  -2.037  0.00  0.00    +0.002 A 
ATOM      3  C   UNL     1       1.021  -1.272  -1.927  0.00  0.00    +0.028 A 
ATOM      4  C   UNL     1       1.116  -0.265  -0.961  0.00  0.00    +0.079 A 
ATOM      5  C   UNL     1       0.014  -0.016  -0.111  0.00  0.00    +0.065 A 
ATOM      6  C   UNL     1      -1.150  -0.771  -0.241  0.00  0.00    +0.015 A 
ATOM      7  C   UNL     1       0.140   1.048   0.896  0.00  0.00    +0.267 A 
ATOM      8  O   UNL     1      -0.776   1.312   1.653  0.00  0.00    -0.267 OA
ATOM      9  N   UNL     1       1.310   1.726   0.945  0.00  0.00    -0.257 N 
ATOM     10  C   UNL     1       2.327   1.417   0.081  0.00  0.00    +0.150 A 
ATOM     11  N   UNL     1       2.235   0.474  -0.822  0.00  0.00    -0.228 NA
ENDROOT
BRANCH  10  12
ATOM     12  C   UNL     1       3.586   2.184   0.172  0.00  0.00    +0.036 A 
ATOM     13  C   UNL     1       3.567   3.577   0.086  0.00  0.00    +0.013 A 
ATOM     14  C   UNL     1       4.746   4.287   0.173  0.00  0.00    +0.001 A 
ATOM     15  C   UNL     1       5.948   3.622   0.345  0.00  0.00    +0.001 A 
ATOM     16  C   UNL     1       5.976   2.242   0.431  0.00  0.00    +0.021 A 
ATOM     17  C   UNL     1       4.802   1.519   0.351  0.00  0.00    +0.052 A 
ATOM     18 CL   UNL     1       4.837  -0.213   0.466  0.00  0.00    -0.083 Cl
ENDBRANCH  10  12
BRANCH   9  19
ATOM     19  C   UNL     1       1.483   2.750   1.886  0.00  0.00    +0.093 A 
ATOM     20  C   UNL     1       2.137   2.493   3.082  0.00  0.00    +0.030 A 
ATOM     21  C   UNL     1       2.311   3.506   4.006  0.00  0.00    +0.002 A 
ATOM     22  C   UNL     1       1.825   4.774   3.746  0.00  0.00    +0.004 A 
ATOM     23  C   UNL     1       1.167   5.036   2.559  0.00  0.00    +0.047 A 
ATOM     24  C   UNL     1       0.993   4.028   1.625  0.00  0.00    +0.141 A 
BRANCH  24  25
ATOM     25  O   UNL     1       0.346   4.284   0.457  0.00  0.00    -0.505 OA
ATOM     26  H   UNL     1      -0.609   4.141   0.497  0.00  0.00    +0.292 HD
ENDBRANCH  24  25
ENDBRANCH   9  19
TORSDOF 3
