REMARK  Name = ZINC39599743
REMARK  7 active torsions:
REMARK  status: ('A' for Active; 'I' for Inactive)
REMARK    1  A    between atoms: C_1  and  C_2
REMARK    2  A    between atoms: C_4  and  C_9
REMARK    3  A    between atoms: C_13  and  C_22
REMARK    4  A    between atoms: N_24  and  C_25
REMARK    5  A    between atoms: C_25  and  C_26
REMARK    6  A    between atoms: C_29  and  O_32
REMARK    7  A    between atoms: O_32  and  C_33
REMARK                            x       y       z     vdW  Elec       q    Type
REMARK                         _______ _______ _______ _____ _____    ______ ____
ROOT
ATOM      1  C   UNL     1       0.026  -2.818  -2.491  0.00  0.00    +0.247 C 
ATOM      2  O   UNL     1      -0.097  -2.217  -3.540  0.00  0.00    -0.270 OA
ATOM      3  N   UNL     1       0.148  -4.161  -2.494  0.00  0.00    -0.296 N 
ATOM      4  C   UNL     1       0.178  -5.073  -1.326  0.00  0.00    +0.121 C 
ATOM      5  C   UNL     1      -0.643  -6.303  -1.771  0.00  0.00    +0.100 C 
ATOM      6  C   UNL     1      -0.571  -6.290  -3.307  0.00  0.00    -0.004 C 
ATOM      7  C   UNL     1       0.274  -5.059  -3.667  0.00  0.00    +0.115 C 
ATOM      8  C   UNL     1       0.102  -7.561  -3.816  0.00  0.00    -0.010 C 
ATOM      9  C   UNL     1       0.110  -7.551  -5.347  0.00  0.00    -0.082 C 
ATOM     10  N   UNL     1      -1.269  -7.470  -5.845  0.00  0.00    +0.379 N 
ATOM     11  C   UNL     1      -1.878  -6.201  -5.428  0.00  0.00    -0.082 C 
ATOM     12  C   UNL     1      -1.970  -6.154  -3.900  0.00  0.00    -0.010 C 
ATOM     13  H   UNL     1      -1.265  -7.525  -6.852  0.00  0.00    -0.086 HD
ATOM     14  H   UNL     1      -1.806  -8.238  -5.471  0.00  0.00    -0.086 HD
ENDROOT
BRANCH   1  18
ATOM     15  C   UNL     1      -1.211   1.210   0.179  0.00  0.00    +0.047 C 
ATOM     16  C   UNL     1      -0.551  -0.141   0.077  0.00  0.00    -0.015 A 
ATOM     17  C   UNL     1      -0.569  -0.827  -1.119  0.00  0.00    +0.019 A 
ATOM     18  C   UNL     1       0.043  -2.078  -1.212  0.00  0.00    +0.037 A 
ATOM     19  C   UNL     1       0.672  -2.628  -0.093  0.00  0.00    +0.016 A 
ATOM     20  C   UNL     1       0.685  -1.933   1.098  0.00  0.00    +0.039 A 
ATOM     21  C   UNL     1       0.080  -0.689   1.183  0.00  0.00    +0.126 A 
ATOM     22  F   UNL     1       0.100  -0.010   2.351  0.00  0.00    -0.205 F 
ENDBRANCH   1  18
BRANCH   5  23
ATOM     23  C   UNL     1      -2.072  -6.175  -1.309  0.00  0.00    +0.218 C 
ATOM     24  O   UNL     1      -2.602  -5.085  -1.274  0.00  0.00    -0.275 OA
ATOM     25  N   UNL     1      -2.760  -7.272  -0.935  0.00  0.00    -0.311 N 
ATOM     26  H   UNL     1      -2.336  -8.144  -0.963  0.00  0.00    +0.149 HD
BRANCH  25  27
ATOM     27  C   UNL     1      -4.149  -7.147  -0.486  0.00  0.00    +0.139 C 
BRANCH  27  28
ATOM     28  C   UNL     1      -4.686  -8.509  -0.129  0.00  0.00    -0.030 A 
ATOM     29  C   UNL     1      -5.304  -9.283  -1.094  0.00  0.00    +0.009 A 
ATOM     30  C   UNL     1      -5.797 -10.532  -0.769  0.00  0.00    +0.046 A 
ATOM     31  C   UNL     1      -5.671 -11.010   0.528  0.00  0.00    +0.130 A 
ATOM     32  C   UNL     1      -5.050 -10.232   1.494  0.00  0.00    +0.046 A 
ATOM     33  C   UNL     1      -4.554  -8.986   1.162  0.00  0.00    +0.009 A 
BRANCH  31  34
ATOM     34  O   UNL     1      -6.156 -12.238   0.850  0.00  0.00    -0.406 OA
BRANCH  34  35
ATOM     35  C   UNL     1      -5.991 -12.665   2.204  0.00  0.00    +0.575 C 
ATOM     36  F   UNL     1      -6.640 -11.768   3.059  0.00  0.00    -0.133 F 
ATOM     37  F   UNL     1      -6.542 -13.941   2.360  0.00  0.00    -0.133 F 
ATOM     38  F   UNL     1      -4.628 -12.704   2.518  0.00  0.00    -0.133 F 
ENDBRANCH  34  35
ENDBRANCH  31  34
ENDBRANCH  27  28
ENDBRANCH  25  27
ENDBRANCH   5  23
TORSDOF 6
