REMARK  Name = ZINC21022483
REMARK  10 active torsions:
REMARK  status: ('A' for Active; 'I' for Inactive)
REMARK    1  A    between atoms: C_1  and  C_2
REMARK    2  A    between atoms: C_8  and  S_28
REMARK    3  A    between atoms: C_12  and  C_14
REMARK    4  A    between atoms: N_16  and  C_17
REMARK    5  A    between atoms: C_17  and  C_18
REMARK    6  A    between atoms: C_18  and  N_19
REMARK    7  A    between atoms: N_19  and  C_20
REMARK    8  A    between atoms: N_19  and  C_21
REMARK    9  A    between atoms: C_21  and  C_22
REMARK   10  A    between atoms: S_28  and  N_31
REMARK                            x       y       z     vdW  Elec       q    Type
REMARK                         _______ _______ _______ _____ _____    ______ ____
ROOT
ATOM      1  C   UNL     1      -3.209  -1.280   6.862  0.00  0.00    +0.109 C 
ATOM      2  C   UNL     1      -2.811  -0.646   8.170  0.00  0.00    +0.217 C 
ATOM      3  O   UNL     1      -3.554  -0.711   9.126  0.00  0.00    -0.276 OA
ATOM      4  N   UNL     1      -1.628  -0.008   8.277  0.00  0.00    -0.259 N 
ATOM      5  C   UNL     1      -1.194   0.689   9.409  0.00  0.00    +0.040 A 
ATOM      6  C   UNL     1      -1.839   0.882  10.632  0.00  0.00    +0.026 A 
ATOM      7  C   UNL     1      -1.231   1.610  11.632  0.00  0.00    +0.030 A 
ATOM      8  C   UNL     1       0.024   2.155  11.431  0.00  0.00    +0.106 A 
ATOM      9  C   UNL     1       0.670   1.969  10.223  0.00  0.00    +0.034 A 
ATOM     10  C   UNL     1       0.064   1.240   9.218  0.00  0.00    -0.022 A 
ATOM     11  C   UNL     1       0.538   0.887   7.824  0.00  0.00    +0.069 C 
ATOM     12  C   UNL     1      -0.611   0.058   7.225  0.00  0.00    +0.171 C 
ENDROOT
BRANCH  12  13
ATOM     13  C   UNL     1      -1.166   0.742   6.002  0.00  0.00    +0.234 C 
ATOM     14  O   UNL     1      -2.174   1.412   6.087  0.00  0.00    -0.274 OA
ATOM     15  N   UNL     1      -0.544   0.608   4.814  0.00  0.00    -0.316 N 
ATOM     16  H   UNL     1       0.370   0.001   4.737  0.00  0.00    +0.149 HD
BRANCH  15  17
ATOM     17  C   UNL     1      -1.084   1.273   3.626  0.00  0.00    +0.086 C 
BRANCH  17  18
ATOM     18  C   UNL     1      -0.196   0.962   2.419  0.00  0.00    -0.060 C 
BRANCH  18  19
ATOM     19  N   UNL     1      -0.737   1.628   1.228  0.00  0.00    +0.382 N 
ATOM     20  C   UNL     1      -0.652   3.089   1.357  0.00  0.00    -0.096 C 
ATOM     21  H   UNL     1      -1.800   1.358   1.143  0.00  0.00    -0.082 HD
BRANCH  19  22
ATOM     22  C   UNL     1      -0.056   1.166   0.011  0.00  0.00    -0.043 C 
BRANCH  22  23
ATOM     23  C   UNL     1      -0.791   1.677  -1.201  0.00  0.00    -0.064 A 
ATOM     24  C   UNL     1      -1.802   0.921  -1.766  0.00  0.00    +0.002 A 
ATOM     25  C   UNL     1      -2.480   1.392  -2.875  0.00  0.00    +0.000 A 
ATOM     26  C   UNL     1      -2.140   2.613  -3.426  0.00  0.00    +0.000 A 
ATOM     27  C   UNL     1      -1.125   3.366  -2.865  0.00  0.00    +0.000 A 
ATOM     28  C   UNL     1      -0.451   2.898  -1.752  0.00  0.00    +0.002 A 
ENDBRANCH  22  23
ENDBRANCH  19  22
ENDBRANCH  18  19
ENDBRANCH  17  18
ENDBRANCH  15  17
ENDBRANCH  12  13
BRANCH   8  29
ATOM     29  S   UNL     1       0.799   3.084  12.712  0.00  0.00    +0.061 S 
ATOM     30  O   UNL     1       1.735   3.946  12.080  0.00  0.00    -0.153 OA
ATOM     31  O   UNL     1      -0.243   3.572  13.547  0.00  0.00    -0.153 OA
BRANCH  29  32
ATOM     32  N   UNL     1       1.678   2.019  13.627  0.00  0.00    -0.177 NA
ATOM     33  C   UNL     1       1.186   1.294  14.807  0.00  0.00    +0.109 C 
ATOM     34  C   UNL     1       2.356   0.442  15.342  0.00  0.00    +0.018 C 
ATOM     35  C   UNL     1       3.602   1.173  14.777  0.00  0.00    +0.018 C 
ATOM     36  C   UNL     1       3.085   1.646  13.395  0.00  0.00    +0.109 C 
ENDBRANCH  29  32
ENDBRANCH   8  29
TORSDOF 8
