REMARK  Name = ZINC01436931
REMARK  11 active torsions:
REMARK  status: ('A' for Active; 'I' for Inactive)
REMARK    1  A    between atoms: C_1  and  C_2
REMARK    2  A    between atoms: C_2  and  C_3
REMARK    3  A    between atoms: C_3  and  S_4
REMARK    4  A    between atoms: S_4  and  C_7
REMARK    5  A    between atoms: C_9  and  C_31
REMARK    6  A    between atoms: C_14  and  C_22
REMARK    7  A    between atoms: C_15  and  S_16
REMARK    8  A    between atoms: S_16  and  C_19
REMARK    9  A    between atoms: C_19  and  C_20
REMARK   10  A    between atoms: C_20  and  C_21
REMARK   11  A    between atoms: C_22  and  C_24
REMARK                            x       y       z     vdW  Elec       q    Type
REMARK                         _______ _______ _______ _____ _____    ______ ____
ROOT
ATOM      1  C   UNL     1      -3.063  -2.380   0.128  0.00  0.00    +0.139 A 
ATOM      2  C   UNL     1      -3.839  -2.850   1.183  0.00  0.00    +0.086 A 
ATOM      3  C   UNL     1      -3.498  -3.285   2.491  0.00  0.00    +0.062 A 
ATOM      4  C   UNL     1      -4.512  -3.709   3.343  0.00  0.00    +0.016 A 
ATOM      5  C   UNL     1      -5.833  -3.696   2.890  0.00  0.00    +0.019 A 
ATOM      6  C   UNL     1      -6.126  -3.276   1.637  0.00  0.00    +0.092 A 
ATOM      7  N   UNL     1      -5.150  -2.856   0.785  0.00  0.00    -0.309 N 
ATOM      8  C   UNL     1      -5.207  -2.392  -0.515  0.00  0.00    +0.121 A 
ATOM      9  C   UNL     1      -3.913  -2.089  -0.923  0.00  0.00    +0.142 A 
ENDROOT
BRANCH   3  10
ATOM     10  C   UNL     1      -2.095  -3.287   2.938  0.00  0.00    +0.244 C 
ATOM     11  O   UNL     1      -1.556  -2.244   3.256  0.00  0.00    -0.270 OA
ATOM     12  N   UNL     1      -1.407  -4.445   2.994  0.00  0.00    -0.325 N 
ATOM     13  H   UNL     1      -1.811  -5.265   2.670  0.00  0.00    +0.145 HD
ATOM     14  H   UNL     1      -0.508  -4.458   3.359  0.00  0.00    +0.145 HD
ENDBRANCH   3  10
BRANCH   1  15
ATOM     15  S   UNL     1      -1.312  -2.182   0.134  0.00  0.00    +0.001 S 
ATOM     16  O   UNL     1      -0.955  -2.070  -1.237  0.00  0.00    -0.169 OA
ATOM     17  O   UNL     1      -0.828  -3.260   0.923  0.00  0.00    -0.169 OA
BRANCH  15  18
ATOM     18  C   UNL     1      -1.024  -0.606   0.985  0.00  0.00    +0.172 C 
BRANCH  18  20
ATOM     19  C   UNL     1       0.723   1.001   1.767  0.00  0.00    +0.005 C 
ATOM     20  C   UNL     1       0.479  -0.329   1.049  0.00  0.00    +0.020 C 
ENDBRANCH  18  20
ENDBRANCH  15  18
ENDBRANCH   1  15
BRANCH   9  21
ATOM     21  S   UNL     1      -3.441  -1.455  -2.498  0.00  0.00    +0.001 S 
ATOM     22  O   UNL     1      -4.658  -1.037  -3.100  0.00  0.00    -0.169 OA
ATOM     23  O   UNL     1      -2.412  -0.516  -2.216  0.00  0.00    -0.169 OA
BRANCH  21  24
ATOM     24  C   UNL     1      -2.760  -2.880  -3.390  0.00  0.00    +0.172 C 
BRANCH  24  25
ATOM     25  C   UNL     1      -2.312  -2.442  -4.785  0.00  0.00    +0.020 C 
ATOM     26  C   UNL     1      -1.738  -3.644  -5.538  0.00  0.00    +0.005 C 
ENDBRANCH  24  25
ENDBRANCH  21  24
ENDBRANCH   9  21
BRANCH   8  27
ATOM     27  C   UNL     1      -6.379  -2.244  -1.292  0.00  0.00    +0.212 C 
ATOM     28  O   UNL     1      -6.954  -1.170  -1.330  0.00  0.00    -0.285 OA
BRANCH  27  29
ATOM     29  C   UNL     1      -6.907  -3.393  -2.059  0.00  0.00    +0.024 A 
ATOM     30  C   UNL     1      -6.318  -4.653  -1.928  0.00  0.00    +0.014 A 
ATOM     31  C   UNL     1      -6.814  -5.720  -2.645  0.00  0.00    +0.039 A 
ATOM     32  C   UNL     1      -7.895  -5.545  -3.495  0.00  0.00    +0.123 A 
ATOM     33  C   UNL     1      -8.483  -4.296  -3.630  0.00  0.00    +0.039 A 
ATOM     34  C   UNL     1      -7.999  -3.224  -2.912  0.00  0.00    +0.014 A 
ATOM     35  F   UNL     1      -8.377  -6.595  -4.196  0.00  0.00    -0.205 F 
ENDBRANCH  27  29
ENDBRANCH   8  27
TORSDOF 9
