REMARK  Name = ZINC09691845
REMARK  9 active torsions:
REMARK  status: ('A' for Active; 'I' for Inactive)
REMARK    1  A    between atoms: C_1  and  C_2
REMARK    2  A    between atoms: C_3  and  C_7
REMARK    3  A    between atoms: C_10  and  S_13
REMARK    4  A    between atoms: N_11  and  C_12
REMARK    5  A    between atoms: S_13  and  C_14
REMARK    6  A    between atoms: C_14  and  C_15
REMARK    7  A    between atoms: N_17  and  C_18
REMARK    8  A    between atoms: C_23  and  C_24
REMARK    9  A    between atoms: N_26  and  C_27
REMARK                            x       y       z     vdW  Elec       q    Type
REMARK                         _______ _______ _______ _____ _____    ______ ____
ROOT
ATOM      1  C   UNL     1      -5.898   1.956   0.274  0.00  0.00    +0.228 C 
ATOM      2  O   UNL     1      -5.870   1.151  -0.633  0.00  0.00    -0.275 OA
ATOM      3  N   UNL     1      -6.930   2.816   0.380  0.00  0.00    -0.284 N 
ATOM      4  H   UNL     1      -6.926   3.495   1.072  0.00  0.00    +0.155 HD
ENDROOT
BRANCH   3   5
ATOM      5  C   UNL     1      -8.003   2.729  -0.503  0.00  0.00    +0.046 A 
ATOM      6  C   UNL     1      -7.789   2.375  -1.829  0.00  0.00    +0.024 A 
ATOM      7  C   UNL     1      -8.854   2.289  -2.703  0.00  0.00    +0.002 A 
ATOM      8  C   UNL     1     -10.142   2.555  -2.267  0.00  0.00    +0.001 A 
ATOM      9  C   UNL     1     -10.374   2.908  -0.955  0.00  0.00    +0.015 A 
ATOM     10  C   UNL     1      -9.307   2.993  -0.057  0.00  0.00    +0.058 A 
BRANCH  10  11
ATOM     11  C   UNL     1      -9.549   3.363   1.350  0.00  0.00    +0.246 C 
ATOM     12  O   UNL     1      -8.610   3.526   2.106  0.00  0.00    -0.270 OA
ATOM     13  N   UNL     1     -10.810   3.522   1.798  0.00  0.00    -0.308 N 
ATOM     14  H   UNL     1     -11.559   3.392   1.195  0.00  0.00    +0.149 HD
BRANCH  13  15
ATOM     15  C   UNL     1     -11.050   3.889   3.195  0.00  0.00    +0.073 C 
ATOM     16  C   UNL     1     -11.131   2.621   4.069  0.00  0.00    +0.022 C 
ATOM     17  C   UNL     1     -12.230   2.946   5.111  0.00  0.00    +0.002 C 
ATOM     18  C   UNL     1     -13.267   3.740   4.277  0.00  0.00    +0.002 C 
ATOM     19  C   UNL     1     -12.408   4.601   3.327  0.00  0.00    +0.022 C 
ENDBRANCH  13  15
ENDBRANCH  10  11
ENDBRANCH   3   5
BRANCH   1  20
ATOM     20  C   UNL     1      -4.779   1.993   1.282  0.00  0.00    +0.173 C 
BRANCH  20  21
ATOM     21  S   UNL     1      -3.554   0.726   0.871  0.00  0.00    -0.077 S 
BRANCH  21  25
ATOM     22  C   UNL     1      -0.661   0.851   3.495  0.00  0.00    +0.168 A 
ATOM     23  N   UNL     1      -1.466   1.802   3.906  0.00  0.00    -0.128 NA
ATOM     24  N   UNL     1      -2.487   1.880   3.130  0.00  0.00    -0.122 NA
ATOM     25  C   UNL     1      -2.394   0.987   2.171  0.00  0.00    +0.192 A 
ATOM     26  N   UNL     1      -1.232   0.296   2.373  0.00  0.00    -0.305 N 
ATOM     27  C   UNL     1      -0.702  -0.801   1.560  0.00  0.00    +0.153 C 
BRANCH  22  30
ATOM     28  C   UNL     1       1.543   2.779   4.613  0.00  0.00    +0.087 C 
ATOM     29  C   UNL     1       1.585   1.272   4.609  0.00  0.00    +0.112 A 
ATOM     30  C   UNL     1       0.618   0.450   4.120  0.00  0.00    +0.060 A 
ATOM     31  C   UNL     1       1.111  -0.916   4.333  0.00  0.00    +0.053 A 
ATOM     32  C   UNL     1       2.309  -0.789   4.928  0.00  0.00    +0.196 A 
ATOM     33  O   UNL     1       2.581   0.514   5.091  0.00  0.00    -0.467 OA
ENDBRANCH  22  30
ENDBRANCH  21  25
ENDBRANCH  20  21
ENDBRANCH   1  20
TORSDOF 7
