REMARK  Name = ZINC48706790
REMARK  5 active torsions:
REMARK  status: ('A' for Active; 'I' for Inactive)
REMARK    1  A    between atoms: C_1  and  C_2
REMARK    2  A    between atoms: C_7  and  C_11
REMARK    3  A    between atoms: C_11  and  N_12
REMARK    4  A    between atoms: N_12  and  C_13
REMARK    5  A    between atoms: C_14  and  C_19
REMARK                            x       y       z     vdW  Elec       q    Type
REMARK                         _______ _______ _______ _____ _____    ______ ____
ROOT
ATOM      1  C   UNL     1      -0.018   1.503   0.010  0.00  0.00    +0.044 C 
ATOM      2  C   UNL     1       0.002  -0.004   0.002  0.00  0.00    -0.046 A 
ATOM      3  C   UNL     1       0.006  -0.703  -1.216  0.00  0.00    +0.021 A 
ATOM      4  C   UNL     1       0.025  -2.052  -1.227  0.00  0.00    +0.093 A 
ATOM      5  N   UNL     1       0.040  -2.757  -0.058  0.00  0.00    -0.308 N 
ATOM      6  C   UNL     1       0.059  -4.097   0.214  0.00  0.00    +0.115 A 
ATOM      7  C   UNL     1       0.067  -4.231   1.559  0.00  0.00    +0.051 A 
ATOM      8  N   UNL     1       0.053  -3.014   2.108  0.00  0.00    -0.342 N 
ATOM      9  C   UNL     1       0.036  -2.103   1.146  0.00  0.00    +0.116 A 
ATOM     10  C   UNL     1       0.023  -0.694   1.174  0.00  0.00    +0.048 A 
ATOM     11  H   UNL     1       0.055  -2.827   3.060  0.00  0.00    +0.167 HD
ENDROOT
BRANCH   7  12
ATOM     12  C   UNL     1       0.087  -5.536   2.312  0.00  0.00    +0.157 C 
BRANCH  12  13
ATOM     13  N   UNL     1       1.469  -5.880   2.655  0.00  0.00    -0.331 N 
ATOM     14  H   UNL     1       2.195  -5.293   2.393  0.00  0.00    +0.147 HD
BRANCH  13  15
ATOM     15  C   UNL     1       1.739  -7.043   3.353  0.00  0.00    +0.105 A 
ATOM     16  C   UNL     1       2.974  -7.538   3.774  0.00  0.00    +0.118 A 
ATOM     17  C   UNL     1       2.902  -8.751   4.462  0.00  0.00    +0.157 A 
ATOM     18  N   UNL     1       1.721  -9.274   4.633  0.00  0.00    -0.196 NA
ATOM     19  S   UNL     1       0.662  -8.203   3.909  0.00  0.00    +0.029 S 
ATOM     20 CL   UNL     1       4.331  -9.530   5.067  0.00  0.00    -0.060 Cl
BRANCH  16  21
ATOM     21  C   UNL     1       4.210  -6.861   3.520  0.00  0.00    +0.105 C 
ATOM     22  N   UNL     1       5.191  -6.324   3.319  0.00  0.00    -0.191 NA
ENDBRANCH  16  21
ENDBRANCH  13  15
ENDBRANCH  12  13
ENDBRANCH   7  12
TORSDOF 4
