REMARK  Name = ZINC39600188
REMARK  7 active torsions:
REMARK  status: ('A' for Active; 'I' for Inactive)
REMARK    1  A    between atoms: C_4  and  C_7
REMARK    2  A    between atoms: C_7  and  C_8
REMARK    3  A    between atoms: C_8  and  C_9
REMARK    4  A    between atoms: C_13  and  C_22
REMARK    5  A    between atoms: N_24  and  C_25
REMARK    6  A    between atoms: C_25  and  C_26
REMARK    7  A    between atoms: C_28  and  C_33
REMARK                            x       y       z     vdW  Elec       q    Type
REMARK                         _______ _______ _______ _____ _____    ______ ____
ROOT
ATOM      1  C   UNL     1       5.312  -1.472   1.514  0.00  0.00    +0.216 C 
ATOM      2  O   UNL     1       5.770  -1.690   0.412  0.00  0.00    -0.276 OA
ATOM      3  N   UNL     1       5.973  -1.887   2.613  0.00  0.00    -0.300 N 
ATOM      4  C   UNL     1       5.573  -1.722   4.030  0.00  0.00    +0.121 C 
ATOM      5  C   UNL     1       5.966  -3.055   4.705  0.00  0.00    +0.100 C 
ATOM      6  C   UNL     1       7.078  -3.632   3.813  0.00  0.00    -0.004 C 
ATOM      7  C   UNL     1       7.262  -2.616   2.677  0.00  0.00    +0.115 C 
ATOM      8  C   UNL     1       6.651  -4.981   3.243  0.00  0.00    -0.010 C 
ATOM      9  C   UNL     1       7.795  -5.562   2.407  0.00  0.00    -0.082 C 
ATOM     10  N   UNL     1       8.988  -5.719   3.248  0.00  0.00    +0.379 N 
ATOM     11  C   UNL     1       9.446  -4.406   3.717  0.00  0.00    -0.082 C 
ATOM     12  C   UNL     1       8.372  -3.776   4.609  0.00  0.00    -0.010 C 
ATOM     13  H   UNL     1       8.763  -6.299   4.043  0.00  0.00    -0.086 HD
ATOM     14  H   UNL     1       9.721  -6.158   2.711  0.00  0.00    -0.086 HD
ENDROOT
BRANCH   5  15
ATOM     15  C   UNL     1       4.786  -3.990   4.748  0.00  0.00    +0.218 C 
ATOM     16  O   UNL     1       3.937  -3.935   3.883  0.00  0.00    -0.275 OA
ATOM     17  N   UNL     1       4.672  -4.887   5.747  0.00  0.00    -0.311 N 
ATOM     18  H   UNL     1       5.351  -4.931   6.439  0.00  0.00    +0.149 HD
BRANCH  17  19
ATOM     19  C   UNL     1       3.525  -5.797   5.788  0.00  0.00    +0.139 C 
BRANCH  19  20
ATOM     20  C   UNL     1       3.636  -6.692   6.996  0.00  0.00    -0.027 A 
ATOM     21  C   UNL     1       4.302  -7.899   6.901  0.00  0.00    +0.017 A 
ATOM     22  C   UNL     1       4.405  -8.721   8.008  0.00  0.00    +0.058 A 
ATOM     23  C   UNL     1       3.842  -8.337   9.210  0.00  0.00    +0.050 A 
ATOM     24  C   UNL     1       3.174  -7.128   9.306  0.00  0.00    +0.124 A 
ATOM     25  C   UNL     1       3.077  -6.302   8.198  0.00  0.00    +0.043 A 
ATOM     26  F   UNL     1       2.623  -6.751  10.480  0.00  0.00    -0.205 F 
BRANCH  22  27
ATOM     27  C   UNL     1       5.132 -10.037   7.904  0.00  0.00    +0.418 C 
ATOM     28  F   UNL     1       6.484  -9.849   8.209  0.00  0.00    -0.166 F 
ATOM     29  F   UNL     1       4.573 -10.951   8.804  0.00  0.00    -0.166 F 
ATOM     30  F   UNL     1       5.013 -10.534   6.601  0.00  0.00    -0.166 F 
ENDBRANCH  22  27
ENDBRANCH  19  20
ENDBRANCH  17  19
ENDBRANCH   5  15
BRANCH   1  31
ATOM     31  C   UNL     1       4.003  -0.739   1.654  0.00  0.00    +0.100 C 
BRANCH  31  32
ATOM     32  C   UNL     1       3.466  -0.384   0.266  0.00  0.00    +0.044 C 
BRANCH  32  36
ATOM     33  C   UNL     1      -0.244   1.695   0.661  0.00  0.00    +0.000 A 
ATOM     34  C   UNL     1       0.944   2.401   0.637  0.00  0.00    +0.000 A 
ATOM     35  C   UNL     1       2.145   1.728   0.510  0.00  0.00    +0.003 A 
ATOM     36  C   UNL     1       2.157   0.350   0.406  0.00  0.00    -0.047 A 
ATOM     37  C   UNL     1       0.969  -0.356   0.431  0.00  0.00    +0.003 A 
ATOM     38  C   UNL     1      -0.232   0.317   0.557  0.00  0.00    +0.000 A 
ENDBRANCH  32  36
ENDBRANCH  31  32
ENDBRANCH   1  31
TORSDOF 7
