REMARK  Name = ZINC14457737
REMARK  6 active torsions:
REMARK  status: ('A' for Active; 'I' for Inactive)
REMARK    1  A    between atoms: C_1  and  C_2
REMARK    2  A    between atoms: C_5  and  O_27
REMARK    3  A    between atoms: C_15  and  C_18
REMARK    4  A    between atoms: C_19  and  C_26
REMARK    5  A    between atoms: C_21  and  C_25
REMARK    6  A    between atoms: C_23  and  C_24
REMARK                            x       y       z     vdW  Elec       q    Type
REMARK                         _______ _______ _______ _____ _____    ______ ____
ROOT
ATOM      1  C   UNL     1      -1.755   2.046   4.173  0.00  0.00    +0.044 C 
ATOM      2  C   UNL     1      -2.991   2.906   4.212  0.00  0.00    -0.045 A 
ATOM      3  C   UNL     1      -3.212   3.736   5.292  0.00  0.00    +0.007 A 
ATOM      4  C   UNL     1      -4.344   4.529   5.337  0.00  0.00    +0.047 A 
ATOM      5  C   UNL     1      -5.253   4.486   4.295  0.00  0.00    +0.138 A 
ATOM      6  C   UNL     1      -5.029   3.646   3.200  0.00  0.00    +0.074 A 
ATOM      7  C   UNL     1      -3.895   2.861   3.156  0.00  0.00    -0.013 A 
ATOM      8  C   UNL     1      -3.568   1.937   1.995  0.00  0.00    +0.049 C 
ATOM      9  C   UNL     1      -3.567   0.517   2.538  0.00  0.00    -0.023 C 
ATOM     10  C   UNL     1      -4.730  -0.050   2.341  0.00  0.00    -0.030 C 
ATOM     11  C   UNL     1      -5.687   0.901   1.619  0.00  0.00    +0.033 C 
ATOM     12  C   UNL     1      -4.721   1.923   0.971  0.00  0.00    +0.029 C 
ATOM     13  C   UNL     1      -5.378   3.291   0.885  0.00  0.00    +0.105 C 
ATOM     14  N   UNL     1      -5.979   3.639   2.174  0.00  0.00    -0.334 N 
ATOM     15  H   UNL     1      -6.460   4.524   2.121  0.00  0.00    +0.147 HD
ENDROOT
BRANCH  13  16
ATOM     16  C   UNL     1      -4.340   4.322   0.522  0.00  0.00    -0.021 A 
ATOM     17  C   UNL     1      -4.495   5.633   0.933  0.00  0.00    -0.045 A 
ATOM     18  C   UNL     1      -3.541   6.577   0.605  0.00  0.00    +0.007 A 
ATOM     19  C   UNL     1      -2.438   6.214  -0.144  0.00  0.00    -0.050 A 
ATOM     20  C   UNL     1      -2.285   4.904  -0.560  0.00  0.00    +0.007 A 
ATOM     21  C   UNL     1      -3.237   3.958  -0.227  0.00  0.00    -0.045 A 
ATOM     22  C   UNL     1      -3.071   2.531  -0.680  0.00  0.00    +0.044 C 
ATOM     23  C   UNL     1      -1.400   7.245  -0.508  0.00  0.00    +0.044 C 
ATOM     24  C   UNL     1      -5.701   6.031   1.744  0.00  0.00    +0.044 C 
ENDBRANCH  13  16
BRANCH   5  25
ATOM     25  O   UNL     1      -6.368   5.264   4.336  0.00  0.00    -0.505 OA
ATOM     26  H   UNL     1      -6.252   6.138   3.939  0.00  0.00    +0.292 HD
ENDBRANCH   5  25
TORSDOF 2
