REMARK  Name = ZINC15957033
REMARK  12 active torsions:
REMARK  status: ('A' for Active; 'I' for Inactive)
REMARK    1  A    between atoms: C_1  and  C_2
REMARK    2  A    between atoms: C_17  and  C_42
REMARK    3  A    between atoms: C_22  and  C_23
REMARK    4  A    between atoms: C_22  and  O_41
REMARK    5  A    between atoms: C_23  and  C_25
REMARK    6  A    between atoms: C_25  and  O_26
REMARK    7  A    between atoms: O_26  and  C_27
REMARK    8  A    between atoms: C_27  and  C_29
REMARK    9  A    between atoms: C_29  and  C_30
REMARK   10  A    between atoms: C_30  and  C_31
REMARK   11  A    between atoms: N_33  and  C_34
REMARK   12  A    between atoms: C_34  and  C_35
REMARK                            x       y       z     vdW  Elec       q    Type
REMARK                         _______ _______ _______ _____ _____    ______ ____
ROOT
ATOM      1  C   UNL     1       0.534  19.790   5.538  0.00  0.00    +0.016 C 
ATOM      2  C   UNL     1       1.403  19.157   6.627  0.00  0.00    -0.007 C 
ATOM      3  C   UNL     1       2.874  19.214   6.210  0.00  0.00    +0.019 C 
ATOM      4  C   UNL     1       3.286  20.680   6.042  0.00  0.00    +0.080 C 
ATOM      5  C   UNL     1       3.023  21.414   7.334  0.00  0.00    +0.156 C 
ATOM      6  O   UNL     1       3.688  22.386   7.627  0.00  0.00    -0.293 OA
ATOM      7  C   UNL     1       1.967  20.952   8.233  0.00  0.00    +0.046 C 
ATOM      8  C   UNL     1       1.212  19.904   7.921  0.00  0.00    -0.060 C 
ATOM      9  C   UNL     1       0.138  19.422   8.865  0.00  0.00    +0.032 C 
ATOM     10  C   UNL     1       0.425  17.991   9.271  0.00  0.00    +0.008 C 
ATOM     11  C   UNL     1       1.283  17.245   8.251  0.00  0.00    -0.003 C 
ATOM     12  C   UNL     1       0.985  17.695   6.830  0.00  0.00    +0.002 C 
ATOM     13  C   UNL     1       1.798  16.846   5.842  0.00  0.00    +0.005 C 
ATOM     14  C   UNL     1       1.391  15.384   5.981  0.00  0.00    +0.010 C 
ATOM     15  C   UNL     1       1.763  14.875   7.393  0.00  0.00    +0.007 C 
ATOM     16  C   UNL     1       1.082  15.759   8.448  0.00  0.00    +0.002 C 
ATOM     17  C   UNL     1      -0.401  15.351   8.361  0.00  0.00    +0.008 C 
ATOM     18  C   UNL     1      -0.342  13.820   8.154  0.00  0.00    +0.043 C 
ATOM     19  C   UNL     1       1.045  13.510   7.560  0.00  0.00    +0.133 C 
ATOM     20  C   UNL     1       3.272  14.765   7.625  0.00  0.00    +0.015 C 
ENDROOT
BRANCH  19  21
ATOM     21  C   UNL     1       0.895  12.836   6.221  0.00  0.00    +0.202 C 
ATOM     22  O   UNL     1      -0.108  13.003   5.570  0.00  0.00    -0.291 OA
BRANCH  21  23
ATOM     23  C   UNL     1       1.998  11.954   5.693  0.00  0.00    +0.309 C 
BRANCH  23  24
ATOM     24  O   UNL     1       1.617  11.427   4.395  0.00  0.00    -0.457 OA
BRANCH  24  25
ATOM     25  C   UNL     1       2.496  10.617   3.785  0.00  0.00    +0.308 C 
ATOM     26  O   UNL     1       3.549  10.357   4.317  0.00  0.00    -0.251 OA
BRANCH  25  27
ATOM     27  C   UNL     1       2.170  10.031   2.435  0.00  0.00    +0.130 C 
BRANCH  27  28
ATOM     28  C   UNL     1       3.331   9.152   1.966  0.00  0.00    +0.107 C 
BRANCH  28  29
ATOM     29  C   UNL     1       3.004   8.566   0.617  0.00  0.00    +0.214 C 
ATOM     30  O   UNL     1       1.947   8.827   0.082  0.00  0.00    -0.276 OA
ATOM     31  N   UNL     1       3.887   7.753   0.004  0.00  0.00    -0.310 N 
ATOM     32  H   UNL     1       4.732   7.545   0.431  0.00  0.00    +0.149 HD
BRANCH  31  33
ATOM     33  C   UNL     1       3.570   7.184  -1.308  0.00  0.00    +0.159 C 
BRANCH  33  34
ATOM     34  C   UNL     1       4.713   6.317  -1.770  0.00  0.00    +0.058 A 
ATOM     35  C   UNL     1       4.677   4.956  -1.534  0.00  0.00    +0.025 A 
ATOM     36  C   UNL     1       5.731   4.167  -1.968  0.00  0.00    +0.003 A 
ATOM     37  C   UNL     1       6.793   4.782  -2.615  0.00  0.00    +0.020 A 
ATOM     38  C   UNL     1       6.760   6.149  -2.814  0.00  0.00    +0.111 A 
ATOM     39  N   UNL     1       5.737   6.867  -2.393  0.00  0.00    -0.258 NA
ENDBRANCH  33  34
ENDBRANCH  31  33
ENDBRANCH  28  29
ENDBRANCH  27  28
ENDBRANCH  25  27
ENDBRANCH  24  25
ENDBRANCH  23  24
ENDBRANCH  21  23
ENDBRANCH  19  21
BRANCH  19  40
ATOM     40  O   UNL     1       1.783  12.671   8.451  0.00  0.00    -0.380 OA
ATOM     41  H   UNL     1       1.377  11.807   8.606  0.00  0.00    +0.211 HD
ENDBRANCH  19  40
TORSDOF 10
