REMARK  Name = ZINC58991830
REMARK  13 active torsions:
REMARK  status: ('A' for Active; 'I' for Inactive)
REMARK    1  A    between atoms: C_1  and  C_2
REMARK    2  A    between atoms: C_2  and  N_3
REMARK    3  A    between atoms: N_3  and  C_4
REMARK    4  A    between atoms: N_3  and  C_6
REMARK    5  A    between atoms: C_4  and  C_5
REMARK    6  A    between atoms: C_9  and  C_13
REMARK    7  A    between atoms: C_10  and  O_12
REMARK    8  A    between atoms: N_14  and  N_15
REMARK    9  A    between atoms: C_16  and  C_18
REMARK   10  A    between atoms: C_18  and  S_19
REMARK   11  A    between atoms: S_19  and  C_20
REMARK   12  A    between atoms: C_23  and  C_26
REMARK   13  A    between atoms: N_24  and  N_25
REMARK                            x       y       z     vdW  Elec       q    Type
REMARK                         _______ _______ _______ _____ _____    ______ ____
ROOT
ATOM      1  N   UNL     1      -5.832  -2.159   6.171  0.00  0.00    -0.206 N 
ATOM      2  C   UNL     1      -7.124  -2.544   6.187  0.00  0.00    +0.242 C 
ATOM      3  O   UNL     1      -7.752  -2.605   5.151  0.00  0.00    -0.273 OA
ATOM      4  H   UNL     1      -5.330  -2.110   6.999  0.00  0.00    +0.177 HD
ENDROOT
BRANCH   1   6
ATOM      5  C   UNL     1      -3.971  -1.457   4.941  0.00  0.00    +0.142 C 
ATOM      6  N   UNL     1      -5.215  -1.828   4.957  0.00  0.00    -0.188 NA
BRANCH   5  10
ATOM      7  C   UNL     1      -2.100  -0.456   1.260  0.00  0.00    +0.033 A 
ATOM      8  C   UNL     1      -1.380  -0.386   2.450  0.00  0.00    +0.024 A 
ATOM      9  C   UNL     1      -1.984  -0.710   3.645  0.00  0.00    +0.015 A 
ATOM     10  C   UNL     1      -3.323  -1.110   3.665  0.00  0.00    +0.036 A 
ATOM     11  C   UNL     1      -4.047  -1.179   2.466  0.00  0.00    +0.127 A 
ATOM     12  C   UNL     1      -3.433  -0.848   1.271  0.00  0.00    +0.069 A 
BRANCH  11  13
ATOM     13  O   UNL     1      -5.348  -1.567   2.477  0.00  0.00    -0.506 OA
ATOM     14  H   UNL     1      -5.975  -0.839   2.583  0.00  0.00    +0.292 HD
ENDBRANCH  11  13
BRANCH   7  15
ATOM     15  N   UNL     1      -1.482  -0.127   0.054  0.00  0.00    -0.330 N 
BRANCH  15  17
ATOM     16  C   UNL     1       0.010   1.805   0.204  0.00  0.00    +0.024 C 
ATOM     17  C   UNL     1      -0.077   0.286   0.040  0.00  0.00    +0.102 C 
ENDBRANCH  15  17
BRANCH  15  18
ATOM     18  C   UNL     1      -2.239  -0.194  -1.198  0.00  0.00    +0.102 C 
ATOM     19  C   UNL     1      -2.100  -1.592  -1.804  0.00  0.00    +0.024 C 
ENDBRANCH  15  18
ENDBRANCH   7  15
ENDBRANCH   5  10
ENDBRANCH   1   6
BRANCH   2  20
ATOM     20  C   UNL     1      -7.787  -2.900   7.493  0.00  0.00    +0.174 C 
BRANCH  20  21
ATOM     21  S   UNL     1      -9.511  -3.374   7.186  0.00  0.00    -0.075 S 
BRANCH  21  22
ATOM     22  C   UNL     1     -10.140  -3.755   8.787  0.00  0.00    +0.209 A 
ATOM     23  N   UNL     1      -9.477  -3.690   9.921  0.00  0.00    -0.121 NA
ATOM     24  N   UNL     1     -10.238  -4.037  10.897  0.00  0.00    -0.127 NA
ATOM     25  C   UNL     1     -11.432  -4.344  10.447  0.00  0.00    +0.183 A 
ATOM     26  N   UNL     1     -11.408  -4.167   9.082  0.00  0.00    -0.224 N 
BRANCH  25  27
ATOM     27  C   UNL     1     -12.588  -4.790  11.254  0.00  0.00    +0.035 A 
ATOM     28  C   UNL     1     -13.330  -5.904  10.860  0.00  0.00    +0.013 A 
ATOM     29  C   UNL     1     -14.406  -6.316  11.618  0.00  0.00    +0.001 A 
ATOM     30  C   UNL     1     -14.752  -5.626  12.767  0.00  0.00    +0.001 A 
ATOM     31  C   UNL     1     -14.021  -4.520  13.164  0.00  0.00    +0.016 A 
ATOM     32  C   UNL     1     -12.938  -4.101  12.417  0.00  0.00    +0.029 A 
ATOM     33 BR   UNL     1     -11.935  -2.594  12.965  0.00  0.00    -0.050 Br
ENDBRANCH  25  27
BRANCH  26  34
ATOM     34  N   UNL     1     -12.436  -4.365   8.206  0.00  0.00    -0.295 N 
ATOM     35  H   UNL     1     -12.494  -5.334   7.930  0.00  0.00    +0.163 HD
ATOM     36  H   UNL     1     -13.311  -4.048   8.596  0.00  0.00    +0.163 HD
ENDBRANCH  26  34
ENDBRANCH  21  22
ENDBRANCH  20  21
ENDBRANCH   2  20
TORSDOF 11
