REMARK  Name = ZINC41992213
REMARK  3 active torsions:
REMARK  status: ('A' for Active; 'I' for Inactive)
REMARK    1  A    between atoms: C_7  and  C_11
REMARK    2  A    between atoms: C_7  and  S_14
REMARK    3  A    between atoms: S_14  and  C_15
REMARK                            x       y       z     vdW  Elec       q    Type
REMARK                         _______ _______ _______ _____ _____    ______ ____
ROOT
ATOM      1  C   UNL     1      -0.002   1.380  -0.002  0.00  0.00    +0.001 A 
ATOM      2  C   UNL     1       1.189   2.083  -0.010  0.00  0.00    +0.004 A 
ATOM      3  C   UNL     1       2.390   1.403  -0.024  0.00  0.00    +0.046 A 
ATOM      4  C   UNL     1       2.407   0.012  -0.029  0.00  0.00    +0.126 A 
ATOM      5  C   UNL     1       1.214  -0.689  -0.017  0.00  0.00    +0.022 A 
ATOM      6  C   UNL     1       0.011  -0.001  -0.005  0.00  0.00    +0.009 A 
ATOM      7  C   UNL     1       1.188  -2.196  -0.010  0.00  0.00    +0.156 C 
ATOM      8  C   UNL     1       2.547  -2.737  -0.461  0.00  0.00    +0.075 C 
ATOM      9  C   UNL     1       3.643  -2.000   0.321  0.00  0.00    +0.231 C 
ATOM     10  O   UNL     1       3.609  -0.621  -0.049  0.00  0.00    -0.492 OA
ENDROOT
BRANCH   7  11
ATOM     11  C   UNL     1       0.890  -2.686   1.383  0.00  0.00    +0.377 C 
ATOM     12  O   UNL     1      -0.098  -3.369   1.591  0.00  0.00    -0.244 OA
ATOM     13  O   UNL     1       1.638  -2.400   2.303  0.00  0.00    -0.244 OA
ENDBRANCH   7  11
BRANCH   7  14
ATOM     14  S   UNL     1      -0.101  -2.783  -1.144  0.00  0.00    -0.061 S 
BRANCH  14  15
ATOM     15  C   UNL     1       0.294  -2.008  -2.676  0.00  0.00    +0.211 A 
ATOM     16  N   UNL     1      -0.443  -2.069  -3.791  0.00  0.00    -0.188 NA
ATOM     17  C   UNL     1       0.142  -1.379  -4.747  0.00  0.00    +0.209 A 
ATOM     18  N   UNL     1       1.282  -0.857  -4.247  0.00  0.00    -0.246 N 
ATOM     19  H   UNL     1       1.922  -0.301  -4.718  0.00  0.00    +0.192 HD
ATOM     20  N   UNL     1       1.355  -1.273  -2.907  0.00  0.00    -0.144 NA
ATOM     21  N   UNL     1      -0.328  -1.217  -6.037  0.00  0.00    -0.328 N 
ATOM     22  H   UNL     1      -1.163  -1.633  -6.305  0.00  0.00    +0.145 HD
ATOM     23  H   UNL     1       0.176  -0.687  -6.674  0.00  0.00    +0.145 HD
ENDBRANCH  14  15
ENDBRANCH   7  14
TORSDOF 3
