REMARK  Name = ZINC67006645
REMARK  8 active torsions:
REMARK  status: ('A' for Active; 'I' for Inactive)
REMARK    1  A    between atoms: C_1  and  N_2
REMARK    2  A    between atoms: C_3  and  C_20
REMARK    3  A    between atoms: C_6  and  S_7
REMARK    4  A    between atoms: S_7  and  C_8
REMARK    5  A    between atoms: C_8  and  C_9
REMARK    6  A    between atoms: C_9  and  O_10
REMARK    7  A    between atoms: O_10  and  C_11
REMARK    8  A    between atoms: C_14  and  N_17
REMARK                            x       y       z     vdW  Elec       q    Type
REMARK                         _______ _______ _______ _____ _____    ______ ____
ROOT
ATOM      1  C   UNL     1       0.119   1.459  -0.004  0.00  0.00    +0.153 C 
ATOM      2  N   UNL     1       0.062  -0.005  -0.004  0.00  0.00    -0.305 N 
ATOM      3  C   UNL     1      -0.087  -0.831  -1.094  0.00  0.00    +0.167 A 
ATOM      4  N   UNL     1      -0.086  -2.064  -0.646  0.00  0.00    -0.128 NA
ATOM      5  N   UNL     1       0.051  -2.067   0.632  0.00  0.00    -0.122 NA
ATOM      6  C   UNL     1       0.153  -0.835   1.077  0.00  0.00    +0.192 A 
ENDROOT
BRANCH   3   7
ATOM      7  C   UNL     1      -0.223  -0.408  -2.504  0.00  0.00    +0.054 A 
ATOM      8  C   UNL     1       0.647   0.544  -3.038  0.00  0.00    +0.014 A 
ATOM      9  C   UNL     1       0.516   0.933  -4.354  0.00  0.00    +0.001 A 
ATOM     10  C   UNL     1      -0.476   0.383  -5.147  0.00  0.00    +0.003 A 
ATOM     11  C   UNL     1      -1.342  -0.561  -4.627  0.00  0.00    +0.039 A 
ATOM     12  C   UNL     1      -1.219  -0.965  -3.311  0.00  0.00    +0.134 A 
ATOM     13  F   UNL     1      -2.062  -1.892  -2.805  0.00  0.00    -0.205 F 
ENDBRANCH   3   7
BRANCH   6  14
ATOM     14  S   UNL     1       0.362  -0.344   2.757  0.00  0.00    -0.083 S 
BRANCH  14  15
ATOM     15  C   UNL     1       0.405  -1.911   3.669  0.00  0.00    +0.118 C 
BRANCH  15  16
ATOM     16  C   UNL     1       0.586  -1.627   5.162  0.00  0.00    +0.240 C 
BRANCH  16  17
ATOM     17  O   UNL     1       0.619  -2.862   5.881  0.00  0.00    -0.491 OA
BRANCH  17  18
ATOM     18  C   UNL     1       0.775  -2.786   7.229  0.00  0.00    +0.121 A 
ATOM     19  C   UNL     1       0.887  -1.550   7.848  0.00  0.00    +0.048 A 
ATOM     20  C   UNL     1       1.045  -1.476   9.218  0.00  0.00    +0.036 A 
ATOM     21  C   UNL     1       1.091  -2.633   9.973  0.00  0.00    +0.126 A 
ATOM     22  C   UNL     1       0.980  -3.867   9.359  0.00  0.00    +0.036 A 
ATOM     23  C   UNL     1       0.816  -3.946   7.989  0.00  0.00    +0.048 A 
BRANCH  21  24
ATOM     24  N   UNL     1       1.261  -2.551  11.441  0.00  0.00    +0.056 N 
ATOM     25  O   UNL     1       1.359  -1.473  11.979  0.00  0.00    -0.126 OA
ATOM     26  O   UNL     1       1.301  -3.563  12.102  0.00  0.00    -0.126 OA
ENDBRANCH  21  24
ENDBRANCH  17  18
ENDBRANCH  16  17
ENDBRANCH  15  16
ENDBRANCH  14  15
ENDBRANCH   6  14
TORSDOF 7
