REMARK  Name = ZINC44268154
REMARK  8 active torsions:
REMARK  status: ('A' for Active; 'I' for Inactive)
REMARK    1  A    between atoms: C_1  and  C_2
REMARK    2  A    between atoms: C_2  and  C_3
REMARK    3  A    between atoms: C_2  and  C_4
REMARK    4  A    between atoms: C_4  and  C_6
REMARK    5  A    between atoms: C_4  and  N_16
REMARK    6  A    between atoms: N_19  and  C_20
REMARK    7  A    between atoms: C_25  and  C_26
REMARK    8  A    between atoms: C_26  and  N_27
REMARK                            x       y       z     vdW  Elec       q    Type
REMARK                         _______ _______ _______ _____ _____    ______ ____
ROOT
ATOM      1  N   UNL     1      -2.169   0.025   1.151  0.00  0.00    -0.289 N 
ATOM      2  C   UNL     1      -2.071  -0.552   2.364  0.00  0.00    +0.304 C 
ATOM      3  O   UNL     1      -1.387  -1.547   2.511  0.00  0.00    -0.252 OA
ATOM      4  N   UNL     1      -2.731  -0.027   3.416  0.00  0.00    -0.269 N 
ATOM      5  H   UNL     1      -2.715   0.819   1.034  0.00  0.00    +0.151 HD
ATOM      6  H   UNL     1      -3.210   0.810   3.318  0.00  0.00    +0.156 HD
ENDROOT
BRANCH   4   7
ATOM      7  C   UNL     1      -2.725  -0.691   4.648  0.00  0.00    +0.040 A 
ATOM      8  C   UNL     1      -2.518  -2.063   4.698  0.00  0.00    +0.024 A 
ATOM      9  C   UNL     1      -2.512  -2.715   5.915  0.00  0.00    +0.002 A 
ATOM     10  C   UNL     1      -2.714  -2.003   7.083  0.00  0.00    +0.000 A 
ATOM     11  C   UNL     1      -2.921  -0.637   7.037  0.00  0.00    +0.007 A 
ATOM     12  C   UNL     1      -2.922   0.022   5.823  0.00  0.00    -0.005 A 
BRANCH  12  13
ATOM     13  C   UNL     1      -3.142   1.512   5.773  0.00  0.00    +0.180 C 
BRANCH  13  14
ATOM     14  N   UNL     1      -4.561   1.788   5.534  0.00  0.00    -0.267 N 
ATOM     15  C   UNL     1      -5.358   2.564   6.298  0.00  0.00    +0.108 A 
ATOM     16  C   UNL     1      -6.591   2.563   5.740  0.00  0.00    +0.041 A 
ATOM     17  C   UNL     1      -6.546   1.758   4.597  0.00  0.00    +0.134 A 
ATOM     18  N   UNL     1      -5.327   1.298   4.469  0.00  0.00    -0.179 NA
ENDBRANCH  13  14
ENDBRANCH  12  13
ENDBRANCH   4   7
BRANCH   1  19
ATOM     19  C   UNL     1      -1.451  -0.545   0.008  0.00  0.00    +0.143 C 
BRANCH  19  20
ATOM     20  C   UNL     1      -2.152  -0.160  -1.269  0.00  0.00    +0.129 A 
ATOM     21  N   UNL     1      -2.765  -1.031  -2.116  0.00  0.00    -0.340 N 
ATOM     22  H   UNL     1      -2.826  -1.992  -2.005  0.00  0.00    +0.167 HD
ATOM     23  C   UNL     1      -3.283  -0.292  -3.160  0.00  0.00    +0.066 A 
ATOM     24  C   UNL     1      -3.999  -0.609  -4.307  0.00  0.00    +0.028 A 
ATOM     25  C   UNL     1      -4.378   0.393  -5.174  0.00  0.00    +0.002 A 
ATOM     26  C   UNL     1      -4.048   1.715  -4.909  0.00  0.00    +0.002 A 
ATOM     27  C   UNL     1      -3.344   2.045  -3.786  0.00  0.00    +0.030 A 
ATOM     28  C   UNL     1      -2.950   1.046  -2.892  0.00  0.00    +0.089 A 
ATOM     29  N   UNL     1      -2.265   1.056  -1.720  0.00  0.00    -0.231 NA
ENDBRANCH  19  20
BRANCH  19  31
ATOM     30  C   UNL     1      -0.048   1.522  -0.014  0.00  0.00    +0.009 C 
ATOM     31  C   UNL     1      -0.019  -0.008  -0.014  0.00  0.00    +0.011 C 
ATOM     32  C   UNL     1       0.732  -0.504   1.223  0.00  0.00    +0.009 C 
ENDBRANCH  19  31
ENDBRANCH   1  19
TORSDOF 6
