REMARK  Name = ZINC19219594
REMARK  9 active torsions:
REMARK  status: ('A' for Active; 'I' for Inactive)
REMARK    1  A    between atoms: C_1  and  C_2
REMARK    2  A    between atoms: C_10  and  C_35
REMARK    3  A    between atoms: C_11  and  C_12
REMARK    4  A    between atoms: C_12  and  C_14
REMARK    5  A    between atoms: C_12  and  O_34
REMARK    6  A    between atoms: C_14  and  N_15
REMARK    7  A    between atoms: C_22  and  O_33
REMARK    8  A    between atoms: C_26  and  C_32
REMARK    9  A    between atoms: C_27  and  C_31
REMARK                            x       y       z     vdW  Elec       q    Type
REMARK                         _______ _______ _______ _____ _____    ______ ____
ROOT
ATOM      1  N   UNL     1      -3.253  -2.096   2.303  0.00  0.00    +0.382 N 
ATOM      2  C   UNL     1      -2.056  -1.337   2.688  0.00  0.00    -0.075 C 
ATOM      3  C   UNL     1      -0.845  -1.867   1.915  0.00  0.00    +0.029 C 
ATOM      4  C   UNL     1      -1.103  -1.730   0.414  0.00  0.00    +0.110 C 
ATOM      5  C   UNL     1      -2.383  -2.482   0.047  0.00  0.00    +0.029 C 
ATOM      6  C   UNL     1      -3.547  -1.934   0.874  0.00  0.00    -0.075 C 
ATOM      7  C   UNL     1       0.079  -2.318  -0.365  0.00  0.00    +0.084 C 
ATOM      8  C   UNL     1       1.359  -1.618   0.099  0.00  0.00    +0.152 C 
ATOM      9  C   UNL     1       1.147  -0.125   0.103  0.00  0.00    +0.023 A 
ATOM     10  C   UNL     1       2.256   0.705   0.118  0.00  0.00    +0.013 A 
ATOM     11  C   UNL     1       2.100   2.077   0.126  0.00  0.00    -0.047 A 
ATOM     12  C   UNL     1       0.832   2.628   0.118  0.00  0.00    -0.044 A 
ATOM     13  C   UNL     1      -0.276   1.806   0.101  0.00  0.00    +0.049 A 
ATOM     14  C   UNL     1      -0.123   0.424   0.093  0.00  0.00    +0.127 A 
ATOM     15  O   UNL     1      -1.238  -0.352   0.069  0.00  0.00    -0.485 OA
ATOM     16  C   UNL     1       0.660   4.125   0.128  0.00  0.00    +0.044 C 
ATOM     17  C   UNL     1       3.311   2.974   0.143  0.00  0.00    +0.044 C 
ATOM     18  H   UNL     1      -3.047  -3.162   2.484  0.00  0.00    -0.082 HD
ENDROOT
BRANCH   8  19
ATOM     19  O   UNL     1       2.429  -1.944  -0.790  0.00  0.00    -0.387 OA
ATOM     20  H   UNL     1       3.433  -1.531  -0.617  0.00  0.00    +0.210 HD
ENDBRANCH   8  19
BRANCH   1  21
ATOM     21  C   UNL     1      -4.407  -1.711   3.126  0.00  0.00    -0.042 C 
BRANCH  21  22
ATOM     22  C   UNL     1      -4.161  -2.127   4.577  0.00  0.00    +0.130 C 
BRANCH  22  33
ATOM     23  C   UNL     1      -6.524   2.335   9.251  0.00  0.00    +0.044 C 
ATOM     24  C   UNL     1      -6.135   1.294   8.233  0.00  0.00    -0.048 A 
ATOM     25  C   UNL     1      -4.859   1.310   7.688  0.00  0.00    +0.004 A 
ATOM     26  C   UNL     1      -4.488   0.374   6.763  0.00  0.00    +0.010 A 
ATOM     27  C   UNL     1      -5.400  -0.605   6.363  0.00  0.00    +0.005 A 
ATOM     28  C   UNL     1      -6.694  -0.625   6.913  0.00  0.00    +0.047 A 
ATOM     29  C   UNL     1      -7.050   0.337   7.853  0.00  0.00    +0.029 A 
ATOM     30  N   UNL     1      -7.362  -1.684   6.341  0.00  0.00    -0.358 N 
ATOM     31  H   UNL     1      -8.403  -1.897   6.627  0.00  0.00    +0.166 HD
ATOM     32  C   UNL     1      -6.543  -2.325   5.452  0.00  0.00    +0.019 A 
ATOM     33  C   UNL     1      -5.342  -1.726   5.423  0.00  0.00    +0.007 A 
ATOM     34  C   UNL     1      -6.931  -3.527   4.630  0.00  0.00    +0.063 C 
ENDBRANCH  22  33
BRANCH  22  35
ATOM     35  O   UNL     1      -3.987  -3.544   4.643  0.00  0.00    -0.389 OA
ATOM     36  H   UNL     1      -3.170  -4.025   4.087  0.00  0.00    +0.210 HD
ENDBRANCH  22  35
ENDBRANCH  21  22
ENDBRANCH   1  21
TORSDOF 5
