REMARK  Name = ZINC14595600
REMARK  7 active torsions:
REMARK  status: ('A' for Active; 'I' for Inactive)
REMARK    1  A    between atoms: C_1  and  C_2
REMARK    2  A    between atoms: C_5  and  S_8
REMARK    3  A    between atoms: S_8  and  N_11
REMARK    4  A    between atoms: C_14  and  C_17
REMARK    5  A    between atoms: N_19  and  N_20
REMARK    6  A    between atoms: C_21  and  C_23
REMARK    7  A    between atoms: C_23  and  C_24
REMARK                            x       y       z     vdW  Elec       q    Type
REMARK                         _______ _______ _______ _____ _____    ______ ____
ROOT
ATOM      1  C   UNL     1      -8.268   1.276   2.889  0.00  0.00    +0.232 C 
ATOM      2  O   UNL     1      -8.856   0.575   2.092  0.00  0.00    -0.274 OA
ATOM      3  N   UNL     1      -6.984   1.621   2.665  0.00  0.00    -0.234 N 
ATOM      4  H   UNL     1      -6.515   2.181   3.302  0.00  0.00    +0.173 HD
ENDROOT
BRANCH   1   8
ATOM      5  N   UNL     1     -10.350   1.399   6.573  0.00  0.00    -0.177 NA
ATOM      6  C   UNL     1     -11.134   1.757   5.383  0.00  0.00    +0.110 C 
ATOM      7  C   UNL     1     -10.409   1.232   4.139  0.00  0.00    +0.030 C 
ATOM      8  C   UNL     1      -8.973   1.762   4.129  0.00  0.00    +0.079 C 
ATOM      9  C   UNL     1      -8.232   1.256   5.369  0.00  0.00    +0.030 C 
ATOM     10  C   UNL     1      -8.932   1.781   6.626  0.00  0.00    +0.110 C 
BRANCH   5  11
ATOM     11  S   UNL     1     -11.050   0.580   7.831  0.00  0.00    +0.061 S 
ATOM     12  O   UNL     1     -10.275   0.870   8.986  0.00  0.00    -0.153 OA
ATOM     13  O   UNL     1     -12.444   0.847   7.762  0.00  0.00    -0.153 OA
BRANCH  11  18
ATOM     14  C   UNL     1     -10.364  -5.312   6.729  0.00  0.00    +0.044 C 
ATOM     15  C   UNL     1     -10.536  -3.841   7.004  0.00  0.00    -0.050 A 
ATOM     16  C   UNL     1      -9.571  -3.154   7.718  0.00  0.00    +0.005 A 
ATOM     17  C   UNL     1      -9.729  -1.804   7.971  0.00  0.00    +0.029 A 
ATOM     18  C   UNL     1     -10.850  -1.141   7.509  0.00  0.00    +0.105 A 
ATOM     19  C   UNL     1     -11.816  -1.828   6.799  0.00  0.00    +0.029 A 
ATOM     20  C   UNL     1     -11.657  -3.177   6.542  0.00  0.00    +0.005 A 
ENDBRANCH  11  18
ENDBRANCH   5  11
ENDBRANCH   1   8
BRANCH   3  21
ATOM     21  N   UNL     1      -6.329   1.169   1.513  0.00  0.00    -0.234 N 
ATOM     22  C   UNL     1      -5.045   1.513   1.289  0.00  0.00    +0.230 C 
ATOM     23  O   UNL     1      -4.457   2.214   2.085  0.00  0.00    -0.274 OA
ATOM     24  H   UNL     1      -6.799   0.608   0.875  0.00  0.00    +0.173 HD
BRANCH  22  25
ATOM     25  C   UNL     1      -4.340   1.027   0.049  0.00  0.00    +0.104 C 
BRANCH  25  26
ATOM     26  C   UNL     1      -2.904   1.556   0.038  0.00  0.00    -0.020 C 
ATOM     27  C   UNL     1      -2.188   1.063  -1.221  0.00  0.00    +0.011 C 
ATOM     28  C   UNL     1      -0.753   1.593  -1.232  0.00  0.00    -0.010 C 
ATOM     29  C   UNL     1      -0.013   1.086   0.008  0.00  0.00    +0.007 C 
ATOM     30  C   UNL     1      -0.729   1.579   1.267  0.00  0.00    -0.010 C 
ATOM     31  C   UNL     1      -2.164   1.050   1.278  0.00  0.00    +0.011 C 
ATOM     32  C   UNL     1      -0.750   3.109   1.275  0.00  0.00    +0.007 C 
ATOM     33  C   UNL     1      -1.490   3.616   0.036  0.00  0.00    -0.010 C 
ATOM     34  C   UNL     1      -0.773   3.123  -1.223  0.00  0.00    +0.007 C 
ATOM     35  C   UNL     1      -2.925   3.086   0.047  0.00  0.00    +0.011 C 
ENDBRANCH  25  26
ENDBRANCH  22  25
ENDBRANCH   3  21
TORSDOF 6
