REMARK  Name = ZINC05728879
REMARK  5 active torsions:
REMARK  status: ('A' for Active; 'I' for Inactive)
REMARK    1  A    between atoms: C_3  and  C_8
REMARK    2  A    between atoms: C_5  and  O_7
REMARK    3  A    between atoms: C_17  and  C_26
REMARK    4  A    between atoms: C_21  and  C_22
REMARK    5  A    between atoms: C_21  and  C_24
REMARK                            x       y       z     vdW  Elec       q    Type
REMARK                         _______ _______ _______ _____ _____    ______ ____
ROOT
ATOM      1  C   UNL     1       3.671   2.190  -0.021  0.00  0.00    +0.066 C 
ATOM      2  C   UNL     1       3.749   3.063   1.234  0.00  0.00    +0.027 C 
ATOM      3  C   UNL     1       3.765   2.181   2.471  0.00  0.00    +0.009 C 
ATOM      4  C   UNL     1       3.297   2.955   3.702  0.00  0.00    +0.005 C 
ATOM      5  C   UNL     1       1.845   3.391   3.474  0.00  0.00    +0.027 C 
ATOM      6  C   UNL     1       1.780   4.204   2.212  0.00  0.00    -0.026 C 
ATOM      7  C   UNL     1       2.615   4.046   1.241  0.00  0.00    -0.047 C 
ATOM      8  C   UNL     1       2.443   4.939   0.021  0.00  0.00    +0.164 C 
ATOM      9  C   UNL     1       2.562   4.060  -1.206  0.00  0.00    +0.065 C 
ATOM     10  N   UNL     1       1.716   4.145  -2.162  0.00  0.00    -0.304 NA
ATOM     11  C   UNL     1       3.725   3.077  -1.268  0.00  0.00    +0.188 C 
ATOM     12  H   UNL     1       0.985   4.780  -2.107  0.00  0.00    +0.186 HD
ENDROOT
BRANCH   1  15
ATOM     13  C   UNL     1      -0.017   1.377   0.010  0.00  0.00    +0.004 A 
ATOM     14  C   UNL     1       1.171   2.086   0.002  0.00  0.00    +0.004 A 
ATOM     15  C   UNL     1       2.379   1.415  -0.013  0.00  0.00    -0.037 A 
ATOM     16  C   UNL     1       2.403   0.033  -0.021  0.00  0.00    +0.049 A 
ATOM     17  C   UNL     1       1.214  -0.680  -0.013  0.00  0.00    +0.117 A 
ATOM     18  C   UNL     1       0.002  -0.004   0.002  0.00  0.00    +0.045 A 
BRANCH  17  19
ATOM     19  O   UNL     1       1.235  -2.039  -0.021  0.00  0.00    -0.507 OA
ATOM     20  H   UNL     1       1.249  -2.437   0.860  0.00  0.00    +0.292 HD
ENDBRANCH  17  19
ENDBRANCH   1  15
BRANCH  11  21
ATOM     21  C   UNL     1       5.008   3.799  -1.304  0.00  0.00    +0.091 C 
ATOM     22  N   UNL     1       5.997   4.356  -1.332  0.00  0.00    -0.195 NA
ENDBRANCH  11  21
BRANCH  11  23
ATOM     23  C   UNL     1       3.593   2.241  -2.473  0.00  0.00    +0.091 C 
ATOM     24  N   UNL     1       3.491   1.597  -3.403  0.00  0.00    -0.195 NA
ENDBRANCH  11  23
BRANCH   8  25
ATOM     25  C   UNL     1       1.118   5.579   0.052  0.00  0.00    +0.076 C 
ATOM     26  N   UNL     1       0.095   6.073   0.077  0.00  0.00    -0.196 NA
ENDBRANCH   8  25
TORSDOF 5
