REMARK  Name = ZINC40390806
REMARK  9 active torsions:
REMARK  status: ('A' for Active; 'I' for Inactive)
REMARK    1  A    between atoms: C_1  and  O_2
REMARK    2  A    between atoms: O_2  and  C_3
REMARK    3  A    between atoms: C_6  and  N_9
REMARK    4  A    between atoms: N_16  and  C_19
REMARK    5  A    between atoms: C_22  and  C_25
REMARK    6  A    between atoms: C_25  and  C_28
REMARK    7  A    between atoms: C_28  and  N_29
REMARK    8  A    between atoms: C_34  and  S_36
REMARK    9  A    between atoms: S_36  and  C_39
REMARK                            x       y       z     vdW  Elec       q    Type
REMARK                         _______ _______ _______ _____ _____    ______ ____
ROOT
ATOM      1  N   UNL     1       1.727  -2.008   5.187  0.00  0.00    -0.210 N 
ATOM      2  C   UNL     1       1.921  -3.377   4.721  0.00  0.00    +0.194 C 
ATOM      3  C   UNL     1       2.507  -3.996   6.032  0.00  0.00    +0.091 C 
ATOM      4  C   UNL     1       3.222  -5.259   5.630  0.00  0.00    +0.033 C 
ATOM      5  C   UNL     1       2.281  -6.117   4.780  0.00  0.00    +0.114 C 
ATOM      6  N   UNL     1       0.949  -5.562   4.596  0.00  0.00    -0.270 N 
ATOM      7  C   UNL     1       0.701  -4.207   4.444  0.00  0.00    +0.243 C 
ATOM      8  O   UNL     1      -0.370  -3.733   4.126  0.00  0.00    -0.273 OA
ATOM      9  C   UNL     1       3.292  -2.851   6.575  0.00  0.00    +0.176 C 
ATOM     10  N   UNL     1       2.816  -1.765   6.058  0.00  0.00    -0.164 NA
ENDROOT
BRANCH   1  14
ATOM     11  C   UNL     1      -1.344   0.615   4.162  0.00  0.00    +0.120 A 
ATOM     12  C   UNL     1      -0.690  -0.105   3.173  0.00  0.00    +0.047 A 
ATOM     13  C   UNL     1       0.328  -0.975   3.512  0.00  0.00    +0.028 A 
ATOM     14  C   UNL     1       0.697  -1.127   4.843  0.00  0.00    +0.053 A 
ATOM     15  C   UNL     1       0.041  -0.405   5.831  0.00  0.00    +0.028 A 
ATOM     16  C   UNL     1      -0.973   0.468   5.490  0.00  0.00    +0.047 A 
BRANCH  11  18
ATOM     17  C   UNL     1      -2.677   1.573   2.441  0.00  0.00    +0.277 C 
ATOM     18  O   UNL     1      -2.347   1.471   3.827  0.00  0.00    -0.495 OA
ENDBRANCH  11  18
ENDBRANCH   1  14
BRANCH   6  19
ATOM     19  C   UNL     1      -0.139  -6.441   4.556  0.00  0.00    +0.036 A 
ATOM     20  C   UNL     1      -1.411  -5.962   4.271  0.00  0.00    +0.024 A 
ATOM     21  C   UNL     1      -2.482  -6.832   4.232  0.00  0.00    +0.006 A 
ATOM     22  C   UNL     1      -2.290  -8.179   4.478  0.00  0.00    -0.043 A 
ATOM     23  C   UNL     1      -1.025  -8.660   4.763  0.00  0.00    +0.006 A 
ATOM     24  C   UNL     1       0.052  -7.796   4.796  0.00  0.00    +0.024 A 
BRANCH  22  25
ATOM     25  C   UNL     1      -3.462  -9.126   4.436  0.00  0.00    -0.019 C 
ATOM     26  C   UNL     1      -4.061  -9.448   3.065  0.00  0.00    +0.010 C 
ATOM     27  C   UNL     1      -4.823  -8.548   4.041  0.00  0.00    +0.010 C 
BRANCH  25  28
ATOM     28  C   UNL     1      -3.446 -10.243   5.481  0.00  0.00    -0.067 C 
BRANCH  28  29
ATOM     29  N   UNL     1      -3.370  -9.656   6.825  0.00  0.00    +0.380 N 
ATOM     30  C   UNL     1      -4.623  -8.919   7.133  0.00  0.00    -0.079 C 
ATOM     31  C   UNL     1      -4.632  -8.866   8.681  0.00  0.00    -0.020 C 
ATOM     32  C   UNL     1      -4.059 -10.247   9.077  0.00  0.00    -0.020 C 
ATOM     33  C   UNL     1      -3.271 -10.724   7.843  0.00  0.00    -0.079 C 
ATOM     34  H   UNL     1      -2.576  -9.037   6.891  0.00  0.00    -0.082 HD
ENDBRANCH  28  29
ENDBRANCH  25  28
ENDBRANCH  22  25
ENDBRANCH   6  19
BRANCH   9  35
ATOM     35  S   UNL     1       4.632  -2.957   7.714  0.00  0.00    +0.009 S 
ATOM     36  O   UNL     1       5.250  -4.206   7.431  0.00  0.00    -0.168 OA
ATOM     37  O   UNL     1       5.348  -1.741   7.546  0.00  0.00    -0.168 OA
ATOM     38  C   UNL     1       3.852  -3.002   9.351  0.00  0.00    +0.201 C 
ENDBRANCH   9  35
TORSDOF 7
