REMARK  Name = ZINC56628664
REMARK  9 active torsions:
REMARK  status: ('A' for Active; 'I' for Inactive)
REMARK    1  A    between atoms: C_1  and  C_2
REMARK    2  A    between atoms: C_2  and  C_3
REMARK    3  A    between atoms: C_2  and  C_4
REMARK    4  A    between atoms: C_2  and  C_20
REMARK    5  A    between atoms: C_4  and  N_5
REMARK    6  A    between atoms: N_8  and  C_9
REMARK    7  A    between atoms: C_11  and  C_17
REMARK    8  A    between atoms: C_14  and  O_15
REMARK    9  A    between atoms: O_15  and  C_16
REMARK                            x       y       z     vdW  Elec       q    Type
REMARK                         _______ _______ _______ _____ _____    ______ ____
ROOT
ATOM      1  N   UNL     1      -2.114  -0.076   1.226  0.00  0.00    -0.298 N 
ATOM      2  C   UNL     1      -3.401  -0.411   1.445  0.00  0.00    +0.304 C 
ATOM      3  O   UNL     1      -3.992  -1.110   0.645  0.00  0.00    -0.253 OA
ATOM      4  N   UNL     1      -4.034   0.029   2.551  0.00  0.00    -0.266 N 
ATOM      5  H   UNL     1      -1.643   0.482   1.864  0.00  0.00    +0.150 HD
ATOM      6  H   UNL     1      -3.545   0.532   3.221  0.00  0.00    +0.156 HD
ENDROOT
BRANCH   4   7
ATOM      7  C   UNL     1      -5.397  -0.240   2.733  0.00  0.00    +0.077 A 
ATOM      8  C   UNL     1      -5.932  -1.434   2.284  0.00  0.00    +0.040 A 
ATOM      9  C   UNL     1      -7.292  -1.699   2.468  0.00  0.00    +0.038 A 
ATOM     10  C   UNL     1      -8.104  -0.757   3.104  0.00  0.00    +0.017 A 
ATOM     11  C   UNL     1      -7.566   0.430   3.548  0.00  0.00    +0.048 A 
ATOM     12  C   UNL     1      -6.214   0.693   3.371  0.00  0.00    +0.141 A 
BRANCH   9  13
ATOM     13  C   UNL     1      -7.868  -2.971   1.991  0.00  0.00    +0.242 C 
ATOM     14  O   UNL     1      -7.160  -3.790   1.437  0.00  0.00    -0.270 OA
ATOM     15  N   UNL     1      -9.180  -3.226   2.168  0.00  0.00    -0.325 N 
ATOM     16  H   UNL     1      -9.745  -2.573   2.610  0.00  0.00    +0.145 HD
ATOM     17  H   UNL     1      -9.558  -4.062   1.855  0.00  0.00    +0.145 HD
ENDBRANCH   9  13
BRANCH  12  18
ATOM     18  O   UNL     1      -5.687   1.863   3.817  0.00  0.00    -0.493 OA
ATOM     19  C   UNL     1      -6.580   2.773   4.461  0.00  0.00    +0.277 C 
ENDBRANCH  12  18
ENDBRANCH   4   7
BRANCH   1  20
ATOM     20  C   UNL     1      -1.427  -0.554   0.024  0.00  0.00    +0.116 C 
BRANCH  20  22
ATOM     21  C   UNL     1       0.002   1.496   0.025  0.00  0.00    +0.017 C 
ATOM     22  C   UNL     1       0.012  -0.034   0.018  0.00  0.00    +0.006 C 
ATOM     23  C   UNL     1       0.744  -0.545   1.261  0.00  0.00    +0.017 C 
BRANCH  22  24
ATOM     24  C   UNL     1       0.719  -0.526  -1.218  0.00  0.00    -0.040 A 
ATOM     25  C   UNL     1       0.046  -1.317  -2.131  0.00  0.00    +0.005 A 
ATOM     26  C   UNL     1       0.694  -1.768  -3.265  0.00  0.00    +0.020 A 
ATOM     27  C   UNL     1       2.016  -1.429  -3.487  0.00  0.00    +0.041 A 
ATOM     28  C   UNL     1       2.690  -0.638  -2.574  0.00  0.00    +0.020 A 
ATOM     29  C   UNL     1       2.039  -0.182  -1.442  0.00  0.00    +0.005 A 
ATOM     30 CL   UNL     1       2.831  -1.996  -4.911  0.00  0.00    -0.084 Cl
ENDBRANCH  22  24
ENDBRANCH  20  22
ENDBRANCH   1  20
TORSDOF 6
