REMARK  Name = ZINC36039574
REMARK  8 active torsions:
REMARK  status: ('A' for Active; 'I' for Inactive)
REMARK    1  A    between atoms: C_1  and  C_2
REMARK    2  A    between atoms: C_5  and  N_9
REMARK    3  A    between atoms: C_11  and  C_26
REMARK    4  A    between atoms: N_14  and  C_15
REMARK    5  A    between atoms: C_15  and  C_17
REMARK    6  A    between atoms: C_17  and  N_18
REMARK    7  A    between atoms: N_18  and  C_19
REMARK    8  A    between atoms: C_19  and  C_20
REMARK                            x       y       z     vdW  Elec       q    Type
REMARK                         _______ _______ _______ _____ _____    ______ ____
ROOT
ATOM      1  N   UNL     1       0.058  -4.173  -0.023  0.00  0.00    -0.287 N 
ATOM      2  C   UNL     1       0.069  -4.974  -1.146  0.00  0.00    +0.120 A 
ATOM      3  C   UNL     1       0.086  -6.257  -0.743  0.00  0.00    +0.066 A 
ATOM      4  N   UNL     1       0.086  -6.267   0.647  0.00  0.00    -0.326 N 
ATOM      5  C   UNL     1       0.074  -4.978   1.073  0.00  0.00    +0.205 A 
ATOM      6  N   UNL     1       0.075  -4.573   2.342  0.00  0.00    -0.148 NA
ATOM      7  H   UNL     1       0.097  -7.056   1.212  0.00  0.00    +0.169 HD
ENDROOT
BRANCH   1  12
ATOM      8  C   UNL     1      -0.018   1.503   0.010  0.00  0.00    +0.047 C 
ATOM      9  C   UNL     1       0.002  -0.004   0.002  0.00  0.00    -0.015 A 
ATOM     10  C   UNL     1       0.006  -0.688  -1.200  0.00  0.00    +0.008 A 
ATOM     11  C   UNL     1       0.024  -2.068  -1.211  0.00  0.00    +0.026 A 
ATOM     12  C   UNL     1       0.040  -2.772  -0.014  0.00  0.00    +0.052 A 
ATOM     13  C   UNL     1       0.036  -2.085   1.192  0.00  0.00    +0.064 A 
ATOM     14  C   UNL     1       0.023  -0.702   1.198  0.00  0.00    +0.128 A 
ATOM     15  F   UNL     1       0.025  -0.031   2.371  0.00  0.00    -0.205 F 
ENDBRANCH   1  12
BRANCH   3  16
ATOM     16  C   UNL     1       0.102  -7.447  -1.623  0.00  0.00    -0.000 A 
ATOM     17  C   UNL     1       0.105  -7.292  -3.009  0.00  0.00    +0.010 A 
ATOM     18  C   UNL     1       0.120  -8.405  -3.824  0.00  0.00    +0.001 A 
ATOM     19  C   UNL     1       0.132  -9.673  -3.269  0.00  0.00    +0.000 A 
ATOM     20  C   UNL     1       0.129  -9.832  -1.895  0.00  0.00    +0.001 A 
ATOM     21  C   UNL     1       0.119  -8.727  -1.069  0.00  0.00    +0.010 A 
ENDBRANCH   3  16
BRANCH   6  22
ATOM     22  C   UNL     1       0.091  -5.466   3.325  0.00  0.00    +0.222 C 
ATOM     23  O   UNL     1       0.106  -6.654   3.066  0.00  0.00    -0.276 OA
BRANCH  22  24
ATOM     24  C   UNL     1       0.092  -5.008   4.760  0.00  0.00    +0.017 C 
BRANCH  24  25
ATOM     25  N   UNL     1       0.112  -6.178   5.648  0.00  0.00    +0.386 N 
ATOM     26  H   UNL     1      -0.705  -6.745   5.476  0.00  0.00    -0.085 HD
ATOM     27  H   UNL     1       0.942  -6.722   5.468  0.00  0.00    -0.085 HD
BRANCH  25  28
ATOM     28  C   UNL     1       0.112  -5.731   7.047  0.00  0.00    -0.050 C 
BRANCH  28  29
ATOM     29  C   UNL     1       0.133  -6.950   7.972  0.00  0.00    +0.101 C 
ATOM     30  C   UNL     1       0.012  -6.495   9.442  0.00  0.00    +0.032 C 
ATOM     31  C   UNL     1       0.991  -7.458  10.167  0.00  0.00    +0.030 C 
ATOM     32  C   UNL     1       2.086  -7.635   9.085  0.00  0.00    +0.160 C 
ATOM     33  O   UNL     1       1.379  -7.644   7.833  0.00  0.00    -0.378 OA
ENDBRANCH  28  29
ENDBRANCH  25  28
ENDBRANCH  24  25
ENDBRANCH  22  24
ENDBRANCH   6  22
TORSDOF 7
