REMARK  Name = ZINC08890004
REMARK  11 active torsions:
REMARK  status: ('A' for Active; 'I' for Inactive)
REMARK    1  A    between atoms: C_1  and  O_2
REMARK    2  A    between atoms: O_2  and  C_3
REMARK    3  A    between atoms: C_6  and  O_33
REMARK    4  A    between atoms: C_7  and  N_9
REMARK    5  A    between atoms: C_10  and  C_12
REMARK    6  A    between atoms: C_12  and  O_13
REMARK    7  A    between atoms: O_13  and  C_14
REMARK    8  A    between atoms: C_14  and  C_16
REMARK    9  A    between atoms: C_16  and  C_17
REMARK   10  A    between atoms: C_17  and  C_18
REMARK   11  A    between atoms: O_33  and  C_34
REMARK                            x       y       z     vdW  Elec       q    Type
REMARK                         _______ _______ _______ _____ _____    ______ ____
ROOT
ATOM      1  C   UNL     1      -2.467   9.219  -5.718  0.00  0.00    +0.308 C 
ATOM      2  O   UNL     1      -2.616   8.855  -6.860  0.00  0.00    -0.251 OA
ENDROOT
BRANCH   1   3
ATOM      3  O   UNL     1      -2.569  10.522  -5.410  0.00  0.00    -0.455 OA
BRANCH   3   4
ATOM      4  C   UNL     1      -2.860  11.436  -6.499  0.00  0.00    +0.328 C 
BRANCH   4   6
ATOM      5  N   UNL     1      -3.198  13.867  -6.804  0.00  0.00    -0.280 N 
ATOM      6  C   UNL     1      -2.937  12.844  -5.967  0.00  0.00    +0.255 C 
ATOM      7  O   UNL     1      -2.763  13.056  -4.786  0.00  0.00    -0.272 OA
ATOM      8  H   UNL     1      -3.257  13.710  -7.759  0.00  0.00    +0.155 HD
BRANCH   5  13
ATOM      9  C   UNL     1      -3.989  16.614  -4.483  0.00  0.00    +0.122 A 
ATOM     10  C   UNL     1      -3.753  17.718  -5.290  0.00  0.00    +0.049 A 
ATOM     11  C   UNL     1      -3.333  17.545  -6.596  0.00  0.00    +0.051 A 
ATOM     12  C   UNL     1      -3.148  16.269  -7.102  0.00  0.00    +0.141 A 
ATOM     13  C   UNL     1      -3.384  15.159  -6.294  0.00  0.00    +0.079 A 
ATOM     14  C   UNL     1      -3.810  15.335  -4.986  0.00  0.00    +0.072 A 
BRANCH   9  16
ATOM     15  C   UNL     1      -4.572  18.133  -2.749  0.00  0.00    +0.277 C 
ATOM     16  O   UNL     1      -4.403  16.788  -3.200  0.00  0.00    -0.495 OA
ENDBRANCH   9  16
BRANCH  12  17
ATOM     17  O   UNL     1      -2.735  16.100  -8.387  0.00  0.00    -0.493 OA
ATOM     18  C   UNL     1      -2.511  17.282  -9.158  0.00  0.00    +0.277 C 
ENDBRANCH  12  17
ENDBRANCH   5  13
ENDBRANCH   4   6
ENDBRANCH   3   4
ENDBRANCH   1   3
BRANCH   1  19
ATOM     19  C   UNL     1      -2.167   8.211  -4.638  0.00  0.00    +0.128 C 
BRANCH  19  20
ATOM     20  C   UNL     1      -2.104   6.811  -5.252  0.00  0.00    +0.085 C 
BRANCH  20  21
ATOM     21  C   UNL     1      -1.804   5.803  -4.173  0.00  0.00    +0.111 A 
ATOM     22  N   UNL     1      -1.707   4.496  -4.518  0.00  0.00    -0.310 N 
ATOM     23  H   UNL     1      -1.835   4.253  -5.448  0.00  0.00    +0.170 HD
ATOM     24  C   UNL     1      -1.441   3.514  -3.624  0.00  0.00    +0.260 A 
ATOM     25  O   UNL     1      -1.357   2.343  -3.954  0.00  0.00    -0.267 OA
ATOM     26  C   UNL     1      -1.264   3.939  -2.265  0.00  0.00    +0.075 A 
ATOM     27  C   UNL     1      -0.973   3.096  -1.120  0.00  0.00    -0.023 A 
ATOM     28  C   UNL     1      -0.846   3.718   0.076  0.00  0.00    -0.004 A 
ATOM     29  S   UNL     1      -1.106   5.440  -0.267  0.00  0.00    -0.073 S 
ATOM     30  C   UNL     1      -1.383   5.323  -2.006  0.00  0.00    +0.116 A 
ATOM     31  N   UNL     1      -1.647   6.231  -2.940  0.00  0.00    -0.227 NA
ATOM     32  C   UNL     1      -0.551   3.086   1.401  0.00  0.00    +0.043 C 
ATOM     33  C   UNL     1      -0.779   1.572   1.278  0.00  0.00    +0.005 C 
ATOM     34  C   UNL     1      -0.074   1.073   0.013  0.00  0.00    +0.005 C 
ATOM     35  C   UNL     1      -0.812   1.581  -1.226  0.00  0.00    +0.037 C 
ENDBRANCH  20  21
ENDBRANCH  19  20
ENDBRANCH   1  19
TORSDOF 9
