REMARK  Name = ZINC00648093
REMARK  10 active torsions:
REMARK  status: ('A' for Active; 'I' for Inactive)
REMARK    1  A    between atoms: C_1  and  C_2
REMARK    2  A    between atoms: C_2  and  C_3
REMARK    3  A    between atoms: C_5  and  C_8
REMARK    4  A    between atoms: N_10  and  C_11
REMARK    5  A    between atoms: C_12  and  C_26
REMARK    6  A    between atoms: C_17  and  C_21
REMARK    7  A    between atoms: C_21  and  C_22
REMARK    8  A    between atoms: C_21  and  C_23
REMARK    9  A    between atoms: C_21  and  C_24
REMARK   10  A    between atoms: C_24  and  C_25
REMARK                            x       y       z     vdW  Elec       q    Type
REMARK                         _______ _______ _______ _____ _____    ______ ____
ROOT
ATOM      1  C   UNL     1       1.345  -2.255   6.005  0.00  0.00    +0.085 A 
ATOM      2  C   UNL     1       1.024  -0.913   6.161  0.00  0.00    +0.068 A 
ATOM      3  C   UNL     1       0.548  -0.196   4.990  0.00  0.00    -0.023 A 
ATOM      4  C   UNL     1       0.469  -0.930   3.859  0.00  0.00    -0.004 A 
ATOM      5  S   UNL     1       1.015  -2.547   4.330  0.00  0.00    -0.077 S 
ATOM      6  C   UNL     1       0.018  -0.463   2.510  0.00  0.00    +0.046 C 
ATOM      7  C   UNL     1       0.011   1.072   2.506  0.00  0.00    -0.000 C 
ATOM      8  C   UNL     1      -0.704   1.565   3.768  0.00  0.00    +0.009 C 
ATOM      9  C   UNL     1       0.157   1.276   5.000  0.00  0.00    +0.037 C 
ENDROOT
BRANCH   2  10
ATOM     10  C   UNL     1       1.162  -0.244   7.458  0.00  0.00    +0.244 C 
ATOM     11  O   UNL     1       0.227  -0.231   8.238  0.00  0.00    -0.270 OA
ATOM     12  N   UNL     1       2.322   0.356   7.788  0.00  0.00    -0.325 N 
ATOM     13  H   UNL     1       3.067   0.345   7.166  0.00  0.00    +0.145 HD
ATOM     14  H   UNL     1       2.413   0.798   8.646  0.00  0.00    +0.145 HD
ENDBRANCH   2  10
BRANCH   1  17
ATOM     15  C   UNL     1       2.074  -4.422   6.617  0.00  0.00    +0.249 C 
ATOM     16  O   UNL     1       1.896  -4.795   5.473  0.00  0.00    -0.270 OA
ATOM     17  N   UNL     1       1.815  -3.144   6.958  0.00  0.00    -0.275 N 
ATOM     18  H   UNL     1       1.957  -2.847   7.871  0.00  0.00    +0.156 HD
BRANCH  15  21
ATOM     19  C   UNL     1       3.314  -7.527   8.296  0.00  0.00    -0.010 A 
ATOM     20  C   UNL     1       2.861  -6.740   7.300  0.00  0.00    +0.024 A 
ATOM     21  C   UNL     1       2.573  -5.366   7.630  0.00  0.00    +0.044 A 
ATOM     22  C   UNL     1       2.791  -4.975   8.935  0.00  0.00    +0.058 A 
ATOM     23  S   UNL     1       3.359  -6.424   9.694  0.00  0.00    -0.101 S 
BRANCH  19  25
ATOM     24  C   UNL     1       5.176  -9.114   7.891  0.00  0.00    +0.009 C 
ATOM     25  C   UNL     1       3.692  -8.985   8.239  0.00  0.00    +0.039 C 
ENDBRANCH  19  25
ENDBRANCH  15  21
ENDBRANCH   1  17
BRANCH   7  26
ATOM     26  C   UNL     1      -0.729   1.579   1.267  0.00  0.00    -0.032 C 
ATOM     27  C   UNL     1      -0.750   3.109   1.275  0.00  0.00    +0.011 C 
ATOM     28  C   UNL     1      -2.164   1.050   1.278  0.00  0.00    +0.011 C 
BRANCH  26  29
ATOM     29  C   UNL     1      -0.013   1.086   0.008  0.00  0.00    +0.003 C 
ATOM     30  C   UNL     1      -0.753   1.593  -1.232  0.00  0.00    +0.004 C 
ENDBRANCH  26  29
ENDBRANCH   7  26
TORSDOF 6
