REMARK  Name = ZINC39933039
REMARK  11 active torsions:
REMARK  status: ('A' for Active; 'I' for Inactive)
REMARK    1  A    between atoms: C_1  and  C_2
REMARK    2  A    between atoms: C_4  and  C_27
REMARK    3  A    between atoms: C_6  and  O_8
REMARK    4  A    between atoms: O_8  and  C_9
REMARK    5  A    between atoms: C_11  and  N_17
REMARK    6  A    between atoms: C_13  and  S_15
REMARK    7  A    between atoms: S_15  and  C_16
REMARK    8  A    between atoms: C_18  and  N_26
REMARK    9  A    between atoms: C_19  and  C_24
REMARK   10  A    between atoms: C_20  and  S_22
REMARK   11  A    between atoms: S_22  and  C_23
REMARK                            x       y       z     vdW  Elec       q    Type
REMARK                         _______ _______ _______ _____ _____    ______ ____
ROOT
ATOM      1  C   UNL     1       0.077  -2.316   3.455  0.00  0.00    +0.226 A 
ATOM      2  C   UNL     1       0.235  -3.043   4.631  0.00  0.00    +0.116 A 
ATOM      3  C   UNL     1       0.192  -2.360   5.842  0.00  0.00    +0.164 A 
ATOM      4  N   UNL     1       0.003  -1.044   5.838  0.00  0.00    -0.202 NA
ATOM      5  C   UNL     1      -0.144  -0.384   4.698  0.00  0.00    +0.193 A 
ATOM      6  N   UNL     1      -0.104  -1.002   3.526  0.00  0.00    -0.187 NA
ENDROOT
BRANCH   3   7
ATOM      7  N   UNL     1       0.346  -3.047   7.045  0.00  0.00    -0.198 N 
ATOM      8  C   UNL     1       0.789  -2.504   8.207  0.00  0.00    +0.140 A 
ATOM      9  C   UNL     1       0.797  -3.516   9.163  0.00  0.00    +0.125 A 
ATOM     10  C   UNL     1       0.320  -4.725   8.486  0.00  0.00    +0.138 A 
ATOM     11  N   UNL     1       0.061  -4.401   7.243  0.00  0.00    -0.156 NA
BRANCH   8  12
ATOM     12  N   UNL     1       1.163  -1.190   8.405  0.00  0.00    -0.342 N 
ATOM     13  H   UNL     1       1.122  -0.558   7.670  0.00  0.00    +0.144 HD
ATOM     14  H   UNL     1       1.468  -0.898   9.278  0.00  0.00    +0.144 HD
ENDBRANCH   8  12
BRANCH  10  15
ATOM     15  S   UNL     1       0.125  -6.319   9.211  0.00  0.00    -0.106 S 
ATOM     16  C   UNL     1      -0.490  -7.348   7.849  0.00  0.00    +0.091 C 
ENDBRANCH  10  15
BRANCH   9  17
ATOM     17  C   UNL     1       1.192  -3.400  10.534  0.00  0.00    +0.105 C 
ATOM     18  N   UNL     1       1.506  -3.307  11.622  0.00  0.00    -0.191 NA
ENDBRANCH   9  17
ENDBRANCH   3   7
BRANCH   5  19
ATOM     19  S   UNL     1      -0.394   1.359   4.742  0.00  0.00    -0.089 S 
ATOM     20  C   UNL     1      -0.386   1.848   2.995  0.00  0.00    +0.093 C 
ENDBRANCH   5  19
BRANCH   1  21
ATOM     21  O   UNL     1       0.113  -2.940   2.252  0.00  0.00    -0.438 OA
BRANCH  21  27
ATOM     22  C   UNL     1       2.352   0.086  -0.854  0.00  0.00    +0.044 C 
ATOM     23  C   UNL     1       1.133  -0.682  -0.412  0.00  0.00    -0.047 A 
ATOM     24  C   UNL     1      -0.036  -0.606  -1.146  0.00  0.00    +0.007 A 
ATOM     25  C   UNL     1      -1.155  -1.310  -0.743  0.00  0.00    -0.047 A 
ATOM     26  C   UNL     1      -1.108  -2.092   0.395  0.00  0.00    +0.049 A 
ATOM     27  C   UNL     1       0.064  -2.171   1.133  0.00  0.00    +0.131 A 
ATOM     28  C   UNL     1       1.187  -1.468   0.723  0.00  0.00    +0.049 A 
ATOM     29  C   UNL     1      -2.428  -1.224  -1.545  0.00  0.00    +0.044 C 
ENDBRANCH  21  27
ENDBRANCH   1  21
TORSDOF 7
