REMARK  Name = ZINC10693352
REMARK  10 active torsions:
REMARK  status: ('A' for Active; 'I' for Inactive)
REMARK    1  A    between atoms: C_1  and  C_2
REMARK    2  A    between atoms: C_5  and  C_37
REMARK    3  A    between atoms: C_6  and  N_8
REMARK    4  A    between atoms: C_9  and  C_11
REMARK    5  A    between atoms: C_11  and  C_13
REMARK    6  A    between atoms: C_11  and  O_19
REMARK    7  A    between atoms: O_19  and  C_20
REMARK    8  A    between atoms: C_20  and  C_22
REMARK    9  A    between atoms: C_22  and  N_23
REMARK   10  A    between atoms: C_31  and  C_33
REMARK                            x       y       z     vdW  Elec       q    Type
REMARK                         _______ _______ _______ _____ _____    ______ ____
ROOT
ATOM      1  C   UNL     1       1.157   3.579   0.013  0.00  0.00    +0.292 C 
ENDROOT
BRANCH   1   2
ATOM      2  C   UNL     1       1.184   2.072   0.015  0.00  0.00    +0.002 A 
ATOM      3  C   UNL     1      -0.001   1.360   0.025  0.00  0.00    +0.008 A 
ATOM      4  C   UNL     1       0.023  -0.022   0.026  0.00  0.00    +0.000 A 
ATOM      5  C   UNL     1       1.232  -0.692   0.018  0.00  0.00    +0.000 A 
ATOM      6  C   UNL     1       2.417   0.020   0.009  0.00  0.00    +0.000 A 
ATOM      7  C   UNL     1       2.393   1.402   0.007  0.00  0.00    +0.008 A 
ENDBRANCH   1   2
BRANCH   1   9
ATOM      8  N   UNL     1       0.513   3.833   2.388  0.00  0.00    -0.282 N 
ATOM      9  C   UNL     1       1.405   4.088   1.410  0.00  0.00    +0.263 C 
ATOM     10  O   UNL     1       2.407   4.727   1.654  0.00  0.00    -0.271 OA
ATOM     11  H   UNL     1      -0.325   3.393   2.177  0.00  0.00    +0.155 HD
BRANCH   8  17
ATOM     12  C   UNL     1       3.819   4.874   5.874  0.00  0.00    +0.044 C 
ATOM     13  C   UNL     1       2.390   4.716   5.424  0.00  0.00    -0.049 A 
ATOM     14  C   UNL     1       1.356   4.937   6.316  0.00  0.00    +0.004 A 
ATOM     15  C   UNL     1       0.043   4.793   5.906  0.00  0.00    +0.005 A 
ATOM     16  C   UNL     1      -0.239   4.427   4.604  0.00  0.00    -0.029 A 
ATOM     17  C   UNL     1       0.796   4.204   3.707  0.00  0.00    +0.037 A 
ATOM     18  C   UNL     1       2.114   4.344   4.123  0.00  0.00    +0.027 A 
ATOM     19  C   UNL     1      -1.671   4.270   4.159  0.00  0.00    +0.045 C 
ENDBRANCH   8  17
ENDBRANCH   1   9
BRANCH   1  20
ATOM     20  O   UNL     1       2.191   4.080  -0.875  0.00  0.00    -0.446 OA
BRANCH  20  21
ATOM     21  C   UNL     1       1.850   4.276  -2.158  0.00  0.00    +0.326 C 
ATOM     22  O   UNL     1       0.725   4.036  -2.527  0.00  0.00    -0.249 OA
BRANCH  21  23
ATOM     23  C   UNL     1       2.871   4.794  -3.139  0.00  0.00    +0.238 C 
BRANCH  23  24
ATOM     24  N   UNL     1       2.256   4.920  -4.463  0.00  0.00    -0.213 N 
ATOM     25  C   UNL     1       2.244   3.939  -5.389  0.00  0.00    +0.247 C 
ATOM     26  O   UNL     1       2.721   2.829  -5.289  0.00  0.00    -0.273 OA
ATOM     27  C   UNL     1       1.509   4.515  -6.577  0.00  0.00    +0.115 C 
ATOM     28  C   UNL     1       0.247   3.711  -6.869  0.00  0.00    +0.035 C 
ATOM     29  C   UNL     1       0.630   2.285  -7.274  0.00  0.00    +0.003 C 
ATOM     30  C   UNL     1       1.524   2.332  -8.515  0.00  0.00    +0.000 C 
ATOM     31  C   UNL     1       2.796   3.121  -8.199  0.00  0.00    +0.006 C 
ATOM     32  C   UNL     1       2.422   4.550  -7.798  0.00  0.00    +0.018 C 
ATOM     33  C   UNL     1       3.693   5.333  -7.462  0.00  0.00    +0.010 C 
ATOM     34  N   UNL     1       1.163   5.879  -6.155  0.00  0.00    -0.285 N 
ATOM     35  C   UNL     1       1.642   6.023  -4.905  0.00  0.00    +0.310 C 
ATOM     36  O   UNL     1       1.528   7.042  -4.251  0.00  0.00    -0.252 OA
ATOM     37  H   UNL     1       0.685   6.544  -6.675  0.00  0.00    +0.151 HD
ENDBRANCH  23  24
ENDBRANCH  21  23
ENDBRANCH  20  21
ENDBRANCH   1  20
TORSDOF 7
