REMARK  Name = ZINC51477075
REMARK  4 active torsions:
REMARK  status: ('A' for Active; 'I' for Inactive)
REMARK    1  A    between atoms: C_1  and  C_2
REMARK    2  A    between atoms: C_11  and  O_13
REMARK    3  A    between atoms: O_13  and  C_14
REMARK    4  A    between atoms: C_14  and  C_16
REMARK                            x       y       z     vdW  Elec       q    Type
REMARK                         _______ _______ _______ _____ _____    ______ ____
ROOT
ATOM      1  C   UNL     1       0.037   1.540   0.045  0.00  0.00    +0.045 C 
ATOM      2  C   UNL     1       0.010   0.034   0.025  0.00  0.00    -0.033 A 
ATOM      3  C   UNL     1      -0.028  -0.648  -1.149  0.00  0.00    +0.096 A 
ATOM      4  C   UNL     1      -0.052  -2.058  -1.140  0.00  0.00    +0.337 A 
ATOM      5  O   UNL     1      -0.087  -2.658  -2.200  0.00  0.00    -0.245 OA
ATOM      6  O   UNL     1      -0.038  -2.757   0.005  0.00  0.00    -0.422 OA
ATOM      7  C   UNL     1      -0.001  -2.141   1.206  0.00  0.00    +0.143 A 
ATOM      8  C   UNL     1       0.031  -0.735   1.272  0.00  0.00    +0.022 A 
ATOM      9  C   UNL     1       0.076  -0.092   2.514  0.00  0.00    +0.035 A 
ATOM     10  C   UNL     1       0.094  -0.834   3.661  0.00  0.00    +0.084 A 
ATOM     11  C   UNL     1       0.068  -2.226   3.602  0.00  0.00    +0.154 A 
ATOM     12  C   UNL     1       0.013  -2.878   2.381  0.00  0.00    +0.094 A 
ATOM     13 CL   UNL     1       0.150  -0.036   5.202  0.00  0.00    -0.080 Cl
ENDROOT
BRANCH  11  14
ATOM     14  O   UNL     1       0.087  -2.950   4.751  0.00  0.00    -0.421 OA
BRANCH  14  15
ATOM     15  C   UNL     1      -1.075  -3.114   5.415  0.00  0.00    +0.348 C 
ATOM     16  O   UNL     1      -2.114  -2.708   4.931  0.00  0.00    -0.244 OA
BRANCH  15  17
ATOM     17  C   UNL     1      -1.086  -3.784   6.725  0.00  0.00    +0.097 A 
ATOM     18  C   UNL     1      -2.254  -4.051   7.578  0.00  0.00    +0.056 A 
ATOM     19  C   UNL     1      -1.781  -4.679   8.665  0.00  0.00    +0.195 A 
ATOM     20  O   UNL     1      -0.451  -4.815   8.551  0.00  0.00    -0.470 OA
ATOM     21  C   UNL     1      -0.015  -4.294   7.401  0.00  0.00    +0.209 A 
ENDBRANCH  15  17
ENDBRANCH  14  15
ENDBRANCH  11  14
TORSDOF 3
