REMARK  Name = ZINC17067775
REMARK  5 active torsions:
REMARK  status: ('A' for Active; 'I' for Inactive)
REMARK    1  A    between atoms: C_1  and  C_2
REMARK    2  A    between atoms: N_14  and  C_15
REMARK    3  A    between atoms: C_19  and  C_20
REMARK    4  A    between atoms: C_20  and  O_22
REMARK    5  A    between atoms: O_22  and  C_23
REMARK                            x       y       z     vdW  Elec       q    Type
REMARK                         _______ _______ _______ _____ _____    ______ ____
ROOT
ATOM      1  C   UNL     1       9.140  -1.305   0.114  0.00  0.00    +0.044 C 
ATOM      2  C   UNL     1       8.135  -0.182   0.130  0.00  0.00    -0.050 A 
ATOM      3  C   UNL     1       6.793  -0.461   0.314  0.00  0.00    +0.005 A 
ATOM      4  C   UNL     1       5.872   0.568   0.328  0.00  0.00    +0.024 A 
ATOM      5  C   UNL     1       6.294   1.881   0.161  0.00  0.00    +0.041 A 
ATOM      6  C   UNL     1       7.639   2.160  -0.027  0.00  0.00    -0.026 A 
ATOM      7  C   UNL     1       8.556   1.122  -0.040  0.00  0.00    +0.008 A 
ATOM      8  C   UNL     1       8.133   3.571  -0.212  0.00  0.00    +0.038 C 
ATOM      9  C   UNL     1       6.993   4.481  -0.669  0.00  0.00    +0.024 C 
ATOM     10  C   UNL     1       5.803   4.302   0.283  0.00  0.00    +0.115 C 
ATOM     11  N   UNL     1       5.343   2.911   0.169  0.00  0.00    -0.255 N 
ATOM     12  C   UNL     1       4.028   2.630   0.079  0.00  0.00    +0.311 C 
ATOM     13  O   UNL     1       3.655   1.474   0.038  0.00  0.00    -0.252 OA
ATOM     14  N   UNL     1       3.127   3.631   0.035  0.00  0.00    -0.268 N 
ATOM     15  H   UNL     1       3.426   4.553  -0.002  0.00  0.00    +0.156 HD
ENDROOT
BRANCH  14  16
ATOM     16  C   UNL     1       1.762   3.342   0.042  0.00  0.00    +0.056 A 
ATOM     17  C   UNL     1       1.296   2.049  -0.078  0.00  0.00    +0.032 A 
ATOM     18  C   UNL     1      -0.041   1.823  -0.065  0.00  0.00    +0.048 A 
ATOM     19  S   UNL     1      -0.716   3.409   0.117  0.00  0.00    -0.088 S 
ATOM     20  C   UNL     1       0.802   4.345   0.171  0.00  0.00    +0.117 A 
BRANCH  20  21
ATOM     21  C   UNL     1       0.984   5.741   0.310  0.00  0.00    +0.347 C 
ATOM     22  O   UNL     1       2.107   6.209   0.328  0.00  0.00    -0.244 OA
BRANCH  21  23
ATOM     23  O   UNL     1      -0.088   6.553   0.423  0.00  0.00    -0.464 OA
ATOM     24  C   UNL     1       0.171   7.952   0.561  0.00  0.00    +0.280 C 
ENDBRANCH  21  23
ENDBRANCH  20  21
ENDBRANCH  14  16
TORSDOF 3
