REMARK  Name = ZINC00883768
REMARK  9 active torsions:
REMARK  status: ('A' for Active; 'I' for Inactive)
REMARK    1  A    between atoms: C_1  and  N_2
REMARK    2  A    between atoms: C_3  and  C_22
REMARK    3  A    between atoms: C_6  and  S_7
REMARK    4  A    between atoms: S_7  and  C_8
REMARK    5  A    between atoms: C_8  and  C_9
REMARK    6  A    between atoms: N_11  and  C_12
REMARK    7  A    between atoms: C_17  and  C_18
REMARK    8  A    between atoms: C_25  and  S_28
REMARK    9  A    between atoms: S_28  and  N_31
REMARK                            x       y       z     vdW  Elec       q    Type
REMARK                         _______ _______ _______ _____ _____    ______ ____
ROOT
ATOM      1  C   UNL     1      -9.475  -1.741  -0.864  0.00  0.00    +0.153 C 
ATOM      2  N   UNL     1      -8.921  -0.406  -0.627  0.00  0.00    -0.305 N 
ATOM      3  C   UNL     1      -9.618   0.773  -0.500  0.00  0.00    +0.165 A 
ATOM      4  N   UNL     1      -8.736   1.724  -0.298  0.00  0.00    -0.128 NA
ATOM      5  N   UNL     1      -7.551   1.226  -0.285  0.00  0.00    -0.122 NA
ATOM      6  C   UNL     1      -7.604  -0.071  -0.487  0.00  0.00    +0.192 A 
ENDROOT
BRANCH   3   7
ATOM      7  C   UNL     1     -11.086   0.939  -0.576  0.00  0.00    +0.019 A 
ATOM      8  C   UNL     1     -11.639   2.202  -0.791  0.00  0.00    +0.013 A 
ATOM      9  C   UNL     1     -13.008   2.349  -0.865  0.00  0.00    +0.029 A 
ATOM     10  C   UNL     1     -13.834   1.248  -0.717  0.00  0.00    +0.106 A 
ATOM     11  C   UNL     1     -13.292  -0.006  -0.499  0.00  0.00    +0.029 A 
ATOM     12  C   UNL     1     -11.924  -0.167  -0.427  0.00  0.00    +0.013 A 
BRANCH  10  13
ATOM     13  S   UNL     1     -15.582   1.445  -0.806  0.00  0.00    +0.061 S 
ATOM     14  O   UNL     1     -15.820   2.626  -1.560  0.00  0.00    -0.153 OA
ATOM     15  O   UNL     1     -16.115   0.182  -1.179  0.00  0.00    -0.153 OA
BRANCH  13  16
ATOM     16  N   UNL     1     -16.120   1.750   0.731  0.00  0.00    -0.172 NA
ATOM     17  C   UNL     1     -16.520   0.651   1.625  0.00  0.00    +0.137 C 
ATOM     18  C   UNL     1     -15.792   0.835   2.966  0.00  0.00    +0.177 C 
ATOM     19  O   UNL     1     -16.023   2.161   3.447  0.00  0.00    -0.377 OA
ATOM     20  C   UNL     1     -15.507   3.189   2.599  0.00  0.00    +0.177 C 
ATOM     21  C   UNL     1     -16.216   3.126   1.241  0.00  0.00    +0.137 C 
ENDBRANCH  13  16
ENDBRANCH  10  13
ENDBRANCH   3   7
BRANCH   6  22
ATOM     22  S   UNL     1      -6.232  -1.175  -0.557  0.00  0.00    -0.077 S 
BRANCH  22  23
ATOM     23  C   UNL     1      -4.875  -0.007  -0.290  0.00  0.00    +0.173 C 
BRANCH  23  24
ATOM     24  C   UNL     1      -3.563  -0.749  -0.310  0.00  0.00    +0.227 C 
ATOM     25  O   UNL     1      -3.547  -1.949  -0.487  0.00  0.00    -0.275 OA
ATOM     26  N   UNL     1      -2.408  -0.079  -0.131  0.00  0.00    -0.284 N 
ATOM     27  H   UNL     1      -2.424   0.866   0.089  0.00  0.00    +0.155 HD
BRANCH  26  28
ATOM     28  C   UNL     1      -1.185  -0.746  -0.262  0.00  0.00    +0.045 A 
ATOM     29  C   UNL     1      -1.098  -1.893  -1.040  0.00  0.00    +0.024 A 
ATOM     30  C   UNL     1       0.111  -2.549  -1.167  0.00  0.00    +0.002 A 
ATOM     31  C   UNL     1       1.234  -2.065  -0.521  0.00  0.00    +0.001 A 
ATOM     32  C   UNL     1       1.151  -0.920   0.250  0.00  0.00    +0.014 A 
ATOM     33  C   UNL     1      -0.056  -0.262   0.386  0.00  0.00    +0.076 A 
BRANCH  33  34
ATOM     34  C   UNL     1      -0.146   0.982   1.231  0.00  0.00    +0.419 C 
ATOM     35  F   UNL     1       1.111   1.268   1.776  0.00  0.00    -0.166 F 
ATOM     36  F   UNL     1      -0.565   2.055   0.438  0.00  0.00    -0.166 F 
ATOM     37  F   UNL     1      -1.067   0.778   2.264  0.00  0.00    -0.166 F 
ENDBRANCH  33  34
ENDBRANCH  26  28
ENDBRANCH  23  24
ENDBRANCH  22  23
ENDBRANCH   6  22
TORSDOF 8
