REMARK  Name = ZINC38975544
REMARK  8 active torsions:
REMARK  status: ('A' for Active; 'I' for Inactive)
REMARK    1  A    between atoms: C_1  and  C_2
REMARK    2  A    between atoms: C_5  and  C_8
REMARK    3  A    between atoms: C_8  and  S_9
REMARK    4  A    between atoms: S_9  and  C_10
REMARK    5  A    between atoms: C_14  and  C_17
REMARK    6  A    between atoms: C_17  and  C_19
REMARK    7  A    between atoms: C_17  and  N_29
REMARK    8  A    between atoms: C_19  and  C_20
REMARK                            x       y       z     vdW  Elec       q    Type
REMARK                         _______ _______ _______ _____ _____    ______ ____
ROOT
ATOM      1  C   UNL     1       1.628  -6.666  -0.043  0.00  0.00    +0.262 C 
ATOM      2  N   UNL     1       0.808  -7.119  -1.198  0.00  0.00    -0.218 NA
ATOM      3  N   UNL     1       0.288  -8.420  -0.763  0.00  0.00    -0.228 NA
ATOM      4  C   UNL     1       0.344  -8.405   0.714  0.00  0.00    +0.188 C 
ATOM      5  O   UNL     1       0.871  -7.121   1.101  0.00  0.00    -0.334 OA
ATOM      6  H   UNL     1       1.374  -7.214  -2.027  0.00  0.00    +0.144 HD
ATOM      7  H   UNL     1       0.843  -9.175  -1.138  0.00  0.00    +0.143 HD
ENDROOT
BRANCH   1   8
ATOM      8  S   UNL     1       1.777  -4.858  -0.034  0.00  0.00    -0.108 S 
BRANCH   8   9
ATOM      9  C   UNL     1       0.059  -4.275  -0.021  0.00  0.00    +0.108 C 
BRANCH   9  14
ATOM     10  C   UNL     1      -0.018   1.503   0.010  0.00  0.00    +0.044 C 
ATOM     11  C   UNL     1       0.002  -0.004   0.002  0.00  0.00    -0.050 A 
ATOM     12  C   UNL     1       0.006  -0.689  -1.199  0.00  0.00    +0.003 A 
ATOM     13  C   UNL     1       0.025  -2.071  -1.206  0.00  0.00    +0.005 A 
ATOM     14  C   UNL     1       0.040  -2.768  -0.013  0.00  0.00    -0.037 A 
ATOM     15  C   UNL     1       0.037  -2.084   1.188  0.00  0.00    +0.005 A 
ATOM     16  C   UNL     1       0.023  -0.702   1.195  0.00  0.00    +0.003 A 
ENDBRANCH   9  14
ENDBRANCH   8   9
ENDBRANCH   1   8
BRANCH   4  17
ATOM     17  C   UNL     1      -1.060  -8.593   1.292  0.00  0.00    -0.025 C 
BRANCH  17  18
ATOM     18  N   UNL     1      -1.606  -9.880   0.842  0.00  0.00    +0.383 N 
ATOM     19  H   UNL     1      -1.653  -9.892  -0.166  0.00  0.00    -0.089 HD
ATOM     20  H   UNL     1      -1.009 -10.629   1.160  0.00  0.00    -0.089 HD
ATOM     21  H   UNL     1      -2.532 -10.004   1.223  0.00  0.00    -0.089 HD
ENDBRANCH  17  18
BRANCH  17  22
ATOM     22  C   UNL     1      -0.989  -8.575   2.820  0.00  0.00    +0.025 C 
BRANCH  22  23
ATOM     23  C   UNL     1      -2.383  -8.636   3.389  0.00  0.00    -0.024 A 
ATOM     24  C   UNL     1      -3.172  -9.847   3.633  0.00  0.00    +0.003 A 
ATOM     25  C   UNL     1      -2.938 -11.210   3.449  0.00  0.00    +0.010 A 
ATOM     26  C   UNL     1      -3.905 -12.116   3.787  0.00  0.00    +0.001 A 
ATOM     27  C   UNL     1      -5.117 -11.690   4.312  0.00  0.00    +0.002 A 
ATOM     28  C   UNL     1      -5.368 -10.349   4.502  0.00  0.00    +0.026 A 
ATOM     29  C   UNL     1      -4.399  -9.410   4.166  0.00  0.00    +0.047 A 
ATOM     30  N   UNL     1      -4.346  -8.036   4.234  0.00  0.00    -0.360 N 
ATOM     31  C   UNL     1      -3.136  -7.593   3.772  0.00  0.00    +0.087 A 
ATOM     32  H   UNL     1      -5.058  -7.466   4.563  0.00  0.00    +0.165 HD
ENDBRANCH  22  23
ENDBRANCH  17  22
ENDBRANCH   4  17
TORSDOF 7
