REMARK  Name = ZINC22024688
REMARK  6 active torsions:
REMARK  status: ('A' for Active; 'I' for Inactive)
REMARK    1  A    between atoms: C_1  and  O_2
REMARK    2  A    between atoms: O_2  and  C_3
REMARK    3  A    between atoms: C_13  and  C_15
REMARK    4  A    between atoms: C_15  and  S_16
REMARK    5  A    between atoms: S_16  and  C_17
REMARK    6  A    between atoms: C_17  and  C_18
REMARK                            x       y       z     vdW  Elec       q    Type
REMARK                         _______ _______ _______ _____ _____    ______ ____
ROOT
ATOM      1  C   UNL     1       4.319  -5.284   7.157  0.00  0.00    +0.165 C 
ENDROOT
BRANCH   1  12
ATOM      2  C   UNL     1       0.626  -0.619   1.042  0.00  0.00    +0.121 A 
ATOM      3  C   UNL     1       1.207   0.134   2.059  0.00  0.00    +0.048 A 
ATOM      4  C   UNL     1       1.841  -0.463   3.116  0.00  0.00    +0.032 A 
ATOM      5  C   UNL     1       1.926  -1.872   3.209  0.00  0.00    +0.081 A 
ATOM      6  C   UNL     1       1.327  -2.605   2.160  0.00  0.00    +0.044 A 
ATOM      7  C   UNL     1       0.687  -2.003   1.105  0.00  0.00    +0.063 A 
ATOM      8  S   UNL     1       1.646  -4.285   2.642  0.00  0.00    -0.052 S 
ATOM      9  C   UNL     1       2.526  -3.921   4.154  0.00  0.00    +0.165 A 
ATOM     10  N   UNL     1       2.512  -2.610   4.178  0.00  0.00    -0.225 NA
ATOM     11  N   UNL     1       3.083  -4.801   5.069  0.00  0.00    -0.264 N 
ATOM     12  C   UNL     1       3.714  -4.327   6.162  0.00  0.00    +0.228 C 
ATOM     13  O   UNL     1       3.795  -3.131   6.344  0.00  0.00    -0.275 OA
ATOM     14  H   UNL     1       3.018  -5.758   4.923  0.00  0.00    +0.157 HD
BRANCH   2  16
ATOM     15  C   UNL     1      -0.017   1.425   0.010  0.00  0.00    +0.277 C 
ATOM     16  O   UNL     1       0.002  -0.004   0.002  0.00  0.00    -0.495 OA
ENDBRANCH   2  16
ENDBRANCH   1  12
BRANCH   1  17
ATOM     17  S   UNL     1       5.090  -4.347   8.505  0.00  0.00    -0.144 S 
BRANCH  17  18
ATOM     18  C   UNL     1       5.762  -5.627   9.601  0.00  0.00    +0.143 C 
BRANCH  18  19
ATOM     19  C   UNL     1       6.439  -4.975  10.778  0.00  0.00    +0.121 A 
ATOM     20  N   UNL     1       7.020  -5.753  11.727  0.00  0.00    -0.310 N 
ATOM     21  H   UNL     1       6.992  -6.719  11.634  0.00  0.00    +0.170 HD
ATOM     22  C   UNL     1       7.636  -5.213  12.796  0.00  0.00    +0.260 A 
ATOM     23  O   UNL     1       8.153  -5.923  13.640  0.00  0.00    -0.267 OA
ATOM     24  C   UNL     1       7.672  -3.786  12.922  0.00  0.00    +0.075 A 
ATOM     25  C   UNL     1       8.283  -2.985  13.993  0.00  0.00    -0.023 A 
ATOM     26  C   UNL     1       8.182  -1.649  13.886  0.00  0.00    -0.004 A 
ATOM     27  S   UNL     1       7.285  -1.376  12.374  0.00  0.00    -0.073 S 
ATOM     28  C   UNL     1       7.047  -3.066  11.895  0.00  0.00    +0.116 A 
ATOM     29  N   UNL     1       6.462  -3.672  10.864  0.00  0.00    -0.226 NA
ATOM     30  C   UNL     1       8.836  -0.935  15.038  0.00  0.00    +0.043 C 
ATOM     31  C   UNL     1       8.999  -2.021  16.124  0.00  0.00    +0.010 C 
ATOM     32  C   UNL     1       9.054  -3.307  15.277  0.00  0.00    +0.037 C 
ENDBRANCH  18  19
ENDBRANCH  17  18
ENDBRANCH   1  17
TORSDOF 5
