REMARK  Name = ZINC07116232
REMARK  9 active torsions:
REMARK  status: ('A' for Active; 'I' for Inactive)
REMARK    1  A    between atoms: C_1  and  O_2
REMARK    2  A    between atoms: O_2  and  C_3
REMARK    3  A    between atoms: C_6  and  C_9
REMARK    4  A    between atoms: C_9  and  N_10
REMARK    5  A    between atoms: N_10  and  C_11
REMARK    6  A    between atoms: C_14  and  C_16
REMARK    7  A    between atoms: C_16  and  C_17
REMARK    8  A    between atoms: C_17  and  C_18
REMARK    9  A    between atoms: C_20  and  C_23
REMARK                            x       y       z     vdW  Elec       q    Type
REMARK                         _______ _______ _______ _____ _____    ______ ____
ROOT
ATOM      1  N   UNL     1      -5.421  -2.856  -1.341  0.00  0.00    -0.294 N 
ATOM      2  C   UNL     1      -6.152  -1.917  -1.976  0.00  0.00    +0.217 C 
ATOM      3  O   UNL     1      -6.381  -0.858  -1.432  0.00  0.00    -0.276 OA
ENDROOT
BRANCH   1   4
ATOM      4  C   UNL     1      -5.052  -4.091  -2.037  0.00  0.00    +0.077 C 
ATOM      5  C   UNL     1      -4.275  -5.143  -1.244  0.00  0.00    +0.024 C 
ATOM      6  C   UNL     1      -3.567  -4.323  -2.325  0.00  0.00    +0.024 C 
ENDBRANCH   1   4
BRANCH   1   7
ATOM      7  C   UNL     1      -4.997  -2.641   0.044  0.00  0.00    +0.143 C 
BRANCH   7  11
ATOM      8  C   UNL     1      -1.199  -0.682   0.083  0.00  0.00    +0.120 A 
ATOM      9  C   UNL     1      -2.367   0.067   0.080  0.00  0.00    +0.046 A 
ATOM     10  C   UNL     1      -3.593  -0.569   0.067  0.00  0.00    +0.009 A 
ATOM     11  C   UNL     1      -3.657  -1.950   0.058  0.00  0.00    -0.030 A 
ATOM     12  C   UNL     1      -2.495  -2.698   0.061  0.00  0.00    +0.009 A 
ATOM     13  C   UNL     1      -1.266  -2.067   0.067  0.00  0.00    +0.046 A 
BRANCH   8  15
ATOM     14  C   UNL     1       0.002   1.370   0.110  0.00  0.00    +0.277 C 
ATOM     15  O   UNL     1       0.009  -0.059   0.095  0.00  0.00    -0.495 OA
ENDBRANCH   8  15
ENDBRANCH   7  11
ENDBRANCH   1   7
BRANCH   2  16
ATOM     16  C   UNL     1      -6.684  -2.185  -3.360  0.00  0.00    +0.105 C 
BRANCH  16  17
ATOM     17  C   UNL     1      -7.365  -0.925  -3.897  0.00  0.00    +0.108 C 
BRANCH  17  18
ATOM     18  C   UNL     1      -7.897  -1.192  -5.281  0.00  0.00    +0.228 A 
ATOM     19  N   UNL     1      -9.086  -1.642  -5.566  0.00  0.00    -0.191 NA
ATOM     20  C   UNL     1      -9.226  -1.764  -6.898  0.00  0.00    +0.203 A 
ATOM     21  N   UNL     1      -8.109  -1.385  -7.473  0.00  0.00    -0.056 NA
ATOM     22  O   UNL     1      -7.229  -1.002  -6.426  0.00  0.00    -0.338 OA
BRANCH  20  23
ATOM     23  C   UNL     1     -10.440  -2.245  -7.600  0.00  0.00    +0.029 A 
ATOM     24  C   UNL     1     -10.473  -2.336  -8.992  0.00  0.00    +0.019 A 
ATOM     25  C   UNL     1     -11.626  -2.787  -9.536  0.00  0.00    +0.046 A 
ATOM     26  S   UNL     1     -12.639  -3.073  -8.098  0.00  0.00    -0.104 S 
ATOM     27  C   UNL     1     -11.550  -2.615  -6.904  0.00  0.00    +0.057 A 
ENDBRANCH  20  23
ENDBRANCH  17  18
ENDBRANCH  16  17
ENDBRANCH   2  16
TORSDOF 8
