REMARK  Name = ZINC14062072
REMARK  16 active torsions:
REMARK  status: ('A' for Active; 'I' for Inactive)
REMARK    1  A    between atoms: C_1  and  C_2
REMARK    2  A    between atoms: C_2  and  N_3
REMARK    3  A    between atoms: N_3  and  C_4
REMARK    4  A    between atoms: N_3  and  S_6
REMARK    5  A    between atoms: C_4  and  C_5
REMARK    6  A    between atoms: S_6  and  C_9
REMARK    7  A    between atoms: C_15  and  C_20
REMARK    8  A    between atoms: N_22  and  C_23
REMARK    9  A    between atoms: C_23  and  C_24
REMARK   10  A    between atoms: C_24  and  N_25
REMARK   11  A    between atoms: N_25  and  C_26
REMARK   12  A    between atoms: N_25  and  C_29
REMARK   13  A    between atoms: C_26  and  C_27
REMARK   14  A    between atoms: C_26  and  C_28
REMARK   15  A    between atoms: C_29  and  C_30
REMARK   16  A    between atoms: C_29  and  C_31
REMARK                            x       y       z     vdW  Elec       q    Type
REMARK                         _______ _______ _______ _____ _____    ______ ____
ROOT
ATOM      1  C   UNL     1      -3.959   4.305   1.817  0.00  0.00    +0.106 A 
ATOM      2  C   UNL     1      -3.734   5.471   2.535  0.00  0.00    +0.030 A 
ATOM      3  C   UNL     1      -4.778   6.310   2.856  0.00  0.00    +0.028 A 
ATOM      4  C   UNL     1      -6.073   5.988   2.458  0.00  0.00    +0.050 A 
ATOM      5  C   UNL     1      -6.296   4.806   1.730  0.00  0.00    +0.012 A 
ATOM      6  C   UNL     1      -5.220   3.972   1.411  0.00  0.00    +0.039 A 
ATOM      7  C   UNL     1      -7.663   4.463   1.308  0.00  0.00    +0.051 A 
ATOM      8  C   UNL     1      -8.680   5.312   1.639  0.00  0.00    +0.083 A 
ATOM      9  C   UNL     1      -8.384   6.526   2.397  0.00  0.00    +0.250 A 
ATOM     10  N   UNL     1      -7.127   6.819   2.773  0.00  0.00    -0.322 N 
ATOM     11  O   UNL     1      -9.291   7.284   2.692  0.00  0.00    -0.268 OA
ATOM     12  H   UNL     1      -6.958   7.631   3.275  0.00  0.00    +0.169 HD
ENDROOT
BRANCH   7  13
ATOM     13  C   UNL     1      -7.930   3.223   0.539  0.00  0.00    +0.245 C 
ATOM     14  O   UNL     1      -7.005   2.539   0.149  0.00  0.00    -0.270 OA
ATOM     15  N   UNL     1      -9.199   2.856   0.274  0.00  0.00    -0.313 N 
ATOM     16  H   UNL     1      -9.935   3.438   0.521  0.00  0.00    +0.149 HD
BRANCH  15  17
ATOM     17  C   UNL     1      -9.468   1.577  -0.388  0.00  0.00    +0.086 C 
BRANCH  17  18
ATOM     18  C   UNL     1     -10.977   1.404  -0.570  0.00  0.00    -0.059 C 
BRANCH  18  19
ATOM     19  N   UNL     1     -11.253   0.080  -1.144  0.00  0.00    +0.384 N 
ATOM     20  H   UNL     1     -10.806  -0.629  -0.583  0.00  0.00    -0.081 HD
BRANCH  19  21
ATOM     21  C   UNL     1     -12.703  -0.153  -1.163  0.00  0.00    -0.074 C 
ATOM     22  C   UNL     1     -12.984  -1.584  -1.627  0.00  0.00    -0.014 C 
ATOM     23  C   UNL     1     -13.271   0.048   0.243  0.00  0.00    -0.014 C 
ENDBRANCH  19  21
BRANCH  19  24
ATOM     24  C   UNL     1     -10.729   0.022  -2.515  0.00  0.00    -0.074 C 
ATOM     25  C   UNL     1     -10.725   1.428  -3.119  0.00  0.00    -0.014 C 
ATOM     26  C   UNL     1      -9.302  -0.528  -2.494  0.00  0.00    -0.014 C 
ENDBRANCH  19  24
ENDBRANCH  18  19
ENDBRANCH  17  18
ENDBRANCH  15  17
ENDBRANCH   7  13
BRANCH   1  27
ATOM     27  S   UNL     1      -2.606   3.248   1.419  0.00  0.00    +0.061 S 
ATOM     28  O   UNL     1      -3.150   1.952   1.210  0.00  0.00    -0.153 OA
ATOM     29  O   UNL     1      -1.594   3.503   2.383  0.00  0.00    -0.153 OA
BRANCH  27  30
ATOM     30  N   UNL     1      -2.006   3.750  -0.041  0.00  0.00    -0.177 NA
BRANCH  30  32
ATOM     31  C   UNL     1      -1.573   6.145  -0.283  0.00  0.00    +0.022 C 
ATOM     32  C   UNL     1      -0.948   4.762  -0.089  0.00  0.00    +0.106 C 
ENDBRANCH  30  32
BRANCH  30  33
ATOM     33  C   UNL     1      -2.533   3.182  -1.284  0.00  0.00    +0.106 C 
ATOM     34  C   UNL     1      -1.644   2.020  -1.731  0.00  0.00    +0.022 C 
ENDBRANCH  30  33
ENDBRANCH  27  30
ENDBRANCH   1  27
TORSDOF 10
