REMARK  Name = ZINC12415407
REMARK  7 active torsions:
REMARK  status: ('A' for Active; 'I' for Inactive)
REMARK    1  A    between atoms: C_4  and  S_7
REMARK    2  A    between atoms: S_7  and  C_10
REMARK    3  A    between atoms: C_11  and  N_34
REMARK    4  A    between atoms: C_12  and  C_23
REMARK    5  A    between atoms: C_14  and  N_15
REMARK    6  A    between atoms: N_15  and  C_16
REMARK    7  A    between atoms: C_23  and  C_25
REMARK                            x       y       z     vdW  Elec       q    Type
REMARK                         _______ _______ _______ _____ _____    ______ ____
ROOT
ATOM      1  C   UNL     1      -0.081   0.176  -0.223  0.00  0.00    +0.143 A 
ATOM      2  C   UNL     1      -0.063   1.482   0.200  0.00  0.00    +0.070 A 
ATOM      3  C   UNL     1       1.178   2.117   0.334  0.00  0.00    +0.084 A 
ATOM      4  S   UNL     1       2.312   0.827  -0.151  0.00  0.00    -0.066 S 
ATOM      5  C   UNL     1       1.118  -0.453  -0.497  0.00  0.00    +0.098 A 
ENDROOT
BRANCH   1   6
ATOM      6  S   UNL     1      -1.607  -0.683  -0.413  0.00  0.00    +0.029 S 
ATOM      7  O   UNL     1      -2.546   0.261  -0.911  0.00  0.00    -0.164 OA
ATOM      8  O   UNL     1      -1.310  -1.894  -1.094  0.00  0.00    -0.164 OA
BRANCH   6  12
ATOM      9  C   UNL     1      -3.015  -1.843   3.730  0.00  0.00    +0.000 A 
ATOM     10  C   UNL     1      -3.393  -0.630   3.186  0.00  0.00    +0.002 A 
ATOM     11  C   UNL     1      -2.963  -0.276   1.921  0.00  0.00    +0.027 A 
ATOM     12  C   UNL     1      -2.155  -1.135   1.200  0.00  0.00    +0.094 A 
ATOM     13  C   UNL     1      -1.780  -2.350   1.742  0.00  0.00    +0.027 A 
ATOM     14  C   UNL     1      -2.206  -2.702   3.009  0.00  0.00    +0.002 A 
ENDBRANCH   6  12
ENDBRANCH   1   6
BRANCH   2  15
ATOM     15  N   UNL     1      -1.245   2.157   0.482  0.00  0.00    -0.355 N 
ATOM     16  H   UNL     1      -2.098   1.707   0.376  0.00  0.00    +0.142 HD
ATOM     17  H   UNL     1      -1.217   3.079   0.784  0.00  0.00    +0.142 HD
ENDBRANCH   2  15
BRANCH   5  18
ATOM     18  N   UNL     1       1.337  -1.749  -0.931  0.00  0.00    -0.307 N 
ATOM     19  H   UNL     1       0.596  -2.372  -0.992  0.00  0.00    +0.153 HD
BRANCH  18  20
ATOM     20  C   UNL     1       2.627  -2.160  -1.281  0.00  0.00    +0.032 A 
ATOM     21  C   UNL     1       3.498  -1.271  -1.897  0.00  0.00    +0.026 A 
ATOM     22  C   UNL     1       4.773  -1.678  -2.236  0.00  0.00    +0.040 A 
ATOM     23  C   UNL     1       5.180  -2.975  -1.974  0.00  0.00    +0.124 A 
ATOM     24  C   UNL     1       4.311  -3.865  -1.364  0.00  0.00    +0.040 A 
ATOM     25  C   UNL     1       3.037  -3.461  -1.018  0.00  0.00    +0.026 A 
ATOM     26  F   UNL     1       6.426  -3.373  -2.312  0.00  0.00    -0.205 F 
ENDBRANCH  18  20
ENDBRANCH   5  18
BRANCH   3  27
ATOM     27  C   UNL     1       1.458   3.433   0.744  0.00  0.00    +0.202 C 
ATOM     28  O   UNL     1       0.547   4.226   0.914  0.00  0.00    -0.286 OA
BRANCH  27  29
ATOM     29  C   UNL     1       2.857   3.855   0.969  0.00  0.00    +0.027 A 
ATOM     30  C   UNL     1       3.219   5.193   0.802  0.00  0.00    +0.015 A 
ATOM     31  C   UNL     1       4.524   5.585   1.011  0.00  0.00    +0.050 A 
ATOM     32  C   UNL     1       5.481   4.653   1.388  0.00  0.00    +0.166 A 
ATOM     33  C   UNL     1       5.125   3.315   1.557  0.00  0.00    +0.167 A 
ATOM     34  C   UNL     1       3.818   2.918   1.354  0.00  0.00    +0.061 A 
ATOM     35  O   UNL     1       6.236   2.612   1.925  0.00  0.00    -0.453 OA
ATOM     36  C   UNL     1       7.183   3.598   2.377  0.00  0.00    +0.466 C 
ATOM     37  O   UNL     1       6.813   4.785   1.651  0.00  0.00    -0.453 OA
ENDBRANCH  27  29
ENDBRANCH   3  27
TORSDOF 7
