REMARK  Name = ZINC66348857
REMARK  5 active torsions:
REMARK  status: ('A' for Active; 'I' for Inactive)
REMARK    1  A    between atoms: C_6  and  C_7
REMARK    2  A    between atoms: C_7  and  C_9
REMARK    3  A    between atoms: C_7  and  N_14
REMARK    4  A    between atoms: N_17  and  N_18
REMARK    5  A    between atoms: C_19  and  C_21
REMARK                            x       y       z     vdW  Elec       q    Type
REMARK                         _______ _______ _______ _____ _____    ______ ____
ROOT
ATOM      1  N   UNL     1      -1.162  -1.939   0.891  0.00  0.00    -0.287 N 
ATOM      2  C   UNL     1      -2.258  -2.480   1.459  0.00  0.00    +0.317 C 
ATOM      3  O   UNL     1      -3.355  -2.003   1.240  0.00  0.00    -0.251 OA
ATOM      4  N   UNL     1      -2.138  -3.551   2.268  0.00  0.00    -0.218 N 
ATOM      5  H   UNL     1      -0.287  -2.319   1.065  0.00  0.00    +0.151 HD
ATOM      6  H   UNL     1      -2.927  -3.941   2.677  0.00  0.00    +0.174 HD
ENDROOT
BRANCH   4   7
ATOM      7  N   UNL     1      -0.875  -4.101   2.520  0.00  0.00    -0.231 N 
ATOM      8  C   UNL     1      -0.755  -5.171   3.330  0.00  0.00    +0.258 C 
ATOM      9  O   UNL     1      -1.741  -5.659   3.841  0.00  0.00    -0.271 OA
ATOM     10  H   UNL     1      -0.086  -3.711   2.112  0.00  0.00    +0.173 HD
BRANCH   8  11
ATOM     11  C   UNL     1       0.605  -5.763   3.601  0.00  0.00    +0.205 C 
ATOM     12  C   UNL     1       1.190  -6.348   2.298  0.00  0.00    +0.043 C 
ATOM     13  C   UNL     1       1.877  -7.648   2.800  0.00  0.00    +0.031 C 
ATOM     14  C   UNL     1       0.915  -8.067   3.940  0.00  0.00    +0.161 C 
ATOM     15  O   UNL     1       0.489  -6.834   4.545  0.00  0.00    -0.367 OA
ENDBRANCH   8  11
ENDBRANCH   4   7
BRANCH   1  16
ATOM     16  C   UNL     1      -1.293  -0.775   0.011  0.00  0.00    +0.136 C 
BRANCH  16  22
ATOM     17  C   UNL     1      -0.017   1.378   0.010  0.00  0.00    +0.007 A 
ATOM     18  C   UNL     1       1.171   2.086   0.002  0.00  0.00    +0.020 A 
ATOM     19  C   UNL     1       2.378   1.410  -0.013  0.00  0.00    +0.041 A 
ATOM     20  C   UNL     1       2.396   0.027  -0.021  0.00  0.00    +0.020 A 
ATOM     21  C   UNL     1       1.208  -0.679  -0.013  0.00  0.00    +0.007 A 
ATOM     22  C   UNL     1       0.002  -0.004   0.002  0.00  0.00    -0.023 A 
ATOM     23 CL   UNL     1       3.870   2.298  -0.023  0.00  0.00    -0.084 Cl
ENDBRANCH  16  22
BRANCH  16  24
ATOM     24  C   UNL     1      -1.612  -1.236  -1.388  0.00  0.00    -0.016 A 
ATOM     25  C   UNL     1      -2.523  -0.544  -2.164  0.00  0.00    +0.013 A 
ATOM     26  C   UNL     1      -2.787  -0.986  -3.418  0.00  0.00    +0.045 A 
ATOM     27  S   UNL     1      -1.733  -2.422  -3.534  0.00  0.00    -0.105 S 
ATOM     28  C   UNL     1      -1.006  -2.333  -1.905  0.00  0.00    +0.051 A 
ENDBRANCH  16  24
ENDBRANCH   1  16
TORSDOF 5
