REMARK  Name = ZINC33936972
REMARK  11 active torsions:
REMARK  status: ('A' for Active; 'I' for Inactive)
REMARK    1  A    between atoms: C_1  and  C_2
REMARK    2  A    between atoms: C_2  and  C_3
REMARK    3  A    between atoms: C_3  and  C_5
REMARK    4  A    between atoms: C_3  and  N_17
REMARK    5  A    between atoms: N_9  and  C_10
REMARK    6  A    between atoms: C_10  and  C_11
REMARK    7  A    between atoms: N_17  and  C_18
REMARK    8  A    between atoms: N_17  and  C_24
REMARK    9  A    between atoms: C_18  and  C_19
REMARK   10  A    between atoms: C_24  and  C_25
REMARK   11  A    between atoms: C_30  and  C_37
REMARK                            x       y       z     vdW  Elec       q    Type
REMARK                         _______ _______ _______ _____ _____    ______ ____
ROOT
ATOM      1  N   UNL     1       2.390   0.034  -1.011  0.00  0.00    +0.392 N 
ATOM      2  H   UNL     1       2.958  -0.051  -0.182  0.00  0.00    -0.080 HD
ENDROOT
BRANCH   1   3
ATOM      3  C   UNL     1       1.151  -0.736  -0.836  0.00  0.00    +0.003 C 
BRANCH   3   4
ATOM      4  C   UNL     1       0.816  -0.822   0.631  0.00  0.00    +0.138 A 
ATOM      5  N   UNL     1       0.839   0.161   1.498  0.00  0.00    -0.115 NA
ATOM      6  N   UNL     1       0.490  -0.312   2.644  0.00  0.00    -0.023 NA
ATOM      7  N   UNL     1       0.245  -1.571   2.531  0.00  0.00    -0.044 NA
ATOM      8  N   UNL     1       0.430  -1.922   1.304  0.00  0.00    -0.228 N 
BRANCH   8   9
ATOM      9  C   UNL     1       0.255  -3.266   0.747  0.00  0.00    +0.178 C 
BRANCH   9  10
ATOM     10  C   UNL     1       1.573  -4.036   0.851  0.00  0.00    +0.140 C 
ATOM     11  C   UNL     1       1.387  -5.491   0.351  0.00  0.00    +0.035 C 
ATOM     12  C   UNL     1       2.839  -5.847  -0.068  0.00  0.00    +0.031 C 
ATOM     13  C   UNL     1       3.370  -4.495  -0.592  0.00  0.00    +0.160 C 
ATOM     14  O   UNL     1       2.557  -3.460  -0.023  0.00  0.00    -0.375 OA
ENDBRANCH   9  10
ENDBRANCH   8   9
ENDBRANCH   3   4
BRANCH   3  16
ATOM     15  C   UNL     1       0.266  -0.108  -3.087  0.00  0.00    +0.002 C 
ATOM     16  C   UNL     1       0.009  -0.040  -1.580  0.00  0.00    -0.011 C 
ENDBRANCH   3  16
ENDBRANCH   1   3
BRANCH   1  17
ATOM     17  C   UNL     1       2.060   1.447  -1.238  0.00  0.00    -0.034 C 
BRANCH  17  18
ATOM     18  C   UNL     1       1.481   2.036   0.023  0.00  0.00    -0.027 A 
ATOM     19  C   UNL     1       2.114   2.393   1.167  0.00  0.00    +0.009 A 
ATOM     20  C   UNL     1       1.371   2.920   2.207  0.00  0.00    +0.008 A 
ATOM     21  C   UNL     1       0.032   3.064   2.052  0.00  0.00    +0.045 A 
ATOM     22  S   UNL     1      -0.215   2.451   0.394  0.00  0.00    -0.103 S 
ENDBRANCH  17  18
ENDBRANCH   1  17
BRANCH   1  23
ATOM     23  C   UNL     1       3.131  -0.488  -2.168  0.00  0.00    -0.036 C 
BRANCH  23  24
ATOM     24  C   UNL     1       4.464   0.207  -2.265  0.00  0.00    +0.001 A 
ATOM     25  C   UNL     1       5.565  -0.364  -1.718  0.00  0.00    +0.017 A 
ATOM     26  C   UNL     1       6.846   0.337  -1.830  0.00  0.00    -0.001 A 
ATOM     27  C   UNL     1       8.016  -0.203  -1.286  0.00  0.00    +0.010 A 
ATOM     28  C   UNL     1       9.195   0.476  -1.408  0.00  0.00    +0.004 A 
ATOM     29  C   UNL     1       9.242   1.697  -2.067  0.00  0.00    -0.048 A 
ATOM     30  C   UNL     1       8.102   2.248  -2.610  0.00  0.00    +0.029 A 
ATOM     31  C   UNL     1       6.890   1.575  -2.499  0.00  0.00    +0.049 A 
ATOM     32  N   UNL     1       5.734   2.102  -3.034  0.00  0.00    -0.322 N 
ATOM     33  H   UNL     1       5.766   2.955  -3.495  0.00  0.00    +0.169 HD
ATOM     34  C   UNL     1       4.563   1.448  -2.931  0.00  0.00    +0.251 A 
ATOM     35  O   UNL     1       3.562   1.942  -3.420  0.00  0.00    -0.268 OA
ATOM     36  C   UNL     1      10.555   2.428  -2.189  0.00  0.00    +0.044 C 
ENDBRANCH  23  24
ENDBRANCH   1  23
TORSDOF 9
