REMARK  Name = ZINC62038758
REMARK  14 active torsions:
REMARK  status: ('A' for Active; 'I' for Inactive)
REMARK    1  A    between atoms: C_1  and  C_2
REMARK    2  A    between atoms: C_7  and  S_19
REMARK    3  A    between atoms: C_11  and  C_12
REMARK    4  A    between atoms: C_12  and  O_14
REMARK    5  A    between atoms: O_14  and  C_15
REMARK    6  A    between atoms: C_15  and  C_16
REMARK    7  A    between atoms: C_16  and  C_17
REMARK    8  A    between atoms: C_16  and  C_18
REMARK    9  A    between atoms: S_19  and  C_20
REMARK   10  A    between atoms: C_20  and  C_22
REMARK   11  A    between atoms: C_20  and  C_23
REMARK   12  A    between atoms: N_25  and  C_26
REMARK   13  A    between atoms: C_28  and  C_33
REMARK   14  A    between atoms: C_31  and  O_32
REMARK                            x       y       z     vdW  Elec       q    Type
REMARK                         _______ _______ _______ _____ _____    ______ ____
ROOT
ATOM      1  C   UNL     1      -0.090   1.523  -0.005  0.00  0.00    +0.046 C 
ATOM      2  C   UNL     1      -0.065   0.016  -0.009  0.00  0.00    -0.015 A 
ATOM      3  C   UNL     1      -0.051  -0.710  -1.205  0.00  0.00    +0.076 A 
ATOM      4  C   UNL     1      -0.056  -0.203  -2.602  0.00  0.00    +0.282 A 
ATOM      5  O   UNL     1      -0.076   0.998  -2.821  0.00  0.00    -0.265 OA
ATOM      6  N   UNL     1      -0.039  -1.074  -3.614  0.00  0.00    -0.185 NA
ATOM      7  C   UNL     1      -0.018  -2.376  -3.421  0.00  0.00    +0.171 A 
ATOM      8  N   UNL     1      -0.011  -2.912  -2.168  0.00  0.00    -0.328 N 
ATOM      9  C   UNL     1      -0.027  -2.105  -1.070  0.00  0.00    +0.093 A 
ATOM     10  S   UNL     1      -0.026  -2.385   0.577  0.00  0.00    -0.064 S 
ATOM     11  C   UNL     1      -0.049  -0.700   1.155  0.00  0.00    +0.102 A 
ATOM     12  H   UNL     1       0.005  -3.876  -2.057  0.00  0.00    +0.168 HD
ENDROOT
BRANCH  11  13
ATOM     13  C   UNL     1      -0.054  -0.205   2.532  0.00  0.00    +0.346 C 
ATOM     14  O   UNL     1      -0.073   0.991   2.749  0.00  0.00    -0.244 OA
BRANCH  13  15
ATOM     15  O   UNL     1      -0.036  -1.077   3.561  0.00  0.00    -0.461 OA
BRANCH  15  16
ATOM     16  C   UNL     1      -0.042  -0.525   4.879  0.00  0.00    +0.235 C 
BRANCH  16  17
ATOM     17  C   UNL     1      -0.020  -1.658   5.907  0.00  0.00    +0.020 C 
ATOM     18  C   UNL     1       0.100  -1.068   7.314  0.00  0.00    +0.010 C 
ATOM     19  C   UNL     1      -1.314  -2.467   5.802  0.00  0.00    +0.010 C 
ENDBRANCH  16  17
ENDBRANCH  15  16
ENDBRANCH  13  15
ENDBRANCH  11  13
BRANCH   7  20
ATOM     20  S   UNL     1       0.003  -3.451  -4.816  0.00  0.00    -0.075 S 
BRANCH  20  21
ATOM     21  C   UNL     1      -0.014  -2.325  -6.238  0.00  0.00    +0.137 C 
ATOM     22  C   UNL     1      -1.335  -1.553  -6.262  0.00  0.00    +0.029 C 
BRANCH  21  23
ATOM     23  C   UNL     1       0.125  -3.121  -7.511  0.00  0.00    +0.230 C 
ATOM     24  O   UNL     1      -0.220  -4.283  -7.540  0.00  0.00    -0.274 OA
ATOM     25  N   UNL     1       0.633  -2.541  -8.616  0.00  0.00    -0.282 N 
ATOM     26  H   UNL     1       0.849  -1.595  -8.612  0.00  0.00    +0.155 HD
BRANCH  25  27
ATOM     27  C   UNL     1       0.851  -3.304  -9.771  0.00  0.00    +0.076 A 
ATOM     28  C   UNL     1      -0.013  -4.334 -10.091  0.00  0.00    +0.038 A 
ATOM     29  C   UNL     1       0.208  -5.094 -11.246  0.00  0.00    +0.016 A 
ATOM     30  C   UNL     1       1.303  -4.806 -12.070  0.00  0.00    +0.015 A 
ATOM     31  C   UNL     1       2.158  -3.778 -11.745  0.00  0.00    +0.048 A 
ATOM     32  C   UNL     1       1.936  -3.020 -10.602  0.00  0.00    +0.138 A 
BRANCH  32  33
ATOM     33  O   UNL     1       2.780  -2.004 -10.289  0.00  0.00    -0.505 OA
ATOM     34  H   UNL     1       3.526  -2.269  -9.734  0.00  0.00    +0.292 HD
ENDBRANCH  32  33
BRANCH  29  35
ATOM     35  C   UNL     1      -0.706  -6.191 -11.592  0.00  0.00    +0.258 C 
ATOM     36  O   UNL     1      -0.513  -6.848 -12.593  0.00  0.00    -0.296 OA
ENDBRANCH  29  35
ENDBRANCH  25  27
ENDBRANCH  21  23
ENDBRANCH  20  21
ENDBRANCH   7  20
TORSDOF 10
