REMARK  Name = ZINC39674469
REMARK  12 active torsions:
REMARK  status: ('A' for Active; 'I' for Inactive)
REMARK    1  A    between atoms: C_1  and  C_2
REMARK    2  A    between atoms: C_2  and  C_3
REMARK    3  A    between atoms: C_3  and  C_4
REMARK    4  A    between atoms: C_4  and  C_5
REMARK    5  A    between atoms: C_5  and  C_7
REMARK    6  A    between atoms: C_5  and  C_8
REMARK    7  A    between atoms: C_12  and  C_21
REMARK    8  A    between atoms: N_23  and  C_24
REMARK    9  A    between atoms: C_24  and  C_26
REMARK   10  A    between atoms: C_24  and  C_27
REMARK   11  A    between atoms: C_28  and  C_34
REMARK   12  A    between atoms: C_31  and  C_33
REMARK                            x       y       z     vdW  Elec       q    Type
REMARK                         _______ _______ _______ _____ _____    ______ ____
ROOT
ATOM      1  C   UNL     1      -2.745  -5.046   0.371  0.00  0.00    +0.218 C 
ATOM      2  O   UNL     1      -1.771  -5.768   0.401  0.00  0.00    -0.275 OA
ATOM      3  N   UNL     1      -3.980  -5.582   0.307  0.00  0.00    -0.300 N 
ATOM      4  C   UNL     1      -5.279  -4.870   0.257  0.00  0.00    +0.121 C 
ATOM      5  C   UNL     1      -6.132  -5.684  -0.742  0.00  0.00    +0.100 C 
ATOM      6  C   UNL     1      -5.516  -7.094  -0.726  0.00  0.00    -0.004 C 
ATOM      7  C   UNL     1      -4.346  -7.019   0.265  0.00  0.00    +0.115 C 
ATOM      8  C   UNL     1      -5.001  -7.461  -2.114  0.00  0.00    -0.010 C 
ATOM      9  C   UNL     1      -4.446  -8.888  -2.086  0.00  0.00    -0.082 C 
ATOM     10  N   UNL     1      -5.503  -9.818  -1.672  0.00  0.00    +0.379 N 
ATOM     11  C   UNL     1      -5.927  -9.515  -0.300  0.00  0.00    -0.082 C 
ATOM     12  C   UNL     1      -6.545  -8.115  -0.252  0.00  0.00    -0.010 C 
ATOM     13  H   UNL     1      -6.291  -9.728  -2.295  0.00  0.00    -0.086 HD
ATOM     14  H   UNL     1      -5.152 -10.764  -1.713  0.00  0.00    -0.086 HD
ENDROOT
BRANCH   5  15
ATOM     15  C   UNL     1      -7.568  -5.732  -0.287  0.00  0.00    +0.219 C 
ATOM     16  O   UNL     1      -7.831  -5.701   0.896  0.00  0.00    -0.275 OA
ATOM     17  N   UNL     1      -8.560  -5.808  -1.196  0.00  0.00    -0.309 N 
ATOM     18  H   UNL     1      -8.350  -5.833  -2.143  0.00  0.00    +0.149 HD
BRANCH  17  19
ATOM     19  C   UNL     1      -9.956  -5.854  -0.755  0.00  0.00    +0.100 C 
ATOM     20  C   UNL     1     -10.456  -4.432  -0.495  0.00  0.00    +0.033 C 
BRANCH  19  21
ATOM     21  C   UNL     1     -10.801  -6.496  -1.825  0.00  0.00    -0.001 C 
ATOM     22  C   UNL     1     -11.557  -7.592  -1.729  0.00  0.00    +0.063 C 
ATOM     23  N   UNL     1     -12.168  -7.858  -2.905  0.00  0.00    -0.159 NA
ATOM     24  N   UNL     1     -11.912  -7.057  -3.807  0.00  0.00    -0.180 NA
ATOM     25  C   UNL     1     -10.995  -6.043  -3.261  0.00  0.00    +0.154 C 
ATOM     26  C   UNL     1      -9.665  -6.057  -4.017  0.00  0.00    +0.039 C 
ATOM     27  C   UNL     1     -11.708  -8.421  -0.479  0.00  0.00    +0.067 C 
ENDBRANCH  19  21
ENDBRANCH  17  19
ENDBRANCH   5  15
BRANCH   1  28
ATOM     28  C   UNL     1      -2.575  -3.549   0.405  0.00  0.00    +0.072 C 
ATOM     29  C   UNL     1      -3.288  -2.982   1.635  0.00  0.00    +0.017 C 
BRANCH  28  30
ATOM     30  C   UNL     1      -1.086  -3.206   0.477  0.00  0.00    +0.012 C 
BRANCH  30  31
ATOM     31  C   UNL     1      -0.906  -1.689   0.386  0.00  0.00    +0.000 C 
BRANCH  31  33
ATOM     32  C   UNL     1       0.762   0.170   0.366  0.00  0.00    +0.004 C 
ATOM     33  C   UNL     1       0.583  -1.347   0.457  0.00  0.00    -0.003 C 
ENDBRANCH  31  33
ENDBRANCH  30  31
ENDBRANCH  28  30
ENDBRANCH   1  28
TORSDOF 7
