REMARK  Name = ZINC62893739
REMARK  6 active torsions:
REMARK  status: ('A' for Active; 'I' for Inactive)
REMARK    1  A    between atoms: C_1  and  C_2
REMARK    2  A    between atoms: C_2  and  C_3
REMARK    3  A    between atoms: C_3  and  C_8
REMARK    4  A    between atoms: N_10  and  C_11
REMARK    5  A    between atoms: C_14  and  C_18
REMARK    6  A    between atoms: C_16  and  C_17
REMARK                            x       y       z     vdW  Elec       q    Type
REMARK                         _______ _______ _______ _____ _____    ______ ____
ROOT
ATOM      1  C   UNL     1      -1.472   0.213  -1.530  0.00  0.00    +0.221 C 
ATOM      2  O   UNL     1      -1.466  -0.499  -2.511  0.00  0.00    -0.275 OA
ATOM      3  N   UNL     1      -2.071   1.419  -1.577  0.00  0.00    -0.285 N 
ATOM      4  H   UNL     1      -2.144   1.956  -0.772  0.00  0.00    +0.155 HD
ENDROOT
BRANCH   1   5
ATOM      5  C   UNL     1      -0.810  -0.251  -0.258  0.00  0.00    +0.030 C 
ATOM      6  C   UNL     1      -1.823  -0.244   0.910  0.00  0.00    -0.005 C 
ATOM      7  C   UNL     1      -2.297  -1.718   0.966  0.00  0.00    -0.082 C 
ATOM      8  N   UNL     1      -1.061  -2.484   0.661  0.00  0.00    +0.380 N 
ATOM      9  C   UNL     1      -0.362  -1.718  -0.393  0.00  0.00    -0.067 C 
ATOM     10  H   UNL     1      -0.482  -2.552   1.484  0.00  0.00    -0.086 HD
ATOM     11  H   UNL     1      -1.297  -3.405   0.323  0.00  0.00    -0.086 HD
BRANCH   5  13
ATOM     12  C   UNL     1       1.384   0.609  -1.088  0.00  0.00    +0.005 C 
ATOM     13  C   UNL     1       0.387   0.642   0.072  0.00  0.00    +0.011 C 
ENDBRANCH   5  13
ENDBRANCH   1   5
BRANCH   3  14
ATOM     14  C   UNL     1      -2.585   1.896  -2.781  0.00  0.00    +0.036 A 
ATOM     15  C   UNL     1      -3.248   1.028  -3.644  0.00  0.00    +0.024 A 
ATOM     16  C   UNL     1      -3.753   1.489  -4.827  0.00  0.00    +0.017 A 
ATOM     17  C   UNL     1      -3.606   2.836  -5.174  0.00  0.00    +0.064 A 
ATOM     18  C   UNL     1      -2.940   3.710  -4.308  0.00  0.00    +0.020 A 
ATOM     19  C   UNL     1      -2.438   3.239  -3.115  0.00  0.00    -0.028 A 
ATOM     20  C   UNL     1      -1.725   4.176  -2.175  0.00  0.00    +0.045 C 
BRANCH  17  21
ATOM     21  C   UNL     1      -4.151   3.334  -6.449  0.00  0.00    +0.387 C 
ATOM     22  O   UNL     1      -4.732   2.568  -7.206  0.00  0.00    -0.241 OA
ATOM     23  O   UNL     1      -4.021   4.512  -6.751  0.00  0.00    -0.241 OA
ENDBRANCH  17  21
ENDBRANCH   3  14
TORSDOF 4
