REMARK  Name = ZINC48872235
REMARK  4 active torsions:
REMARK  status: ('A' for Active; 'I' for Inactive)
REMARK    1  A    between atoms: C_10  and  S_12
REMARK    2  A    between atoms: S_12  and  C_13
REMARK    3  A    between atoms: C_13  and  C_14
REMARK    4  A    between atoms: C_16  and  C_19
REMARK                            x       y       z     vdW  Elec       q    Type
REMARK                         _______ _______ _______ _____ _____    ______ ____
ROOT
ATOM      1  C   UNL     1      -0.017   1.383   0.010  0.00  0.00    +0.022 A 
ATOM      2  C   UNL     1       1.161   2.098   0.002  0.00  0.00    +0.031 A 
ATOM      3  C   UNL     1       2.383   1.422  -0.013  0.00  0.00    +0.090 A 
ATOM      4  C   UNL     1       2.397   0.018  -0.021  0.00  0.00    +0.068 A 
ATOM      5  C   UNL     1       1.203  -0.687  -0.014  0.00  0.00    +0.047 A 
ATOM      6  C   UNL     1       0.002  -0.004   0.002  0.00  0.00    +0.043 A 
ATOM      7 CL   UNL     1      -1.492  -0.887   0.012  0.00  0.00    -0.083 Cl
ATOM      8  N   UNL     1       3.731  -0.355  -0.035  0.00  0.00    -0.333 N 
ATOM      9  H   UNL     1       4.075  -1.262  -0.044  0.00  0.00    +0.168 HD
ATOM     10  C   UNL     1       4.472   0.793  -0.036  0.00  0.00    +0.168 A 
ATOM     11  N   UNL     1       3.678   1.835  -0.023  0.00  0.00    -0.222 NA
ENDROOT
BRANCH  10  12
ATOM     12  S   UNL     1       6.232   0.862  -0.053  0.00  0.00    -0.080 S 
BRANCH  12  13
ATOM     13  C   UNL     1       6.602   2.638  -0.047  0.00  0.00    +0.157 C 
BRANCH  13  14
ATOM     14  C   UNL     1       8.095   2.840  -0.061  0.00  0.00    +0.182 A 
ATOM     15  N   UNL     1       8.878   2.933   1.021  0.00  0.00    -0.195 NA
ATOM     16  C   UNL     1      10.120   3.105   0.661  0.00  0.00    +0.230 A 
ATOM     17  O   UNL     1      10.170   3.128  -0.676  0.00  0.00    -0.338 OA
ATOM     18  N   UNL     1       8.835   2.947  -1.127  0.00  0.00    -0.060 NA
BRANCH  16  19
ATOM     19  C   UNL     1      11.296   3.253   1.592  0.00  0.00    +0.078 C 
ATOM     20  C   UNL     1      12.639   3.648   0.975  0.00  0.00    +0.014 C 
ATOM     21  C   UNL     1      12.419   2.221   1.481  0.00  0.00    +0.014 C 
ENDBRANCH  16  19
ENDBRANCH  13  14
ENDBRANCH  12  13
ENDBRANCH  10  12
TORSDOF 4
