REMARK  Name = ZINC04597222
REMARK  7 active torsions:
REMARK  status: ('A' for Active; 'I' for Inactive)
REMARK    1  A    between atoms: C_1  and  C_2
REMARK    2  A    between atoms: C_2  and  C_3
REMARK    3  A    between atoms: C_2  and  C_4
REMARK    4  A    between atoms: C_2  and  C_5
REMARK    5  A    between atoms: C_12  and  N_26
REMARK    6  A    between atoms: C_13  and  C_24
REMARK    7  A    between atoms: C_14  and  C_16
REMARK                            x       y       z     vdW  Elec       q    Type
REMARK                         _______ _______ _______ _____ _____    ______ ____
ROOT
ATOM      1  C   UNL     1       0.784  -0.706  -1.809  0.00  0.00    +0.076 A 
ATOM      2  C   UNL     1       0.865  -2.091  -1.855  0.00  0.00    +0.050 A 
ATOM      3  C   UNL     1       1.581  -2.438  -2.967  0.00  0.00    +0.222 A 
ATOM      4  N   UNL     1       1.933  -1.303  -3.593  0.00  0.00    -0.246 N 
ATOM      5  H   UNL     1       2.447  -1.238  -4.413  0.00  0.00    +0.192 HD
ATOM      6  N   UNL     1       1.419  -0.227  -2.853  0.00  0.00    -0.175 NA
ATOM      7  O   UNL     1       1.841  -3.727  -3.299  0.00  0.00    -0.423 OA
ATOM      8  C   UNL     1       1.615  -4.670  -2.362  0.00  0.00    +0.200 C 
ATOM      9  C   UNL     1       0.912  -4.452  -1.229  0.00  0.00    +0.098 C 
ATOM     10  C   UNL     1       0.299  -3.113  -0.902  0.00  0.00    +0.106 C 
ENDROOT
BRANCH  10  11
ATOM     11  C   UNL     1      -1.198  -3.184  -1.064  0.00  0.00    +0.019 A 
ATOM     12  C   UNL     1      -1.752  -3.360  -2.320  0.00  0.00    +0.129 A 
ATOM     13  C   UNL     1      -3.127  -3.425  -2.467  0.00  0.00    +0.039 A 
ATOM     14  C   UNL     1      -3.946  -3.314  -1.359  0.00  0.00    +0.004 A 
ATOM     15  C   UNL     1      -3.393  -3.139  -0.105  0.00  0.00    +0.020 A 
ATOM     16  C   UNL     1      -2.019  -3.079   0.044  0.00  0.00    +0.048 A 
ATOM     17 CL   UNL     1      -1.325  -2.866   1.621  0.00  0.00    -0.083 Cl
ATOM     18  F   UNL     1      -0.951  -3.467  -3.403  0.00  0.00    -0.205 F 
ENDBRANCH  10  11
BRANCH   1  20
ATOM     19  C   UNL     1       0.413   1.587  -0.941  0.00  0.00    +0.017 C 
ATOM     20  C   UNL     1       0.085   0.105  -0.749  0.00  0.00    +0.007 C 
ATOM     21  C   UNL     1       0.559  -0.347   0.634  0.00  0.00    +0.017 C 
ATOM     22  C   UNL     1      -1.427  -0.102  -0.863  0.00  0.00    +0.017 C 
ENDBRANCH   1  20
BRANCH   8  23
ATOM     23  N   UNL     1       2.129  -5.926  -2.572  0.00  0.00    -0.328 N 
ATOM     24  H   UNL     1       2.639  -6.113  -3.376  0.00  0.00    +0.145 HD
ATOM     25  H   UNL     1       1.983  -6.625  -1.917  0.00  0.00    +0.145 HD
ENDBRANCH   8  23
BRANCH   9  26
ATOM     26  C   UNL     1       0.741  -5.532  -0.305  0.00  0.00    +0.101 C 
ATOM     27  N   UNL     1       0.606  -6.389   0.429  0.00  0.00    -0.191 NA
ENDBRANCH   9  26
TORSDOF 4
