REMARK  Name = ZINC28837959
REMARK  8 active torsions:
REMARK  status: ('A' for Active; 'I' for Inactive)
REMARK    1  A    between atoms: C_1  and  C_2
REMARK    2  A    between atoms: C_2  and  O_3
REMARK    3  A    between atoms: O_3  and  C_4
REMARK    4  A    between atoms: C_14  and  C_16
REMARK    5  A    between atoms: C_16  and  N_17
REMARK    6  A    between atoms: C_20  and  C_24
REMARK    7  A    between atoms: C_20  and  C_25
REMARK    8  A    between atoms: C_28  and  C_31
REMARK                            x       y       z     vdW  Elec       q    Type
REMARK                         _______ _______ _______ _____ _____    ______ ____
ROOT
ATOM      1  C   UNL     1       2.499  -0.629  10.286  0.00  0.00    +0.214 C 
ENDROOT
BRANCH   1  12
ATOM      2  C   UNL     1      -0.148   1.182   2.380  0.00  0.00    +0.122 A 
ATOM      3  C   UNL     1       0.995   0.390   2.430  0.00  0.00    +0.048 A 
ATOM      4  C   UNL     1       1.553   0.014   3.623  0.00  0.00    +0.032 A 
ATOM      5  C   UNL     1       0.975   0.413   4.850  0.00  0.00    +0.081 A 
ATOM      6  C   UNL     1      -0.188   1.212   4.764  0.00  0.00    +0.044 A 
ATOM      7  C   UNL     1      -0.741   1.590   3.566  0.00  0.00    +0.063 A 
ATOM      8  S   UNL     1      -0.585   1.487   6.474  0.00  0.00    -0.052 S 
ATOM      9  C   UNL     1       0.771   0.556   7.173  0.00  0.00    +0.165 A 
ATOM     10  N   UNL     1       1.396   0.126   6.103  0.00  0.00    -0.225 NA
ATOM     11  N   UNL     1       1.083   0.343   8.506  0.00  0.00    -0.263 N 
ATOM     12  C   UNL     1       2.160  -0.397   8.836  0.00  0.00    +0.237 C 
ATOM     13  O   UNL     1       2.856  -0.876   7.966  0.00  0.00    -0.274 OA
ATOM     14  H   UNL     1       0.451   0.777   9.295  0.00  0.00    +0.157 HD
BRANCH   2  15
ATOM     15  O   UNL     1      -0.682   1.547   1.184  0.00  0.00    -0.492 OA
BRANCH  15  17
ATOM     16  C   UNL     1      -0.753   1.593  -1.232  0.00  0.00    +0.048 C 
ATOM     17  C   UNL     1      -0.013   1.086   0.008  0.00  0.00    +0.225 C 
ENDBRANCH  15  17
ENDBRANCH   2  15
ENDBRANCH   1  12
BRANCH   1  18
ATOM     18  N   UNL     1       3.704  -1.457  10.379  0.00  0.00    -0.215 N 
ATOM     19  C   UNL     1       4.958  -0.966  10.427  0.00  0.00    +0.251 C 
ATOM     20  O   UNL     1       5.290   0.200  10.400  0.00  0.00    -0.272 OA
ATOM     21  C   UNL     1       5.868  -2.174  10.520  0.00  0.00    +0.135 C 
ATOM     22  N   UNL     1       4.934  -3.313  10.513  0.00  0.00    -0.281 N 
ATOM     23  C   UNL     1       3.695  -2.794  10.434  0.00  0.00    +0.310 C 
ATOM     24  O   UNL     1       2.682  -3.464  10.410  0.00  0.00    -0.252 OA
ATOM     25  C   UNL     1       6.671  -2.145  11.822  0.00  0.00    +0.047 C 
ATOM     26  H   UNL     1       5.320  -4.341  10.568  0.00  0.00    +0.152 HD
BRANCH  21  27
ATOM     27  C   UNL     1       6.789  -2.237   9.328  0.00  0.00    -0.015 A 
ATOM     28  C   UNL     1       7.185  -1.072   8.698  0.00  0.00    +0.006 A 
ATOM     29  C   UNL     1       8.033  -1.129   7.609  0.00  0.00    +0.004 A 
ATOM     30  C   UNL     1       8.478  -2.352   7.143  0.00  0.00    -0.050 A 
ATOM     31  C   UNL     1       8.078  -3.518   7.769  0.00  0.00    +0.004 A 
ATOM     32  C   UNL     1       7.234  -3.460   8.862  0.00  0.00    +0.006 A 
ATOM     33  C   UNL     1       9.399  -2.415   5.952  0.00  0.00    +0.044 C 
ENDBRANCH  21  27
ENDBRANCH   1  18
TORSDOF 5
