REMARK  Name = ZINC49107032
REMARK  6 active torsions:
REMARK  status: ('A' for Active; 'I' for Inactive)
REMARK    1  A    between atoms: C_1  and  C_2
REMARK    2  A    between atoms: C_2  and  C_4
REMARK    3  A    between atoms: C_2  and  N_8
REMARK    4  A    between atoms: N_6  and  C_7
REMARK    5  A    between atoms: N_8  and  C_9
REMARK    6  A    between atoms: C_9  and  C_20
REMARK                            x       y       z     vdW  Elec       q    Type
REMARK                         _______ _______ _______ _____ _____    ______ ____
ROOT
ATOM      1  C   UNL     1      -1.989  -0.015  -1.102  0.00  0.00    +0.062 C 
ATOM      2  C   UNL     1      -3.486  -0.301  -0.995  0.00  0.00    +0.003 C 
ATOM      3  C   UNL     1      -4.240   0.809  -1.729  0.00  0.00    -0.000 C 
ATOM      4  C   UNL     1      -3.836   0.820  -3.200  0.00  0.00    +0.005 C 
ATOM      5  C   UNL     1      -3.544  -0.626  -3.613  0.00  0.00    +0.035 C 
ATOM      6  C   UNL     1      -2.080  -0.946  -3.463  0.00  0.00    -0.045 A 
ATOM      7  C   UNL     1      -1.381  -0.691  -2.307  0.00  0.00    -0.044 A 
ATOM      8  C   UNL     1      -0.042  -1.057  -2.220  0.00  0.00    +0.003 A 
ATOM      9  C   UNL     1       0.595  -1.648  -3.291  0.00  0.00    +0.000 A 
ATOM     10  C   UNL     1      -0.102  -1.878  -4.463  0.00  0.00    +0.000 A 
ATOM     11  C   UNL     1      -1.434  -1.529  -4.546  0.00  0.00    +0.004 A 
ENDROOT
BRANCH   1  12
ATOM     12  N   UNL     1      -1.319  -0.503   0.111  0.00  0.00    +0.400 N 
ATOM     13  H   UNL     1      -1.592   0.066   0.898  0.00  0.00    -0.083 HD
ATOM     14  H   UNL     1      -0.319  -0.449  -0.012  0.00  0.00    -0.083 HD
BRANCH  12  16
ATOM     15  C   UNL     1      -1.103  -2.795  -0.725  0.00  0.00    -0.004 C 
ATOM     16  C   UNL     1      -1.708  -1.898   0.357  0.00  0.00    +0.015 C 
BRANCH  16  17
ATOM     17  C   UNL     1      -1.200  -2.330   1.709  0.00  0.00    +0.199 C 
ATOM     18  O   UNL     1      -0.576  -1.552   2.399  0.00  0.00    -0.278 OA
ATOM     19  N   UNL     1      -1.440  -3.580   2.151  0.00  0.00    -0.320 N 
ATOM     20  C   UNL     1      -0.946  -4.000   3.465  0.00  0.00    +0.128 C 
ATOM     21  H   UNL     1      -1.939  -4.203   1.599  0.00  0.00    +0.148 HD
ENDBRANCH  16  17
ENDBRANCH  12  16
ENDBRANCH   1  12
BRANCH   1  22
ATOM     22  C   UNL     1      -1.780   1.473  -1.214  0.00  0.00    +0.350 C 
ATOM     23  O   UNL     1      -1.413   1.959  -2.271  0.00  0.00    -0.248 OA
ATOM     24  O   UNL     1      -1.977   2.191  -0.249  0.00  0.00    -0.248 OA
ENDBRANCH   1  22
TORSDOF 4
