REMARK  Name = ZINC44845761
REMARK  11 active torsions:
REMARK  status: ('A' for Active; 'I' for Inactive)
REMARK    1  A    between atoms: C_1  and  C_2
REMARK    2  A    between atoms: C_7  and  N_8
REMARK    3  A    between atoms: N_8  and  C_9
REMARK    4  A    between atoms: N_8  and  S_28
REMARK    5  A    between atoms: C_9  and  C_11
REMARK    6  A    between atoms: C_9  and  C_12
REMARK    7  A    between atoms: N_14  and  C_15
REMARK    8  A    between atoms: C_15  and  C_16
REMARK    9  A    between atoms: C_21  and  N_22
REMARK   10  A    between atoms: C_26  and  C_27
REMARK   11  A    between atoms: S_28  and  C_31
REMARK                            x       y       z     vdW  Elec       q    Type
REMARK                         _______ _______ _______ _____ _____    ______ ____
ROOT
ATOM      1  C   UNL     1       1.928  -1.169   3.386  0.00  0.00    +0.235 C 
ATOM      2  O   UNL     1       1.442  -2.171   2.904  0.00  0.00    -0.274 OA
ATOM      3  N   UNL     1       3.046  -1.254   4.133  0.00  0.00    -0.310 N 
ATOM      4  H   UNL     1       3.434  -0.453   4.518  0.00  0.00    +0.149 HD
ENDROOT
BRANCH   1   5
ATOM      5  C   UNL     1       1.280   0.171   3.149  0.00  0.00    +0.180 C 
ATOM      6  C   UNL     1       1.778   0.751   1.824  0.00  0.00    +0.040 C 
BRANCH   5   7
ATOM      7  N   UNL     1      -0.175   0.007   3.094  0.00  0.00    -0.196 N 
BRANCH   7  14
ATOM      8  C   UNL     1      -1.038   1.448   0.799  0.00  0.00    +0.046 C 
ATOM      9  C   UNL     1      -1.194  -0.046   0.907  0.00  0.00    -0.028 A 
ATOM     10  C   UNL     1      -1.764  -0.759  -0.130  0.00  0.00    +0.006 A 
ATOM     11  C   UNL     1      -1.908  -2.130  -0.032  0.00  0.00    +0.020 A 
ATOM     12  C   UNL     1      -1.480  -2.794   1.105  0.00  0.00    +0.043 A 
ATOM     13  C   UNL     1      -0.909  -2.087   2.146  0.00  0.00    +0.045 A 
ATOM     14  C   UNL     1      -0.758  -0.710   2.047  0.00  0.00    +0.056 A 
ATOM     15 CL   UNL     1      -1.663  -4.517   1.224  0.00  0.00    -0.083 Cl
ENDBRANCH   7  14
BRANCH   7  16
ATOM     16  S   UNL     1      -1.128   0.673   4.274  0.00  0.00    +0.043 S 
ATOM     17  O   UNL     1      -0.419   1.826   4.705  0.00  0.00    -0.155 OA
ATOM     18  O   UNL     1      -2.412   0.793   3.677  0.00  0.00    -0.155 OA
ATOM     19  C   UNL     1      -1.167  -0.568   5.596  0.00  0.00    +0.218 C 
ENDBRANCH   7  16
ENDBRANCH   5   7
ENDBRANCH   1   5
BRANCH   3  20
ATOM     20  C   UNL     1       3.676  -2.556   4.363  0.00  0.00    +0.141 C 
BRANCH  20  21
ATOM     21  C   UNL     1       4.901  -2.377   5.222  0.00  0.00    -0.006 A 
ATOM     22  C   UNL     1       6.154  -2.348   4.642  0.00  0.00    +0.007 A 
ATOM     23  C   UNL     1       7.279  -2.184   5.429  0.00  0.00    +0.000 A 
ATOM     24  C   UNL     1       7.152  -2.049   6.800  0.00  0.00    +0.002 A 
ATOM     25  C   UNL     1       5.902  -2.077   7.386  0.00  0.00    +0.026 A 
ATOM     26  C   UNL     1       4.771  -2.236   6.597  0.00  0.00    +0.052 A 
BRANCH  26  27
ATOM     27  N   UNL     1       3.499  -2.260   7.188  0.00  0.00    -0.305 N 
ATOM     28  C   UNL     1       2.883  -1.222   7.838  0.00  0.00    +0.110 A 
ATOM     29  C   UNL     1       1.683  -1.676   8.247  0.00  0.00    +0.102 A 
ATOM     30  N   UNL     1       1.565  -2.955   7.861  0.00  0.00    -0.350 N 
ATOM     31  C   UNL     1       2.643  -3.315   7.220  0.00  0.00    +0.088 A 
ATOM     32  C   UNL     1       2.898  -4.673   6.620  0.00  0.00    +0.084 C 
ATOM     33  H   UNL     1       0.796  -3.522   8.027  0.00  0.00    +0.166 HD
ENDBRANCH  26  27
ENDBRANCH  20  21
ENDBRANCH   3  20
TORSDOF 7
