REMARK  Name = ZINC39266379
REMARK  14 active torsions:
REMARK  status: ('A' for Active; 'I' for Inactive)
REMARK    1  A    between atoms: C_1  and  C_2
REMARK    2  A    between atoms: C_2  and  O_3
REMARK    3  A    between atoms: O_3  and  C_4
REMARK    4  A    between atoms: C_4  and  C_6
REMARK    5  A    between atoms: C_6  and  C_8
REMARK    6  A    between atoms: C_6  and  N_12
REMARK    7  A    between atoms: C_8  and  C_9
REMARK    8  A    between atoms: C_9  and  C_10
REMARK    9  A    between atoms: C_9  and  C_11
REMARK   10  A    between atoms: N_21  and  C_22
REMARK   11  A    between atoms: C_22  and  C_23
REMARK   12  A    between atoms: N_25  and  C_26
REMARK   13  A    between atoms: C_28  and  C_32
REMARK   14  A    between atoms: N_30  and  C_31
REMARK                            x       y       z     vdW  Elec       q    Type
REMARK                         _______ _______ _______ _____ _____    ______ ____
ROOT
ATOM      1  N   UNL     1       1.242  -3.910  -2.745  0.00  0.00    -0.289 N 
ATOM      2  C   UNL     1       0.004  -4.692  -2.847  0.00  0.00    +0.108 C 
ATOM      3  C   UNL     1       0.452  -6.136  -3.172  0.00  0.00    +0.016 C 
ATOM      4  C   UNL     1       1.881  -6.152  -2.602  0.00  0.00    +0.015 C 
ATOM      5  C   UNL     1       2.315  -4.711  -2.600  0.00  0.00    +0.206 C 
ATOM      6  O   UNL     1       3.460  -4.328  -2.482  0.00  0.00    -0.277 OA
ATOM      7  C   UNL     1       2.803  -6.998  -3.493  0.00  0.00    -0.005 C 
ATOM      8  C   UNL     1       3.738  -7.689  -2.463  0.00  0.00    -0.019 C 
ATOM      9  C   UNL     1       2.777  -7.920  -1.269  0.00  0.00    -0.077 C 
ATOM     10  N   UNL     1       1.900  -6.727  -1.253  0.00  0.00    +0.395 N 
ATOM     11  H   UNL     1       2.260  -6.048  -0.599  0.00  0.00    -0.080 HD
ENDROOT
BRANCH   1  12
ATOM     12  C   UNL     1       1.304  -2.447  -2.801  0.00  0.00    +0.185 C 
BRANCH  12  13
ATOM     13  C   UNL     1       0.604  -1.869  -1.599  0.00  0.00    +0.328 C 
ATOM     14  O   UNL     1       0.105  -2.603  -0.779  0.00  0.00    -0.249 OA
BRANCH  13  15
ATOM     15  O   UNL     1       0.535  -0.538  -1.438  0.00  0.00    -0.464 OA
BRANCH  15  17
ATOM     16  C   UNL     1      -0.120   1.471  -0.265  0.00  0.00    +0.048 C 
ATOM     17  C   UNL     1      -0.144  -0.059  -0.276  0.00  0.00    +0.229 C 
ENDBRANCH  15  17
ENDBRANCH  13  15
ENDBRANCH  12  13
BRANCH  12  18
ATOM     18  C   UNL     1       0.616  -1.957  -4.077  0.00  0.00    +0.037 C 
BRANCH  18  19
ATOM     19  C   UNL     1       1.390  -2.456  -5.298  0.00  0.00    -0.015 C 
ATOM     20  C   UNL     1       0.623  -2.093  -6.572  0.00  0.00    +0.007 C 
ATOM     21  C   UNL     1       2.771  -1.800  -5.330  0.00  0.00    +0.007 C 
ENDBRANCH  18  19
ENDBRANCH  12  18
ENDBRANCH   1  12
BRANCH  10  22
ATOM     22  C   UNL     1       0.539  -7.117  -0.862  0.00  0.00    +0.020 C 
BRANCH  22  23
ATOM     23  C   UNL     1       0.537  -7.558   0.580  0.00  0.00    +0.202 C 
ATOM     24  O   UNL     1       1.569  -7.548   1.218  0.00  0.00    -0.278 OA
ATOM     25  N   UNL     1      -0.610  -7.963   1.159  0.00  0.00    -0.272 N 
ATOM     26  H   UNL     1      -1.435  -7.971   0.648  0.00  0.00    +0.156 HD
BRANCH  25  27
ATOM     27  C   UNL     1      -0.612  -8.372   2.493  0.00  0.00    +0.123 A 
ATOM     28  C   UNL     1       0.465  -8.405   3.322  0.00  0.00    +0.073 A 
ATOM     29  C   UNL     1       0.028  -8.877   4.574  0.00  0.00    +0.095 A 
ATOM     30  N   UNL     1      -1.263  -9.117   4.494  0.00  0.00    -0.170 NA
ATOM     31  N   UNL     1      -1.690  -8.802   3.198  0.00  0.00    -0.253 N 
ATOM     32  C   UNL     1      -3.060  -8.919   2.691  0.00  0.00    +0.174 C 
BRANCH  29  33
ATOM     33  C   UNL     1       0.878  -9.070   5.776  0.00  0.00    +0.002 A 
ATOM     34  C   UNL     1       2.237  -8.771   5.726  0.00  0.00    +0.010 A 
ATOM     35  C   UNL     1       3.022  -8.952   6.847  0.00  0.00    +0.001 A 
ATOM     36  C   UNL     1       2.461  -9.431   8.018  0.00  0.00    +0.000 A 
ATOM     37  C   UNL     1       1.112  -9.730   8.072  0.00  0.00    +0.001 A 
ATOM     38  C   UNL     1       0.317  -9.547   6.959  0.00  0.00    +0.010 A 
ENDBRANCH  29  33
ENDBRANCH  25  27
ENDBRANCH  22  23
ENDBRANCH  10  22
TORSDOF 10
