REMARK  Name = ZINC25384331
REMARK  9 active torsions:
REMARK  status: ('A' for Active; 'I' for Inactive)
REMARK    1  A    between atoms: C_1  and  O_2
REMARK    2  A    between atoms: O_2  and  C_3
REMARK    3  A    between atoms: C_5  and  C_12
REMARK    4  A    between atoms: C_6  and  O_10
REMARK    5  A    between atoms: O_10  and  C_11
REMARK    6  A    between atoms: N_14  and  C_15
REMARK    7  A    between atoms: C_15  and  C_16
REMARK    8  A    between atoms: C_16  and  C_18
REMARK    9  A    between atoms: C_16  and  N_23
REMARK                            x       y       z     vdW  Elec       q    Type
REMARK                         _______ _______ _______ _____ _____    ______ ____
ROOT
ATOM      1  C   UNL     1       3.526  -4.098  -2.541  0.00  0.00    +0.248 C 
ATOM      2  O   UNL     1       3.077  -3.687  -3.594  0.00  0.00    -0.270 OA
ATOM      3  N   UNL     1       3.316  -3.406  -1.403  0.00  0.00    -0.312 N 
ATOM      4  H   UNL     1       3.723  -3.778  -0.451  0.00  0.00    +0.149 HD
ENDROOT
BRANCH   1   7
ATOM      5  C   UNL     1       5.543  -7.005  -1.279  0.00  0.00    +0.122 A 
ATOM      6  C   UNL     1       4.818  -5.828  -1.302  0.00  0.00    +0.062 A 
ATOM      7  C   UNL     1       4.301  -5.353  -2.509  0.00  0.00    +0.083 A 
ATOM      8  C   UNL     1       4.516  -6.077  -3.689  0.00  0.00    +0.146 A 
ATOM      9  C   UNL     1       5.251  -7.254  -3.651  0.00  0.00    +0.064 A 
ATOM     10  C   UNL     1       5.758  -7.716  -2.452  0.00  0.00    +0.064 A 
ATOM     11 BR   UNL     1       5.551  -8.230  -5.242  0.00  0.00    -0.046 Br
BRANCH   5  13
ATOM     12  C   UNL     1       6.787  -8.690  -0.151  0.00  0.00    +0.277 C 
ATOM     13  O   UNL     1       6.048  -7.468  -0.104  0.00  0.00    -0.495 OA
ENDBRANCH   5  13
BRANCH   8  14
ATOM     14  O   UNL     1       4.012  -5.627  -4.866  0.00  0.00    -0.493 OA
ATOM     15  C   UNL     1       4.842  -4.755  -5.636  0.00  0.00    +0.277 C 
ENDBRANCH   8  14
ENDBRANCH   1   7
BRANCH   3  16
ATOM     16  C   UNL     1       2.547  -2.160  -1.435  0.00  0.00    +0.094 C 
BRANCH  16  17
ATOM     17  C   UNL     1       2.567  -1.513  -0.049  0.00  0.00    -0.013 C 
BRANCH  17  18
ATOM     18  N   UNL     1       1.693  -0.332  -0.047  0.00  0.00    +0.386 N 
ATOM     19  C   UNL     1       0.297  -0.702  -0.394  0.00  0.00    -0.078 C 
ATOM     20  C   UNL     1      -0.532   0.485   0.158  0.00  0.00    -0.020 C 
ATOM     21  C   UNL     1       0.204   0.840   1.471  0.00  0.00    -0.020 C 
ATOM     22  C   UNL     1       1.627   0.276   1.300  0.00  0.00    -0.078 C 
ATOM     23  H   UNL     1       2.127   0.362  -0.782  0.00  0.00    -0.081 HD
ENDBRANCH  17  18
BRANCH  17  24
ATOM     24  C   UNL     1       3.974  -1.097   0.292  0.00  0.00    -0.022 A 
ATOM     25  C   UNL     1       4.884  -1.726   1.077  0.00  0.00    +0.009 A 
ATOM     26  C   UNL     1       6.130  -1.153   1.249  0.00  0.00    +0.008 A 
ATOM     27  C   UNL     1       6.406   0.020   0.629  0.00  0.00    +0.045 A 
ATOM     28  S   UNL     1       4.878   0.350  -0.233  0.00  0.00    -0.103 S 
ENDBRANCH  17  24
ENDBRANCH  16  17
ENDBRANCH   3  16
TORSDOF 7
