REMARK  Name = ZINC13501890
REMARK  12 active torsions:
REMARK  status: ('A' for Active; 'I' for Inactive)
REMARK    1  A    between atoms: C_1  and  C_2
REMARK    2  A    between atoms: C_5  and  C_8
REMARK    3  A    between atoms: C_8  and  C_10
REMARK    4  A    between atoms: C_8  and  N_17
REMARK    5  A    between atoms: N_12  and  C_13
REMARK    6  A    between atoms: C_13  and  C_14
REMARK    7  A    between atoms: C_14  and  O_15
REMARK    8  A    between atoms: O_15  and  C_16
REMARK    9  A    between atoms: N_17  and  C_18
REMARK   10  A    between atoms: C_24  and  C_26
REMARK   11  A    between atoms: C_26  and  C_27
REMARK   12  A    between atoms: C_27  and  C_28
REMARK                            x       y       z     vdW  Elec       q    Type
REMARK                         _______ _______ _______ _____ _____    ______ ____
ROOT
ATOM      1  N   UNL     1       5.999   1.613   0.085  0.00  0.00    -0.283 N 
ATOM      2  C   UNL     1       5.080   0.691   0.435  0.00  0.00    +0.217 C 
ATOM      3  O   UNL     1       5.355  -0.489   0.385  0.00  0.00    -0.276 OA
ENDROOT
BRANCH   1   4
ATOM      4  C   UNL     1       5.699   3.040   0.235  0.00  0.00    +0.077 C 
ATOM      5  C   UNL     1       4.616   3.441  -0.768  0.00  0.00    +0.022 C 
ATOM      6  C   UNL     1       4.303   4.931  -0.612  0.00  0.00    +0.002 C 
ATOM      7  C   UNL     1       5.569   5.748  -0.874  0.00  0.00    +0.000 C 
ATOM      8  C   UNL     1       6.652   5.347   0.130  0.00  0.00    +0.002 C 
ATOM      9  C   UNL     1       6.965   3.857  -0.027  0.00  0.00    +0.022 C 
ENDBRANCH   1   4
BRANCH   1  10
ATOM     10  C   UNL     1       7.297   1.189  -0.444  0.00  0.00    +0.192 C 
BRANCH  10  15
ATOM     11  C   UNL     1      11.522   3.373   2.839  0.00  0.00    +0.044 C 
ATOM     12  C   UNL     1      10.420   2.803   1.983  0.00  0.00    -0.050 A 
ATOM     13  C   UNL     1       9.363   2.135   2.571  0.00  0.00    +0.004 A 
ATOM     14  C   UNL     1       8.352   1.613   1.786  0.00  0.00    +0.006 A 
ATOM     15  C   UNL     1       8.399   1.759   0.412  0.00  0.00    -0.018 A 
ATOM     16  C   UNL     1       9.459   2.422  -0.177  0.00  0.00    +0.006 A 
ATOM     17  C   UNL     1      10.467   2.949   0.609  0.00  0.00    +0.004 A 
ENDBRANCH  10  15
BRANCH  10  18
ATOM     18  C   UNL     1       7.450   1.689  -1.858  0.00  0.00    +0.238 C 
ATOM     19  O   UNL     1       6.596   2.397  -2.346  0.00  0.00    -0.273 OA
ATOM     20  N   UNL     1       8.537   1.347  -2.579  0.00  0.00    -0.311 N 
ATOM     21  H   UNL     1       9.220   0.781  -2.188  0.00  0.00    +0.149 HD
BRANCH  20  22
ATOM     22  C   UNL     1       8.686   1.833  -3.953  0.00  0.00    +0.132 C 
BRANCH  22  23
ATOM     23  C   UNL     1       9.996   1.304  -4.541  0.00  0.00    +0.178 C 
BRANCH  23  24
ATOM     24  O   UNL     1       9.930  -0.119  -4.648  0.00  0.00    -0.381 OA
ATOM     25  C   UNL     1      11.110  -0.717  -5.189  0.00  0.00    +0.194 C 
ENDBRANCH  23  24
ENDBRANCH  22  23
ENDBRANCH  20  22
ENDBRANCH  10  18
ENDBRANCH   1  10
BRANCH   2  26
ATOM     26  C   UNL     1       3.710   1.127   0.887  0.00  0.00    +0.105 C 
BRANCH  26  27
ATOM     27  C   UNL     1       2.932  -0.087   1.399  0.00  0.00    +0.105 C 
BRANCH  27  28
ATOM     28  C   UNL     1       1.562   0.348   1.852  0.00  0.00    +0.219 C 
ATOM     29  O   UNL     1       1.239   1.514   1.772  0.00  0.00    -0.275 OA
ATOM     30  N   UNL     1       0.696  -0.559   2.345  0.00  0.00    -0.265 N 
ATOM     31  C   UNL     1      -0.570  -0.158   2.757  0.00  0.00    +0.164 A 
ATOM     32  N   UNL     1      -1.099   1.050   2.754  0.00  0.00    -0.233 NA
ATOM     33  C   UNL     1      -2.329   1.259   3.179  0.00  0.00    +0.120 A 
ATOM     34  C   UNL     1      -3.043   0.200   3.635  0.00  0.00    +0.068 A 
ATOM     35  S   UNL     1      -1.859  -1.119   3.414  0.00  0.00    -0.061 S 
ATOM     36  H   UNL     1       0.954  -1.492   2.409  0.00  0.00    +0.157 HD
ENDBRANCH  27  28
ENDBRANCH  26  27
ENDBRANCH   2  26
TORSDOF 10
