REMARK  Name = ZINC33399280
REMARK  18 active torsions:
REMARK  status: ('A' for Active; 'I' for Inactive)
REMARK    1  A    between atoms: C_1  and  C_2
REMARK    2  A    between atoms: C_7  and  C_8
REMARK    3  A    between atoms: N_9  and  C_17
REMARK    4  A    between atoms: N_12  and  C_13
REMARK    5  A    between atoms: C_13  and  C_14
REMARK    6  A    between atoms: C_14  and  C_15
REMARK    7  A    between atoms: C_15  and  O_16
REMARK    8  A    between atoms: C_17  and  C_18
REMARK    9  A    between atoms: C_18  and  C_20
REMARK   10  A    between atoms: C_22  and  C_31
REMARK   11  A    between atoms: C_23  and  O_30
REMARK   12  A    between atoms: C_24  and  C_26
REMARK   13  A    between atoms: C_26  and  C_27
REMARK   14  A    between atoms: C_26  and  C_28
REMARK   15  A    between atoms: C_26  and  C_29
REMARK   16  A    between atoms: C_31  and  C_32
REMARK   17  A    between atoms: C_31  and  C_33
REMARK   18  A    between atoms: C_31  and  C_34
REMARK                            x       y       z     vdW  Elec       q    Type
REMARK                         _______ _______ _______ _____ _____    ______ ____
ROOT
ATOM      1  C   UNL     1      -0.018   1.503   0.010  0.00  0.00    +0.044 C 
ATOM      2  C   UNL     1       0.002  -0.004   0.002  0.00  0.00    -0.045 A 
ATOM      3  C   UNL     1       0.006  -0.681  -1.198  0.00  0.00    +0.031 A 
ATOM      4  C   UNL     1       0.025  -2.078  -1.206  0.00  0.00    +0.066 A 
ATOM      5  C   UNL     1       0.040  -2.776   0.013  0.00  0.00    +0.069 A 
ATOM      6  C   UNL     1       0.036  -2.079   1.211  0.00  0.00    +0.031 A 
ATOM      7  C   UNL     1       0.023  -0.699   1.202  0.00  0.00    -0.045 A 
ATOM      8  C   UNL     1       0.025   0.059   2.505  0.00  0.00    +0.044 C 
ATOM      9  N   UNL     1       0.057  -4.122  -0.315  0.00  0.00    -0.306 N 
ATOM     10  C   UNL     1       0.051  -4.207  -1.678  0.00  0.00    +0.175 A 
ATOM     11  N   UNL     1       0.032  -3.005  -2.199  0.00  0.00    -0.327 N 
ATOM     12  N   UNL     1       0.064  -5.383  -2.398  0.00  0.00    -0.316 N 
ATOM     13  H   UNL     1       0.078  -6.235  -1.935  0.00  0.00    +0.149 HD
ATOM     14  H   UNL     1       0.025  -2.808  -3.148  0.00  0.00    +0.169 HD
ENDROOT
BRANCH  12  15
ATOM     15  C   UNL     1       0.056  -5.344  -3.863  0.00  0.00    +0.106 C 
BRANCH  15  16
ATOM     16  C   UNL     1       0.073  -6.773  -4.410  0.00  0.00    +0.046 C 
BRANCH  16  17
ATOM     17  C   UNL     1       0.065  -6.733  -5.940  0.00  0.00    +0.157 C 
BRANCH  17  18
ATOM     18  O   UNL     1       0.081  -8.067  -6.451  0.00  0.00    -0.395 OA
ATOM     19  H   UNL     1       0.077  -8.118  -7.417  0.00  0.00    +0.209 HD
ENDBRANCH  17  18
ENDBRANCH  16  17
ENDBRANCH  15  16
ENDBRANCH  12  15
BRANCH   9  20
ATOM     20  C   UNL     1       0.077  -5.245   0.626  0.00  0.00    +0.204 C 
BRANCH  20  21
ATOM     21  C   UNL     1      -1.337  -5.650   0.956  0.00  0.00    +0.183 C 
ATOM     22  O   UNL     1      -2.269  -5.058   0.455  0.00  0.00    -0.290 OA
BRANCH  21  23
ATOM     23  C   UNL     1      -1.585  -6.760   1.884  0.00  0.00    +0.020 A 
ATOM     24  C   UNL     1      -0.510  -7.441   2.468  0.00  0.00    +0.019 A 
ATOM     25  C   UNL     1      -0.747  -8.477   3.335  0.00  0.00    +0.000 A 
ATOM     26  C   UNL     1      -2.052  -8.852   3.633  0.00  0.00    +0.124 A 
ATOM     27  C   UNL     1      -3.124  -8.180   3.055  0.00  0.00    +0.000 A 
ATOM     28  C   UNL     1      -2.897  -7.138   2.192  0.00  0.00    +0.019 A 
BRANCH  27  29
ATOM     29  C   UNL     1      -4.536  -8.592   3.382  0.00  0.00    -0.009 C 
ATOM     30  C   UNL     1      -5.517  -7.699   2.621  0.00  0.00    +0.015 C 
ATOM     31  C   UNL     1      -4.749 -10.051   2.972  0.00  0.00    +0.015 C 
ATOM     32  C   UNL     1      -4.774  -8.446   4.886  0.00  0.00    +0.015 C 
ENDBRANCH  27  29
BRANCH  25  33
ATOM     33  C   UNL     1       0.409  -9.211   3.964  0.00  0.00    -0.009 C 
ATOM     34  C   UNL     1       1.726  -8.606   3.473  0.00  0.00    +0.015 C 
ATOM     35  C   UNL     1       0.326  -9.083   5.487  0.00  0.00    +0.015 C 
ATOM     36  C   UNL     1       0.349 -10.689   3.573  0.00  0.00    +0.015 C 
ENDBRANCH  25  33
BRANCH  26  37
ATOM     37  O   UNL     1      -2.282  -9.878   4.491  0.00  0.00    -0.506 OA
ATOM     38  H   UNL     1      -2.357  -9.608   5.416  0.00  0.00    +0.292 HD
ENDBRANCH  26  37
ENDBRANCH  21  23
ENDBRANCH  20  21
ENDBRANCH   9  20
TORSDOF 10
