REMARK  Name = ZINC43227013
REMARK  17 active torsions:
REMARK  status: ('A' for Active; 'I' for Inactive)
REMARK    1  A    between atoms: C_1  and  C_2
REMARK    2  A    between atoms: C_2  and  O_3
REMARK    3  A    between atoms: O_3  and  C_4
REMARK    4  A    between atoms: C_4  and  C_6
REMARK    5  A    between atoms: C_6  and  C_8
REMARK    6  A    between atoms: C_6  and  N_23
REMARK    7  A    between atoms: C_8  and  C_9
REMARK    8  A    between atoms: C_9  and  C_10
REMARK    9  A    between atoms: C_10  and  C_11
REMARK   10  A    between atoms: C_11  and  N_12
REMARK   11  A    between atoms: N_12  and  S_13
REMARK   12  A    between atoms: S_13  and  C_16
REMARK   13  A    between atoms: C_19  and  C_22
REMARK   14  A    between atoms: C_24  and  C_26
REMARK   15  A    between atoms: C_29  and  C_31
REMARK   16  A    between atoms: C_31  and  C_33
REMARK   17  A    between atoms: C_31  and  N_34
REMARK                            x       y       z     vdW  Elec       q    Type
REMARK                         _______ _______ _______ _____ _____    ______ ____
ROOT
ATOM      1  C   UNL     1       1.516  -2.381   2.500  0.00  0.00    +0.182 C 
ENDROOT
BRANCH   1   2
ATOM      2  N   UNL     1       1.497  -3.844   2.426  0.00  0.00    -0.297 N 
ATOM      3  C   UNL     1       0.435  -4.528   2.895  0.00  0.00    +0.264 C 
ATOM      4  O   UNL     1      -0.507  -3.932   3.380  0.00  0.00    -0.268 OA
ATOM      5  H   UNL     1       2.249  -4.319   2.039  0.00  0.00    +0.150 HD
BRANCH   3   6
ATOM      6  C   UNL     1       0.416  -5.999   2.821  0.00  0.00    +0.133 A 
ATOM      7  C   UNL     1      -0.644  -6.734   3.280  0.00  0.00    +0.079 A 
ATOM      8  S   UNL     1      -0.157  -8.310   2.960  0.00  0.00    -0.081 S 
ATOM      9  C   UNL     1       1.341  -7.996   2.270  0.00  0.00    +0.064 A 
ATOM     10  N   UNL     1       1.430  -6.694   2.296  0.00  0.00    -0.241 NA
BRANCH   9  11
ATOM     11  C   UNL     1       2.346  -8.986   1.739  0.00  0.00    -0.021 C 
ATOM     12  C   UNL     1       1.863  -9.530   0.393  0.00  0.00    -0.007 C 
BRANCH  11  13
ATOM     13  N   UNL     1       2.491 -10.095   2.692  0.00  0.00    +0.384 N 
ATOM     14  H   UNL     1       1.600 -10.552   2.814  0.00  0.00    -0.089 HD
ATOM     15  H   UNL     1       3.164 -10.758   2.336  0.00  0.00    -0.089 HD
ATOM     16  H   UNL     1       2.809  -9.736   3.580  0.00  0.00    -0.089 HD
ENDBRANCH  11  13
ENDBRANCH   9  11
ENDBRANCH   3   6
ENDBRANCH   1   2
BRANCH   1  17
ATOM     17  C   UNL     1       0.801  -1.808   1.304  0.00  0.00    +0.328 C 
ATOM     18  O   UNL     1       0.324  -2.546   0.475  0.00  0.00    -0.249 OA
BRANCH  17  19
ATOM     19  O   UNL     1       0.693  -0.477   1.160  0.00  0.00    -0.464 OA
BRANCH  19  21
ATOM     20  C   UNL     1      -0.019   1.526   0.010  0.00  0.00    +0.048 C 
ATOM     21  C   UNL     1       0.002  -0.004   0.002  0.00  0.00    +0.229 C 
ENDBRANCH  19  21
ENDBRANCH  17  19
ENDBRANCH   1  17
BRANCH   1  22
ATOM     22  C   UNL     1       2.965  -1.889   2.511  0.00  0.00    +0.034 C 
BRANCH  22  23
ATOM     23  C   UNL     1       3.656  -2.369   3.789  0.00  0.00    +0.004 C 
BRANCH  23  24
ATOM     24  C   UNL     1       5.105  -1.877   3.800  0.00  0.00    +0.017 C 
BRANCH  24  25
ATOM     25  C   UNL     1       5.796  -2.356   5.079  0.00  0.00    +0.106 C 
BRANCH  25  26
ATOM     26  N   UNL     1       7.184  -1.886   5.089  0.00  0.00    -0.190 NA
ATOM     27  H   UNL     1       7.588  -1.550   4.274  0.00  0.00    +0.148 HD
BRANCH  26  28
ATOM     28  S   UNL     1       8.061  -1.927   6.493  0.00  0.00    +0.058 S 
ATOM     29  O   UNL     1       9.357  -1.438   6.176  0.00  0.00    -0.153 OA
ATOM     30  O   UNL     1       7.249  -1.336   7.497  0.00  0.00    -0.153 OA
BRANCH  28  31
ATOM     31  C   UNL     1       8.257  -3.622   6.935  0.00  0.00    +0.105 A 
ATOM     32  C   UNL     1       7.317  -4.239   7.739  0.00  0.00    +0.029 A 
ATOM     33  C   UNL     1       7.470  -5.568   8.087  0.00  0.00    +0.005 A 
ATOM     34  C   UNL     1       8.563  -6.280   7.629  0.00  0.00    -0.050 A 
ATOM     35  C   UNL     1       9.503  -5.663   6.824  0.00  0.00    +0.005 A 
ATOM     36  C   UNL     1       9.347  -4.335   6.474  0.00  0.00    +0.029 A 
ATOM     37  C   UNL     1       8.731  -7.729   8.009  0.00  0.00    +0.044 C 
ENDBRANCH  28  31
ENDBRANCH  26  28
ENDBRANCH  25  26
ENDBRANCH  24  25
ENDBRANCH  23  24
ENDBRANCH  22  23
ENDBRANCH   1  22
TORSDOF 14
