REMARK  Name = ZINC48857130
REMARK  7 active torsions:
REMARK  status: ('A' for Active; 'I' for Inactive)
REMARK    1  A    between atoms: C_1  and  C_2
REMARK    2  A    between atoms: C_2  and  C_3
REMARK    3  A    between atoms: C_9  and  N_11
REMARK    4  A    between atoms: N_14  and  C_15
REMARK    5  A    between atoms: C_15  and  C_16
REMARK    6  A    between atoms: C_18  and  C_22
REMARK    7  A    between atoms: C_19  and  C_21
REMARK                            x       y       z     vdW  Elec       q    Type
REMARK                         _______ _______ _______ _____ _____    ______ ____
ROOT
ATOM      1  N   UNL     1      -0.776  -2.430  -1.376  0.00  0.00    -0.296 N 
ATOM      2  C   UNL     1      -1.139  -3.654  -0.946  0.00  0.00    +0.300 C 
ATOM      3  O   UNL     1      -0.298  -4.422  -0.518  0.00  0.00    -0.253 OA
ATOM      4  N   UNL     1      -2.433  -4.028  -0.989  0.00  0.00    -0.291 N 
ATOM      5  H   UNL     1      -1.447  -1.817  -1.717  0.00  0.00    +0.151 HD
ATOM      6  H   UNL     1      -3.103  -3.416  -1.330  0.00  0.00    +0.151 HD
ENDROOT
BRANCH   1  12
ATOM      7  C   UNL     1       0.718  -0.497  -1.257  0.00  0.00    +0.009 C 
ATOM      8  C   UNL     1       2.187  -0.073  -1.207  0.00  0.00    +0.005 C 
ATOM      9  C   UNL     1       2.904  -0.566  -2.466  0.00  0.00    +0.000 C 
ATOM     10  C   UNL     1       2.816  -2.092  -2.538  0.00  0.00    +0.002 C 
ATOM     11  C   UNL     1       1.347  -2.517  -2.587  0.00  0.00    +0.022 C 
ATOM     12  C   UNL     1       0.630  -2.023  -1.329  0.00  0.00    +0.078 C 
BRANCH   7  14
ATOM     13  C   UNL     1      -0.019   1.526   0.010  0.00  0.00    +0.004 C 
ATOM     14  C   UNL     1       0.002  -0.004   0.002  0.00  0.00    +0.002 C 
ENDBRANCH   7  14
ENDBRANCH   1  12
BRANCH   4  15
ATOM     15  C   UNL     1      -2.827  -5.360  -0.522  0.00  0.00    +0.201 C 
BRANCH  15  16
ATOM     16  C   UNL     1      -4.317  -5.526  -0.676  0.00  0.00    +0.213 A 
ATOM     17  N   UNL     1      -4.922  -6.000  -1.728  0.00  0.00    -0.217 NA
ATOM     18  C   UNL     1      -6.247  -5.998  -1.500  0.00  0.00    +0.079 A 
ATOM     19  C   UNL     1      -6.448  -5.505  -0.266  0.00  0.00    +0.125 A 
ATOM     20  O   UNL     1      -5.237  -5.215   0.247  0.00  0.00    -0.443 OA
ATOM     21  C   UNL     1      -7.778  -5.316   0.417  0.00  0.00    +0.088 C 
ATOM     22  C   UNL     1      -7.315  -6.465  -2.455  0.00  0.00    +0.069 C 
ENDBRANCH  15  16
ENDBRANCH   4  15
TORSDOF 4
