REMARK  Name = ZINC23021991
REMARK  13 active torsions:
REMARK  status: ('A' for Active; 'I' for Inactive)
REMARK    1  A    between atoms: C_1  and  C_2
REMARK    2  A    between atoms: C_2  and  C_3
REMARK    3  A    between atoms: C_3  and  C_4
REMARK    4  A    between atoms: C_4  and  C_5
REMARK    5  A    between atoms: C_5  and  N_6
REMARK    6  A    between atoms: N_6  and  C_7
REMARK    7  A    between atoms: C_8  and  N_20
REMARK    8  A    between atoms: N_9  and  C_16
REMARK    9  A    between atoms: C_16  and  C_17
REMARK   10  A    between atoms: C_17  and  C_18
REMARK   11  A    between atoms: C_18  and  C_19
REMARK   12  A    between atoms: C_21  and  C_23
REMARK   13  A    between atoms: C_30  and  C_32
REMARK                            x       y       z     vdW  Elec       q    Type
REMARK                         _______ _______ _______ _____ _____    ______ ____
ROOT
ATOM      1  N   UNL     1       0.239   0.822   4.708  0.00  0.00    -0.264 N 
ATOM      2  C   UNL     1       0.849   1.657   5.576  0.00  0.00    +0.225 C 
ATOM      3  O   UNL     1       0.879   2.849   5.351  0.00  0.00    -0.275 OA
ENDROOT
BRANCH   1   4
ATOM      4  C   UNL     1       0.121  -0.550   5.014  0.00  0.00    +0.140 A 
ATOM      5  C   UNL     1      -1.116  -1.110   5.261  0.00  0.00    +0.127 A 
ATOM      6  N   UNL     1      -1.199  -2.451   5.556  0.00  0.00    -0.280 N 
ATOM      7  C   UNL     1      -0.088  -3.208   5.603  0.00  0.00    +0.331 A 
ATOM      8  O   UNL     1      -0.182  -4.391   5.866  0.00  0.00    -0.246 OA
ATOM      9  N   UNL     1       1.126  -2.680   5.364  0.00  0.00    -0.273 N 
ATOM     10  H   UNL     1       2.022  -3.316   5.412  0.00  0.00    +0.173 HD
ATOM     11  C   UNL     1       1.262  -1.373   5.066  0.00  0.00    +0.277 A 
ATOM     12  O   UNL     1       2.366  -0.905   4.846  0.00  0.00    -0.266 OA
BRANCH   5  13
ATOM     13  N   UNL     1      -2.251  -0.337   5.214  0.00  0.00    -0.343 N 
ATOM     14  H   UNL     1      -3.233  -0.790   5.412  0.00  0.00    +0.144 HD
ATOM     15  H   UNL     1      -2.177   0.735   4.977  0.00  0.00    +0.144 HD
ENDBRANCH   5  13
BRANCH   6  16
ATOM     16  C   UNL     1      -2.505  -3.058   5.822  0.00  0.00    +0.128 C 
BRANCH  16  17
ATOM     17  C   UNL     1      -3.105  -3.570   4.510  0.00  0.00    +0.021 C 
BRANCH  17  18
ATOM     18  C   UNL     1      -4.470  -4.204   4.787  0.00  0.00    -0.002 C 
ATOM     19  C   UNL     1      -5.070  -4.716   3.476  0.00  0.00    +0.004 C 
ENDBRANCH  17  18
ENDBRANCH  16  17
ENDBRANCH   6  16
ENDBRANCH   1   4
BRANCH   2  20
ATOM     20  C   UNL     1       1.490   1.108   6.824  0.00  0.00    +0.093 C 
ATOM     21  C   UNL     1       2.413   2.167   7.432  0.00  0.00    +0.016 C 
ATOM     22  C   UNL     1       3.090   1.600   8.681  0.00  0.00    +0.020 C 
ATOM     23  C   UNL     1       2.021   1.238   9.717  0.00  0.00    +0.108 C 
ATOM     24  N   UNL     1       1.047   0.332   9.095  0.00  0.00    -0.296 N 
ATOM     25  C   UNL     1       0.403   0.741   7.839  0.00  0.00    +0.120 C 
ATOM     26  C   UNL     1       0.750  -0.853   9.664  0.00  0.00    +0.253 C 
ATOM     27  O   UNL     1       0.040  -1.649   9.078  0.00  0.00    -0.269 OA
BRANCH  26  28
ATOM     28  C   UNL     1       1.282  -1.183  10.990  0.00  0.00    +0.074 A 
ATOM     29  C   UNL     1       1.242  -2.389  11.672  0.00  0.00    +0.021 A 
ATOM     30  C   UNL     1       1.824  -2.424  12.914  0.00  0.00    +0.008 A 
ATOM     31  C   UNL     1       2.401  -1.298  13.409  0.00  0.00    +0.046 A 
ATOM     32  S   UNL     1       2.156  -0.139  12.142  0.00  0.00    -0.092 S 
ENDBRANCH  26  28
ENDBRANCH   2  20
BRANCH   1  33
ATOM     33  C   UNL     1      -0.299   1.341   3.448  0.00  0.00    +0.114 C 
BRANCH  33  34
ATOM     34  C   UNL     1       0.746   1.181   2.342  0.00  0.00    +0.019 C 
BRANCH  34  35
ATOM     35  C   UNL     1       0.142   1.611   1.004  0.00  0.00    +0.001 C 
BRANCH  35  37
ATOM     36  C   UNL     1       0.584   1.881  -1.440  0.00  0.00    +0.004 C 
ATOM     37  C   UNL     1       1.187   1.450  -0.102  0.00  0.00    -0.003 C 
ENDBRANCH  35  37
ENDBRANCH  34  35
ENDBRANCH  33  34
ENDBRANCH   1  33
TORSDOF 11
