REMARK  Name = ZINC39687699
REMARK  6 active torsions:
REMARK  status: ('A' for Active; 'I' for Inactive)
REMARK    1  A    between atoms: C_1  and  C_2
REMARK    2  A    between atoms: C_7  and  N_8
REMARK    3  A    between atoms: C_11  and  N_14
REMARK    4  A    between atoms: C_15  and  C_17
REMARK    5  A    between atoms: C_28  and  C_30
REMARK    6  A    between atoms: C_33  and  C_35
REMARK                            x       y       z     vdW  Elec       q    Type
REMARK                         _______ _______ _______ _____ _____    ______ ____
ROOT
ATOM      1  C   UNL     1       3.943   1.857   7.056  0.00  0.00    +0.100 C 
ATOM      2  C   UNL     1       4.170   3.377   6.892  0.00  0.00    +0.121 C 
ATOM      3  N   UNL     1       3.585   3.977   8.114  0.00  0.00    -0.294 N 
ATOM      4  C   UNL     1       3.958   3.039   9.200  0.00  0.00    +0.115 C 
ATOM      5  C   UNL     1       3.808   1.639   8.572  0.00  0.00    -0.004 C 
ATOM      6  C   UNL     1       4.913   0.714   9.074  0.00  0.00    -0.010 C 
ATOM      7  C   UNL     1       4.724   0.466  10.573  0.00  0.00    -0.082 C 
ATOM      8  N   UNL     1       3.407  -0.139  10.808  0.00  0.00    +0.379 N 
ATOM      9  C   UNL     1       2.348   0.795  10.409  0.00  0.00    -0.082 C 
ATOM     10  C   UNL     1       2.437   1.058   8.903  0.00  0.00    -0.010 C 
ATOM     11  C   UNL     1       2.874   5.117   8.215  0.00  0.00    +0.282 C 
ATOM     12  O   UNL     1       2.458   5.481   9.300  0.00  0.00    -0.267 OA
ATOM     13  H   UNL     1       3.327  -0.987  10.267  0.00  0.00    -0.086 HD
ATOM     14  H   UNL     1       3.309  -0.358  11.788  0.00  0.00    -0.086 HD
ENDROOT
BRANCH  11  15
ATOM     15  C   UNL     1       2.602   5.920   7.019  0.00  0.00    +0.190 A 
ATOM     16  C   UNL     1       1.897   7.102   6.982  0.00  0.00    +0.055 A 
ATOM     17  C   UNL     1       1.881   7.521   5.648  0.00  0.00    +0.050 A 
ATOM     18  C   UNL     1       2.570   6.588   4.926  0.00  0.00    +0.136 A 
ATOM     19  O   UNL     1       3.004   5.632   5.764  0.00  0.00    -0.450 OA
BRANCH  18  20
ATOM     20  C   UNL     1       2.803   6.628   3.469  0.00  0.00    +0.017 A 
ATOM     21  C   UNL     1       2.306   7.688   2.707  0.00  0.00    +0.011 A 
ATOM     22  C   UNL     1       2.528   7.718   1.346  0.00  0.00    +0.001 A 
ATOM     23  C   UNL     1       3.241   6.702   0.735  0.00  0.00    +0.000 A 
ATOM     24  C   UNL     1       3.736   5.649   1.483  0.00  0.00    +0.001 A 
ATOM     25  C   UNL     1       3.526   5.608   2.846  0.00  0.00    +0.011 A 
ENDBRANCH  18  20
ENDBRANCH  11  15
BRANCH   1  27
ATOM     26  N   UNL     1       2.565   0.185   5.863  0.00  0.00    -0.312 N 
ATOM     27  C   UNL     1       2.680   1.436   6.351  0.00  0.00    +0.218 C 
ATOM     28  O   UNL     1       1.766   2.223   6.223  0.00  0.00    -0.275 OA
ATOM     29  H   UNL     1       3.296  -0.444   5.965  0.00  0.00    +0.149 HD
BRANCH  26  33
ATOM     30  N   UNL     1      -0.673  -2.082   4.463  0.00  0.00    -0.316 N 
ATOM     31  C   UNL     1       0.368  -1.773   3.474  0.00  0.00    +0.108 C 
ATOM     32  C   UNL     1       1.648  -1.371   4.214  0.00  0.00    +0.041 C 
ATOM     33  C   UNL     1       1.337  -0.224   5.177  0.00  0.00    +0.076 C 
ATOM     34  C   UNL     1       0.307  -0.688   6.210  0.00  0.00    +0.041 C 
ATOM     35  C   UNL     1      -0.992  -1.080   5.489  0.00  0.00    +0.108 C 
BRANCH  30  42
ATOM     36  C   UNL     1      -2.947  -2.288   2.766  0.00  0.00    +0.047 C 
ATOM     37  C   UNL     1      -2.464  -3.440   3.609  0.00  0.00    -0.012 A 
ATOM     38  C   UNL     1      -3.123  -4.657   3.577  0.00  0.00    +0.008 A 
ATOM     39  C   UNL     1      -2.643  -5.691   4.370  0.00  0.00    +0.018 A 
ATOM     40  C   UNL     1      -1.532  -5.477   5.162  0.00  0.00    +0.084 A 
ATOM     41  N   UNL     1      -0.924  -4.306   5.172  0.00  0.00    -0.349 N 
ATOM     42  C   UNL     1      -1.347  -3.297   4.426  0.00  0.00    +0.102 A 
ATOM     43  H   UNL     1      -0.146  -4.182   5.738  0.00  0.00    +0.167 HD
ENDBRANCH  30  42
ENDBRANCH  26  33
ENDBRANCH   1  27
TORSDOF 5
