REMARK  Name = ZINC27744257
REMARK  8 active torsions:
REMARK  status: ('A' for Active; 'I' for Inactive)
REMARK    1  A    between atoms: C_3  and  C_6
REMARK    2  A    between atoms: C_6  and  C_8
REMARK    3  A    between atoms: C_6  and  N_23
REMARK    4  A    between atoms: C_8  and  N_9
REMARK    5  A    between atoms: C_10  and  C_12
REMARK    6  A    between atoms: C_12  and  O_13
REMARK    7  A    between atoms: O_13  and  C_14
REMARK    8  A    between atoms: C_17  and  N_20
REMARK                            x       y       z     vdW  Elec       q    Type
REMARK                         _______ _______ _______ _____ _____    ______ ____
ROOT
ATOM      1  C   UNL     1      -0.700  -2.254   2.921  0.00  0.00    +0.094 C 
ENDROOT
BRANCH   1   2
ATOM      2  N   UNL     1      -1.294  -1.242   3.798  0.00  0.00    -0.314 N 
ATOM      3  C   UNL     1      -1.342  -1.448   5.129  0.00  0.00    +0.251 C 
ATOM      4  O   UNL     1      -0.893  -2.471   5.601  0.00  0.00    -0.272 OA
ATOM      5  H   UNL     1      -1.701  -0.314   3.370  0.00  0.00    +0.149 HD
BRANCH   3   6
ATOM      6  C   UNL     1      -1.954  -0.407   6.031  0.00  0.00    +0.324 C 
BRANCH   6   7
ATOM      7  O   UNL     1      -1.887  -0.853   7.387  0.00  0.00    -0.483 OA
BRANCH   7   8
ATOM      8  C   UNL     1      -2.399  -0.024   8.335  0.00  0.00    +0.121 A 
ATOM      9  C   UNL     1      -2.950   1.195   7.968  0.00  0.00    +0.048 A 
ATOM     10  C   UNL     1      -3.474   2.033   8.933  0.00  0.00    +0.036 A 
ATOM     11  C   UNL     1      -3.441   1.662  10.265  0.00  0.00    +0.126 A 
ATOM     12  C   UNL     1      -2.888   0.450  10.633  0.00  0.00    +0.036 A 
ATOM     13  C   UNL     1      -2.367  -0.394   9.672  0.00  0.00    +0.048 A 
BRANCH  11  14
ATOM     14  N   UNL     1      -3.999   2.564  11.297  0.00  0.00    +0.056 N 
ATOM     15  O   UNL     1      -3.970   2.238  12.470  0.00  0.00    -0.126 OA
ATOM     16  O   UNL     1      -4.486   3.632  10.973  0.00  0.00    -0.126 OA
ENDBRANCH  11  14
ENDBRANCH   7   8
ENDBRANCH   6   7
ENDBRANCH   3   6
ENDBRANCH   1   2
BRANCH   1  17
ATOM     17  C   UNL     1      -0.772  -1.776   1.469  0.00  0.00    -0.013 C 
BRANCH  17  18
ATOM     18  N   UNL     1      -0.136  -0.457   1.356  0.00  0.00    +0.386 N 
ATOM     19  C   UNL     1      -0.083  -0.014  -0.051  0.00  0.00    -0.078 C 
ATOM     20  C   UNL     1      -0.139   1.493  -0.070  0.00  0.00    -0.019 C 
ATOM     21  C   UNL     1       1.268   2.112  -0.132  0.00  0.00    -0.002 C 
ATOM     22  C   UNL     1       2.265   1.369   0.779  0.00  0.00    -0.002 C 
ATOM     23  C   UNL     1       1.668   0.997   2.112  0.00  0.00    -0.019 C 
ATOM     24  C   UNL     1       1.091  -0.432   2.025  0.00  0.00    -0.078 C 
ATOM     25  H   UNL     1      -0.709   0.301   1.911  0.00  0.00    -0.081 HD
ENDBRANCH  17  18
BRANCH  17  28
ATOM     26  C   UNL     1       0.293  -4.461  -1.015  0.00  0.00    +0.008 A 
ATOM     27  C   UNL     1      -0.568  -3.651  -0.298  0.00  0.00    +0.009 A 
ATOM     28  C   UNL     1      -0.052  -2.758   0.581  0.00  0.00    -0.022 A 
ATOM     29  S   UNL     1       1.702  -3.042   0.409  0.00  0.00    -0.103 S 
ATOM     30  C   UNL     1       1.628  -4.338  -0.817  0.00  0.00    +0.045 A 
ENDBRANCH  17  28
ENDBRANCH   1  17
TORSDOF 8
