REMARK  Name = ZINC36027272
REMARK  7 active torsions:
REMARK  status: ('A' for Active; 'I' for Inactive)
REMARK    1  A    between atoms: C_4  and  C_7
REMARK    2  A    between atoms: C_7  and  C_8
REMARK    3  A    between atoms: N_12  and  C_30
REMARK    4  A    between atoms: N_17  and  S_20
REMARK    5  A    between atoms: S_20  and  C_23
REMARK    6  A    between atoms: C_30  and  C_31
REMARK    7  A    between atoms: C_31  and  C_32
REMARK                            x       y       z     vdW  Elec       q    Type
REMARK                         _______ _______ _______ _____ _____    ______ ____
ROOT
ATOM      1  C   UNL     1       3.930  -1.111   1.526  0.00  0.00    +0.023 C 
ATOM      2  C   UNL     1       5.276  -1.800   1.579  0.00  0.00    +0.201 C 
ATOM      3  O   UNL     1       6.356  -1.251   1.514  0.00  0.00    -0.277 OA
ATOM      4  N   UNL     1       5.073  -3.127   1.713  0.00  0.00    -0.313 N 
ATOM      5  C   UNL     1       3.634  -3.400   1.750  0.00  0.00    +0.006 C 
ATOM      6  N   UNL     1       2.969  -2.111   2.051  0.00  0.00    +0.401 N 
ATOM      7  C   UNL     1       3.161  -3.920   0.393  0.00  0.00    +0.023 C 
ATOM      8  C   UNL     1       3.883  -5.233   0.073  0.00  0.00    +0.109 C 
ATOM      9  N   UNL     1       3.685  -6.166   1.190  0.00  0.00    -0.177 NA
ATOM     10  C   UNL     1       4.039  -5.731   2.548  0.00  0.00    +0.109 C 
ATOM     11  C   UNL     1       3.316  -4.413   2.847  0.00  0.00    +0.023 C 
ATOM     12  H   UNL     1       2.845  -1.998   3.045  0.00  0.00    -0.082 HD
ATOM     13  H   UNL     1       2.085  -2.044   1.569  0.00  0.00    -0.082 HD
ENDROOT
BRANCH   9  14
ATOM     14  S   UNL     1       3.073  -7.682   0.924  0.00  0.00    +0.061 S 
ATOM     15  O   UNL     1       2.489  -8.105   2.149  0.00  0.00    -0.153 OA
ATOM     16  O   UNL     1       2.336  -7.615  -0.289  0.00  0.00    -0.153 OA
BRANCH  14  17
ATOM     17  C   UNL     1       4.441  -8.751   0.623  0.00  0.00    +0.107 A 
ATOM     18  C   UNL     1       4.908  -8.930  -0.666  0.00  0.00    +0.028 A 
ATOM     19  C   UNL     1       5.981  -9.768  -0.902  0.00  0.00    +0.003 A 
ATOM     20  C   UNL     1       6.588 -10.428   0.150  0.00  0.00    +0.020 A 
ATOM     21  C   UNL     1       6.122 -10.249   1.440  0.00  0.00    +0.043 A 
ATOM     22  C   UNL     1       5.051  -9.405   1.677  0.00  0.00    +0.048 A 
ATOM     23 CL   UNL     1       6.884 -11.077   2.761  0.00  0.00    -0.083 Cl
ENDBRANCH  14  17
ENDBRANCH   9  14
BRANCH   1  24
ATOM     24  C   UNL     1       3.578  -0.741   0.083  0.00  0.00    +0.028 C 
BRANCH  24  28
ATOM     25  C   UNL     1      -0.203   1.246   0.002  0.00  0.00    +0.000 A 
ATOM     26  C   UNL     1       0.960   1.978   0.153  0.00  0.00    +0.000 A 
ATOM     27  C   UNL     1       2.183   1.335   0.179  0.00  0.00    +0.003 A 
ATOM     28  C   UNL     1       2.244  -0.040   0.055  0.00  0.00    -0.048 A 
ATOM     29  C   UNL     1       1.082  -0.773  -0.094  0.00  0.00    +0.003 A 
ATOM     30  C   UNL     1      -0.142  -0.130  -0.122  0.00  0.00    +0.000 A 
ENDBRANCH  24  28
ENDBRANCH   1  24
BRANCH   4  31
ATOM     31  C   UNL     1       6.128  -4.139   1.808  0.00  0.00    +0.112 C 
BRANCH  31  32
ATOM     32  C   UNL     1       6.535  -4.316   3.273  0.00  0.00    +0.074 C 
BRANCH  32  33
ATOM     33  C   UNL     1       7.624  -5.353   3.370  0.00  0.00    +0.043 A 
ATOM     34  C   UNL     1       8.813  -5.037   3.999  0.00  0.00    +0.023 A 
ATOM     35  C   UNL     1       9.809  -5.998   4.084  0.00  0.00    +0.003 A 
ATOM     36  C   UNL     1       9.569  -7.247   3.529  0.00  0.00    +0.020 A 
ATOM     37  C   UNL     1       8.355  -7.489   2.916  0.00  0.00    +0.111 A 
ATOM     38  N   UNL     1       7.429  -6.552   2.859  0.00  0.00    -0.260 NA
ENDBRANCH  32  33
ENDBRANCH  31  32
ENDBRANCH   4  31
TORSDOF 7
