REMARK  Name = ZINC01042310
REMARK  4 active torsions:
REMARK  status: ('A' for Active; 'I' for Inactive)
REMARK    1  A    between atoms: C_3  and  N_17
REMARK    2  A    between atoms: C_6  and  C_7
REMARK    3  A    between atoms: N_17  and  S_18
REMARK    4  A    between atoms: S_18  and  C_21
REMARK                            x       y       z     vdW  Elec       q    Type
REMARK                         _______ _______ _______ _____ _____    ______ ____
ROOT
ATOM      1  C   UNL     1      -2.597   4.967   0.043  0.00  0.00    +0.013 A 
ATOM      2  C   UNL     1      -3.213   6.199   0.037  0.00  0.00    +0.025 A 
ATOM      3  C   UNL     1      -2.449   7.360   0.086  0.00  0.00    +0.048 A 
ATOM      4  C   UNL     1      -1.062   7.281   0.146  0.00  0.00    +0.025 A 
ATOM      5  C   UNL     1      -0.440   6.051   0.158  0.00  0.00    +0.013 A 
ATOM      6  C   UNL     1      -1.205   4.884   0.109  0.00  0.00    +0.017 A 
ENDROOT
BRANCH   6   7
ATOM      7  C   UNL     1      -0.542   3.563   0.122  0.00  0.00    +0.136 A 
ATOM      8  C   UNL     1      -1.182   2.370   0.073  0.00  0.00    +0.058 A 
ATOM      9  C   UNL     1      -0.135   1.346   0.111  0.00  0.00    +0.022 A 
ATOM     10  C   UNL     1      -0.138  -0.050   0.093  0.00  0.00    +0.031 A 
ATOM     11  C   UNL     1       1.057  -0.734   0.136  0.00  0.00    +0.042 A 
ATOM     12  C   UNL     1       2.259  -0.039   0.198  0.00  0.00    +0.023 A 
ATOM     13  C   UNL     1       2.275   1.339   0.217  0.00  0.00    +0.048 A 
ATOM     14  C   UNL     1       1.082   2.049   0.173  0.00  0.00    +0.136 A 
ATOM     15  O   UNL     1       0.790   3.366   0.177  0.00  0.00    -0.455 OA
ATOM     16 CL   UNL     1       1.062  -2.469   0.113  0.00  0.00    -0.084 Cl
ENDBRANCH   6   7
BRANCH   3  17
ATOM     17  N   UNL     1      -3.075   8.607   0.074  0.00  0.00    -0.216 N 
ATOM     18  H   UNL     1      -2.800   9.293   0.703  0.00  0.00    +0.174 HD
BRANCH  17  19
ATOM     19  S   UNL     1      -4.286   8.915  -1.012  0.00  0.00    +0.072 S 
ATOM     20  O   UNL     1      -5.230   7.861  -0.878  0.00  0.00    -0.150 OA
ATOM     21  O   UNL     1      -4.641  10.281  -0.847  0.00  0.00    -0.150 OA
BRANCH  19  22
ATOM     22  C   UNL     1      -3.591   8.766  -2.624  0.00  0.00    +0.110 A 
ATOM     23  C   UNL     1      -2.946   9.845  -3.200  0.00  0.00    +0.030 A 
ATOM     24  C   UNL     1      -2.395   9.728  -4.462  0.00  0.00    +0.023 A 
ATOM     25  C   UNL     1      -2.498   8.534  -5.154  0.00  0.00    +0.059 A 
ATOM     26  C   UNL     1      -3.149   7.456  -4.579  0.00  0.00    +0.061 A 
ATOM     27  C   UNL     1      -3.695   7.573  -3.314  0.00  0.00    +0.050 A 
ATOM     28 CL   UNL     1      -3.279   5.958  -5.446  0.00  0.00    -0.082 Cl
ATOM     29 CL   UNL     1      -1.812   8.389  -6.742  0.00  0.00    -0.082 Cl
ENDBRANCH  19  22
ENDBRANCH  17  19
ENDBRANCH   3  17
TORSDOF 4
