REMARK  Name = ZINC08838089
REMARK  8 active torsions:
REMARK  status: ('A' for Active; 'I' for Inactive)
REMARK    1  A    between atoms: C_1  and  C_2
REMARK    2  A    between atoms: C_2  and  C_3
REMARK    3  A    between atoms: C_4  and  C_38
REMARK    4  A    between atoms: C_5  and  C_36
REMARK    5  A    between atoms: C_15  and  N_16
REMARK    6  A    between atoms: C_21  and  C_23
REMARK    7  A    between atoms: C_21  and  C_29
REMARK    8  A    between atoms: C_21  and  N_68
REMARK                            x       y       z     vdW  Elec       q    Type
REMARK                         _______ _______ _______ _____ _____    ______ ____
ROOT
ATOM      1  N   UNL     1      -1.276   3.448   0.102  0.00  0.00    -0.320 N 
ATOM      2  C   UNL     1      -0.692   3.982  -1.136  0.00  0.00    +0.088 C 
ATOM      3  C   UNL     1      -0.737   5.511  -1.100  0.00  0.00    -0.058 C 
ATOM      4  C   UNL     1      -0.583   5.458   1.315  0.00  0.00    -0.058 C 
ATOM      5  C   UNL     1      -0.538   3.929   1.279  0.00  0.00    +0.088 C 
ATOM      6  N   UNL     1       0.027   5.982   0.075  0.00  0.00    +0.389 N 
ATOM      7  H   UNL     1       0.992   5.638   0.006  0.00  0.00    -0.080 HD
ENDROOT
BRANCH   1  20
ATOM      8  C   UNL     1      -2.536   1.437   0.132  0.00  0.00    -0.005 A 
ATOM      9  C   UNL     1      -2.617   0.052   0.106  0.00  0.00    -0.023 A 
ATOM     10  C   UNL     1      -1.446  -0.702   0.017  0.00  0.00    +0.098 A 
ATOM     11  C   UNL     1      -0.160  -0.000  -0.048  0.00  0.00    +0.158 A 
ATOM     12  N   UNL     1       1.079  -0.448  -0.135  0.00  0.00    -0.226 NA
ATOM     13  C   UNL     1       1.941   0.596  -0.165  0.00  0.00    +0.090 A 
ATOM     14  C   UNL     1       3.335   0.688  -0.249  0.00  0.00    +0.030 A 
ATOM     15  C   UNL     1       3.937   1.914  -0.260  0.00  0.00    +0.002 A 
ATOM     16  C   UNL     1       3.180   3.075  -0.188  0.00  0.00    +0.002 A 
ATOM     17  C   UNL     1       1.805   3.009  -0.104  0.00  0.00    +0.028 A 
ATOM     18  C   UNL     1       1.175   1.773  -0.091  0.00  0.00    +0.075 A 
ATOM     19  N   UNL     1      -0.149   1.373  -0.018  0.00  0.00    -0.279 N 
ATOM     20  C   UNL     1      -1.317   2.075   0.075  0.00  0.00    +0.111 A 
ATOM     21  C   UNL     1      -3.958  -0.633   0.175  0.00  0.00    +0.045 C 
BRANCH   8  23
ATOM     22  C   UNL     1      -4.137   2.498   1.701  0.00  0.00    +0.009 C 
ATOM     23  C   UNL     1      -3.799   2.254   0.229  0.00  0.00    +0.035 C 
ENDBRANCH   8  23
BRANCH  10  24
ATOM     24  C   UNL     1      -1.500  -2.133  -0.011  0.00  0.00    +0.103 C 
ATOM     25  N   UNL     1      -1.542  -3.268  -0.033  0.00  0.00    -0.191 NA
ENDBRANCH  10  24
ENDBRANCH   1  20
BRANCH   6  26
ATOM     26  C   UNL     1       0.045   7.460   0.106  0.00  0.00    -0.007 C 
BRANCH  26  27
ATOM     27  C   UNL     1       0.650   7.971  -1.177  0.00  0.00    -0.057 A 
ATOM     28  C   UNL     1       1.814   7.407  -1.664  0.00  0.00    +0.004 A 
ATOM     29  C   UNL     1       2.366   7.870  -2.843  0.00  0.00    +0.020 A 
ATOM     30  C   UNL     1       1.759   8.907  -3.530  0.00  0.00    +0.041 A 
ATOM     31  C   UNL     1       0.597   9.474  -3.039  0.00  0.00    +0.020 A 
ATOM     32  C   UNL     1       0.043   9.006  -1.863  0.00  0.00    +0.004 A 
ATOM     33 CL   UNL     1       2.456   9.495  -5.007  0.00  0.00    -0.084 Cl
ENDBRANCH  26  27
BRANCH  26  34
ATOM     34  C   UNL     1       0.884   7.914   1.272  0.00  0.00    -0.057 A 
ATOM     35  C   UNL     1       2.091   7.295   1.538  0.00  0.00    +0.002 A 
ATOM     36  C   UNL     1       2.863   7.714   2.605  0.00  0.00    +0.000 A 
ATOM     37  C   UNL     1       2.423   8.747   3.413  0.00  0.00    +0.000 A 
ATOM     38  C   UNL     1       1.214   9.363   3.150  0.00  0.00    +0.000 A 
ATOM     39  C   UNL     1       0.444   8.946   2.080  0.00  0.00    +0.002 A 
ENDBRANCH  26  34
ENDBRANCH   6  26
TORSDOF 6
