REMARK  Name = ZINC12300862
REMARK  8 active torsions:
REMARK  status: ('A' for Active; 'I' for Inactive)
REMARK    1  A    between atoms: C_1  and  C_2
REMARK    2  A    between atoms: C_3  and  C_8
REMARK    3  A    between atoms: N_5  and  C_7
REMARK    4  A    between atoms: C_8  and  C_10
REMARK    5  A    between atoms: C_8  and  N_11
REMARK    6  A    between atoms: N_11  and  C_12
REMARK    7  A    between atoms: C_12  and  C_13
REMARK    8  A    between atoms: C_14  and  C_23
REMARK                            x       y       z     vdW  Elec       q    Type
REMARK                         _______ _______ _______ _____ _____    ______ ____
ROOT
ATOM      1  C   UNL     1      -1.295  -1.954  -5.676  0.00  0.00    +0.039 A 
ATOM      2  C   UNL     1      -0.603  -2.903  -6.372  0.00  0.00    +0.146 A 
ATOM      3  N   UNL     1      -1.491  -3.670  -7.032  0.00  0.00    -0.223 NA
ATOM      4  C   UNL     1      -2.712  -3.234  -6.774  0.00  0.00    +0.139 A 
ATOM      5  N   UNL     1      -2.618  -2.162  -5.921  0.00  0.00    -0.303 N 
ATOM      6  C   UNL     1      -3.746  -1.522  -5.488  0.00  0.00    +0.113 A 
ATOM      7  C   UNL     1      -4.967  -1.935  -5.887  0.00  0.00    +0.058 A 
ATOM      8  C   UNL     1      -5.096  -3.032  -6.757  0.00  0.00    +0.025 A 
ATOM      9  C   UNL     1      -3.983  -3.673  -7.203  0.00  0.00    +0.048 A 
ATOM     10 CL   UNL     1      -6.386  -1.107  -5.324  0.00  0.00    -0.082 Cl
ENDROOT
BRANCH   2  11
ATOM     11  C   UNL     1       0.864  -3.061  -6.397  0.00  0.00    +0.267 C 
ATOM     12  O   UNL     1       1.568  -2.304  -5.758  0.00  0.00    -0.268 OA
ATOM     13  N   UNL     1       1.424  -4.045  -7.129  0.00  0.00    -0.296 N 
ATOM     14  C   UNL     1       0.580  -4.961  -7.910  0.00  0.00    +0.108 C 
ATOM     15  C   UNL     1      -0.062  -4.190  -9.057  0.00  0.00    +0.019 C 
ATOM     16  C   UNL     1       1.007  -3.879 -10.118  0.00  0.00    +0.002 C 
ATOM     17  C   UNL     1       1.860  -2.706  -9.649  0.00  0.00    +0.000 C 
ATOM     18  C   UNL     1       3.307  -3.158  -9.379  0.00  0.00    +0.002 C 
ATOM     19  C   UNL     1       3.300  -4.475  -8.603  0.00  0.00    +0.019 C 
ATOM     20  C   UNL     1       2.868  -4.208  -7.160  0.00  0.00    +0.108 C 
ENDBRANCH   2  11
BRANCH   1  21
ATOM     21  C   UNL     1      -0.705  -0.881  -4.796  0.00  0.00    -0.025 C 
BRANCH  21  22
ATOM     22  N   UNL     1      -0.581  -1.388  -3.423  0.00  0.00    +0.387 N 
ATOM     23  H   UNL     1       0.022  -2.197  -3.417  0.00  0.00    -0.085 HD
ATOM     24  H   UNL     1      -1.493  -1.645  -3.075  0.00  0.00    -0.085 HD
BRANCH  22  25
ATOM     25  C   UNL     1      -0.006  -0.343  -2.566  0.00  0.00    -0.040 C 
ATOM     26  C   UNL     1       1.424  -0.042  -3.017  0.00  0.00    -0.009 C 
BRANCH  25  29
ATOM     27  C   UNL     1      -0.018   1.503   0.010  0.00  0.00    +0.068 C 
ATOM     28  C   UNL     1       0.002  -0.004   0.002  0.00  0.00    +0.062 A 
ATOM     29  C   UNL     1       0.008  -0.818  -1.135  0.00  0.00    -0.021 A 
ATOM     30  C   UNL     1       0.028  -2.107  -0.725  0.00  0.00    +0.110 A 
ATOM     31  N   UNL     1       0.034  -2.109   0.625  0.00  0.00    -0.274 N 
ATOM     32  N   UNL     1       0.023  -0.777   1.058  0.00  0.00    -0.177 NA
ATOM     33  C   UNL     1       0.055  -3.295   1.485  0.00  0.00    +0.172 C 
ENDBRANCH  25  29
ENDBRANCH  22  25
ENDBRANCH  21  22
ENDBRANCH   1  21
TORSDOF 5
