REMARK  Name = ZINC48323970
REMARK  8 active torsions:
REMARK  status: ('A' for Active; 'I' for Inactive)
REMARK    1  A    between atoms: C_1  and  C_2
REMARK    2  A    between atoms: C_7  and  C_8
REMARK    3  A    between atoms: C_7  and  C_9
REMARK    4  A    between atoms: C_11  and  O_13
REMARK    5  A    between atoms: O_13  and  C_14
REMARK    6  A    between atoms: C_14  and  C_16
REMARK    7  A    between atoms: N_24  and  C_25
REMARK    8  A    between atoms: N_24  and  C_26
REMARK                            x       y       z     vdW  Elec       q    Type
REMARK                         _______ _______ _______ _____ _____    ______ ____
ROOT
ATOM      1  C   UNL     1       1.571  -0.008  -3.868  0.00  0.00    +0.311 C 
ATOM      2  O   UNL     1       2.698  -0.187  -4.267  0.00  0.00    -0.251 OA
ENDROOT
BRANCH   1   3
ATOM      3  C   UNL     1       0.408  -0.118  -4.819  0.00  0.00    +0.101 C 
ATOM      4  C   UNL     1      -0.341   1.215  -4.864  0.00  0.00    +0.034 C 
ATOM      5  C   UNL     1      -1.543   1.089  -5.806  0.00  0.00    +0.110 C 
ATOM      6  N   UNL     1      -1.071   0.618  -7.115  0.00  0.00    -0.285 N 
ATOM      7  C   UNL     1      -0.263  -0.608  -7.175  0.00  0.00    +0.110 C 
ATOM      8  C   UNL     1       0.924  -0.463  -6.218  0.00  0.00    +0.034 C 
ATOM      9  C   UNL     1      -1.374   1.297  -8.239  0.00  0.00    +0.304 C 
ATOM     10  O   UNL     1      -0.708   1.137  -9.244  0.00  0.00    -0.252 OA
ATOM     11  N   UNL     1      -2.415   2.152  -8.250  0.00  0.00    -0.292 N 
ATOM     12  C   UNL     1      -2.658   2.995  -9.424  0.00  0.00    +0.133 C 
ATOM     13  C   UNL     1      -3.305   2.238  -7.089  0.00  0.00    +0.133 C 
ENDBRANCH   1   3
BRANCH   1  14
ATOM     14  O   UNL     1       1.357   0.288  -2.576  0.00  0.00    -0.461 OA
BRANCH  14  24
ATOM     15  C   UNL     1       2.449   2.871  -0.936  0.00  0.00    +0.015 C 
ATOM     16  C   UNL     1       2.255   1.396  -0.578  0.00  0.00    +0.010 C 
ATOM     17  C   UNL     1       0.863   1.015   0.011  0.00  0.00    +0.011 C 
ATOM     18  C   UNL     1       1.100  -0.329   0.737  0.00  0.00    +0.005 C 
ATOM     19  C   UNL     1       2.613  -0.633   0.518  0.00  0.00    -0.001 C 
ATOM     20  C   UNL     1       3.206   0.820   0.530  0.00  0.00    -0.023 C 
ATOM     21  C   UNL     1       4.673   0.845   0.097  0.00  0.00    +0.012 C 
ATOM     22  C   UNL     1       3.001   1.513   1.879  0.00  0.00    +0.012 C 
ATOM     23  C   UNL     1       2.724  -0.999  -0.993  0.00  0.00    +0.049 C 
ATOM     24  C   UNL     1       2.505   0.377  -1.731  0.00  0.00    +0.183 C 
ENDBRANCH  14  24
ENDBRANCH   1  14
TORSDOF 3
