REMARK  Name = ZINC39635691
REMARK  4 active torsions:
REMARK  status: ('A' for Active; 'I' for Inactive)
REMARK    1  A    between atoms: C_1  and  C_2
REMARK    2  A    between atoms: C_8  and  N_10
REMARK    3  A    between atoms: C_11  and  C_13
REMARK    4  A    between atoms: C_24  and  C_26
REMARK                            x       y       z     vdW  Elec       q    Type
REMARK                         _______ _______ _______ _____ _____    ______ ____
ROOT
ATOM      1  C   UNL     1       0.023   0.581   4.833  0.00  0.00    +0.100 C 
ATOM      2  C   UNL     1      -0.374   2.067   4.678  0.00  0.00    +0.121 C 
ATOM      3  N   UNL     1      -0.174   2.651   6.025  0.00  0.00    -0.296 N 
ATOM      4  C   UNL     1       1.068   2.013   6.523  0.00  0.00    +0.115 C 
ATOM      5  C   UNL     1       0.970   0.550   6.045  0.00  0.00    -0.004 C 
ATOM      6  C   UNL     1       2.345   0.039   5.628  0.00  0.00    -0.010 C 
ATOM      7  C   UNL     1       3.251  -0.039   6.860  0.00  0.00    -0.082 C 
ATOM      8  N   UNL     1       2.653  -0.938   7.854  0.00  0.00    +0.379 N 
ATOM      9  C   UNL     1       1.373  -0.391   8.318  0.00  0.00    -0.082 C 
ATOM     10  C   UNL     1       0.387  -0.328   7.148  0.00  0.00    -0.010 C 
ATOM     11  C   UNL     1      -0.948   3.557   6.655  0.00  0.00    +0.248 C 
ATOM     12  O   UNL     1      -1.998   3.911   6.156  0.00  0.00    -0.270 OA
ATOM     13  H   UNL     1       2.498  -1.843   7.436  0.00  0.00    -0.086 HD
ATOM     14  H   UNL     1       3.280  -1.035   8.638  0.00  0.00    -0.086 HD
ENDROOT
BRANCH  11  15
ATOM     15  C   UNL     1      -0.519   4.119   7.952  0.00  0.00    +0.055 A 
ATOM     16  C   UNL     1       0.835   4.351   8.203  0.00  0.00    +0.016 A 
ATOM     17  C   UNL     1       1.229   4.875   9.415  0.00  0.00    +0.021 A 
ATOM     18  C   UNL     1       0.285   5.172  10.385  0.00  0.00    +0.042 A 
ATOM     19  C   UNL     1      -1.059   4.945  10.144  0.00  0.00    +0.040 A 
ATOM     20  C   UNL     1      -1.468   4.426   8.931  0.00  0.00    +0.054 A 
ATOM     21 CL   UNL     1      -3.154   4.148   8.627  0.00  0.00    -0.083 Cl
ATOM     22 CL   UNL     1       0.790   5.832  11.909  0.00  0.00    -0.083 Cl
ENDBRANCH  11  15
BRANCH   1  24
ATOM     23  N   UNL     1       0.788  -1.222   3.323  0.00  0.00    -0.312 N 
ATOM     24  C   UNL     1       0.736   0.097   3.597  0.00  0.00    +0.218 C 
ATOM     25  O   UNL     1       1.264   0.893   2.850  0.00  0.00    -0.275 OA
ATOM     26  H   UNL     1       0.367  -1.859   3.921  0.00  0.00    +0.149 HD
BRANCH  23  33
ATOM     27  C   UNL     1      -0.587  -2.893   1.398  0.00  0.00    +0.009 C 
ATOM     28  C   UNL     1       0.905  -3.046   1.698  0.00  0.00    +0.006 C 
ATOM     29  C   UNL     1       1.098  -4.059   2.828  0.00  0.00    +0.005 C 
ATOM     30  C   UNL     1       2.590  -4.212   3.128  0.00  0.00    +0.000 C 
ATOM     31  C   UNL     1       3.166  -2.859   3.551  0.00  0.00    +0.002 C 
ATOM     32  C   UNL     1       2.974  -1.846   2.421  0.00  0.00    +0.022 C 
ATOM     33  C   UNL     1       1.482  -1.693   2.122  0.00  0.00    +0.076 C 
ENDBRANCH  23  33
ENDBRANCH   1  24
TORSDOF 3
