REMARK  Name = ZINC63374547
REMARK  12 active torsions:
REMARK  status: ('A' for Active; 'I' for Inactive)
REMARK    1  A    between atoms: C_1  and  C_2
REMARK    2  A    between atoms: C_2  and  C_3
REMARK    3  A    between atoms: C_3  and  O_4
REMARK    4  A    between atoms: O_4  and  C_5
REMARK    5  A    between atoms: C_8  and  C_14
REMARK    6  A    between atoms: C_10  and  O_11
REMARK    7  A    between atoms: O_11  and  C_12
REMARK    8  A    between atoms: C_12  and  C_13
REMARK    9  A    between atoms: N_21  and  C_36
REMARK   10  A    between atoms: C_24  and  C_35
REMARK   11  A    between atoms: C_36  and  C_37
REMARK   12  A    between atoms: C_37  and  O_38
REMARK                            x       y       z     vdW  Elec       q    Type
REMARK                         _______ _______ _______ _____ _____    ______ ____
ROOT
ATOM      1  C   UNL     1       3.293  -4.414  -5.628  0.00  0.00    +0.065 C 
ATOM      2  C   UNL     1       4.748  -3.954  -5.756  0.00  0.00    +0.121 C 
ATOM      3  N   UNL     1       5.299  -4.135  -7.088  0.00  0.00    -0.283 N 
ATOM      4  C   UNL     1       6.665  -4.045  -7.215  0.00  0.00    +0.234 C 
ATOM      5  O   UNL     1       7.389  -3.961  -6.247  0.00  0.00    -0.274 OA
ATOM      6  C   UNL     1       7.221  -4.055  -8.623  0.00  0.00    +0.203 C 
ATOM      7  N   UNL     1       6.387  -3.177  -9.464  0.00  0.00    -0.289 N 
ATOM      8  C   UNL     1       5.033  -3.328  -9.349  0.00  0.00    +0.242 C 
ATOM      9  O   UNL     1       4.249  -2.687 -10.017  0.00  0.00    -0.273 OA
ATOM     10  C   UNL     1       4.583  -4.346  -8.333  0.00  0.00    +0.135 C 
ATOM     11  C   UNL     1       3.097  -4.508  -8.251  0.00  0.00    +0.139 C 
ATOM     12  C   UNL     1       2.608  -3.997  -6.905  0.00  0.00    -0.027 C 
ATOM     13  C   UNL     1       1.587  -3.191  -7.157  0.00  0.00    -0.000 A 
ATOM     14  C   UNL     1       0.651  -2.482  -6.271  0.00  0.00    +0.010 A 
ATOM     15  C   UNL     1      -0.283  -1.705  -6.882  0.00  0.00    +0.001 A 
ATOM     16  C   UNL     1      -0.378  -1.564  -8.270  0.00  0.00    +0.002 A 
ATOM     17  C   UNL     1       0.435  -2.186  -9.161  0.00  0.00    +0.026 A 
ATOM     18  C   UNL     1       1.452  -3.037  -8.639  0.00  0.00    +0.043 A 
ATOM     19  N   UNL     1       2.343  -3.746  -9.245  0.00  0.00    -0.375 N 
ATOM     20  C   UNL     1       5.090  -5.687  -8.866  0.00  0.00    +0.044 C 
ATOM     21  H   UNL     1       2.479  -3.772 -10.205  0.00  0.00    +0.160 HD
ENDROOT
BRANCH   1  25
ATOM     22  C   UNL     1       1.440  -2.511  -2.277  0.00  0.00    +0.162 A 
ATOM     23  C   UNL     1       1.982  -1.748  -3.298  0.00  0.00    +0.050 A 
ATOM     24  C   UNL     1       2.581  -2.366  -4.380  0.00  0.00    +0.008 A 
ATOM     25  C   UNL     1       2.640  -3.745  -4.446  0.00  0.00    -0.035 A 
ATOM     26  C   UNL     1       2.101  -4.513  -3.431  0.00  0.00    +0.053 A 
ATOM     27  C   UNL     1       1.505  -3.900  -2.341  0.00  0.00    +0.162 A 
BRANCH  22  28
ATOM     28  O   UNL     1       0.851  -1.905  -1.211  0.00  0.00    -0.488 OA
BRANCH  28  29
ATOM     29  C   UNL     1       0.822  -0.476  -1.213  0.00  0.00    +0.229 C 
BRANCH  29  31
ATOM     30  C   UNL     1       0.093   1.551   0.053  0.00  0.00    +0.007 C 
ATOM     31  C   UNL     1       0.125   0.021   0.055  0.00  0.00    +0.038 C 
ENDBRANCH  29  31
ENDBRANCH  28  29
ENDBRANCH  22  28
BRANCH  27  32
ATOM     32  O   UNL     1       0.979  -4.653  -1.338  0.00  0.00    -0.489 OA
BRANCH  32  33
ATOM     33  C   UNL     1       1.081  -6.072  -1.471  0.00  0.00    +0.226 C 
ATOM     34  C   UNL     1       0.439  -6.746  -0.257  0.00  0.00    +0.048 C 
ENDBRANCH  32  33
ENDBRANCH  27  32
ENDBRANCH   1  25
BRANCH   7  35
ATOM     35  C   UNL     1       6.978  -2.193 -10.376  0.00  0.00    +0.136 C 
BRANCH  35  36
ATOM     36  C   UNL     1       7.205  -2.838 -11.744  0.00  0.00    +0.174 C 
BRANCH  36  37
ATOM     37  O   UNL     1       5.944  -3.181 -12.324  0.00  0.00    -0.393 OA
ATOM     38  H   UNL     1       6.011  -3.595 -13.195  0.00  0.00    +0.209 HD
ENDBRANCH  36  37
ENDBRANCH  35  36
ENDBRANCH   7  35
TORSDOF 9
