REMARK  Name = ZINC40259671
REMARK  3 active torsions:
REMARK  status: ('A' for Active; 'I' for Inactive)
REMARK    1  A    between atoms: C_5  and  C_7
REMARK    2  A    between atoms: C_7  and  C_9
REMARK    3  A    between atoms: C_7  and  O_21
REMARK                            x       y       z     vdW  Elec       q    Type
REMARK                         _______ _______ _______ _____ _____    ______ ____
ROOT
ATOM      1  C   UNL     1       1.476  -2.626   1.398  0.00  0.00    +0.007 A 
ATOM      2  C   UNL     1       0.417  -3.040   2.187  0.00  0.00    +0.057 A 
ATOM      3  C   UNL     1       0.648  -3.444   3.490  0.00  0.00    +0.162 A 
ATOM      4  C   UNL     1       1.937  -3.431   4.004  0.00  0.00    +0.163 A 
ATOM      5  C   UNL     1       2.995  -3.016   3.214  0.00  0.00    +0.069 A 
ATOM      6  C   UNL     1       2.762  -2.619   1.908  0.00  0.00    +0.051 A 
ATOM      7 CL   UNL     1       4.086  -2.104   0.910  0.00  0.00    -0.083 Cl
ATOM      8  O   UNL     1       2.154  -3.832   5.290  0.00  0.00    -0.488 OA
ATOM      9  C   UNL     1       1.628  -2.978   6.308  0.00  0.00    +0.232 C 
ATOM     10  C   UNL     1       0.164  -3.295   6.574  0.00  0.00    +0.082 C 
ATOM     11  C   UNL     1      -0.720  -3.000   5.373  0.00  0.00    +0.232 C 
ATOM     12  O   UNL     1      -0.388  -3.856   4.277  0.00  0.00    -0.488 OA
ENDROOT
BRANCH   1  13
ATOM     13  C   UNL     1       1.229  -2.186  -0.022  0.00  0.00    +0.178 C 
BRANCH  13  18
ATOM     14  C   UNL     1      -1.546   0.374  -0.074  0.00  0.00    +0.000 A 
ATOM     15  C   UNL     1      -0.832   1.557  -0.017  0.00  0.00    +0.001 A 
ATOM     16  C   UNL     1       0.549   1.529   0.039  0.00  0.00    +0.020 A 
ATOM     17  C   UNL     1       1.217   0.317   0.038  0.00  0.00    +0.047 A 
ATOM     18  C   UNL     1       0.502  -0.866  -0.020  0.00  0.00    +0.004 A 
ATOM     19  C   UNL     1      -0.879  -0.837  -0.076  0.00  0.00    +0.008 A 
ATOM     20 CL   UNL     1       2.951   0.281   0.107  0.00  0.00    -0.083 Cl
ENDBRANCH  13  18
BRANCH  13  21
ATOM     21  O   UNL     1       0.434  -3.166  -0.692  0.00  0.00    -0.382 OA
ATOM     22  H   UNL     1      -0.431  -3.317  -0.285  0.00  0.00    +0.211 HD
ENDBRANCH  13  21
ENDBRANCH   1  13
TORSDOF 3
