REMARK  Name = ZINC56737573
REMARK  10 active torsions:
REMARK  status: ('A' for Active; 'I' for Inactive)
REMARK    1  A    between atoms: C_1  and  C_2
REMARK    2  A    between atoms: C_2  and  C_4
REMARK    3  A    between atoms: C_2  and  N_13
REMARK    4  A    between atoms: C_4  and  C_5
REMARK    5  A    between atoms: C_5  and  C_6
REMARK    6  A    between atoms: C_9  and  O_12
REMARK    7  A    between atoms: C_20  and  C_22
REMARK    8  A    between atoms: C_22  and  C_23
REMARK    9  A    between atoms: C_22  and  C_24
REMARK   10  A    between atoms: C_22  and  C_25
REMARK                            x       y       z     vdW  Elec       q    Type
REMARK                         _______ _______ _______ _____ _____    ______ ____
ROOT
ATOM      1  N   UNL     1      -1.372  -0.511   0.012  0.00  0.00    -0.297 N 
ATOM      2  C   UNL     1      -2.029  -0.655   1.181  0.00  0.00    +0.306 C 
ATOM      3  O   UNL     1      -1.480  -0.364   2.226  0.00  0.00    -0.252 OA
ATOM      4  N   UNL     1      -3.293  -1.122   1.190  0.00  0.00    -0.247 N 
ATOM      5  C   UNL     1      -3.970  -1.270   2.396  0.00  0.00    +0.189 A 
ATOM      6  N   UNL     1      -3.557  -1.008   3.620  0.00  0.00    -0.126 NA
ATOM      7  N   UNL     1      -4.294  -1.196   4.629  0.00  0.00    -0.144 NA
ATOM      8  C   UNL     1      -5.512  -1.667   4.454  0.00  0.00    +0.109 A 
ATOM      9  S   UNL     1      -5.538  -1.826   2.674  0.00  0.00    -0.035 S 
ATOM     10  H   UNL     1      -1.810  -0.743  -0.822  0.00  0.00    +0.151 HD
ATOM     11  H   UNL     1      -3.731  -1.354   0.356  0.00  0.00    +0.158 HD
ENDROOT
BRANCH   8  12
ATOM     12  C   UNL     1      -6.582  -1.980   5.467  0.00  0.00    +0.013 C 
ATOM     13  C   UNL     1      -6.941  -0.709   6.239  0.00  0.00    +0.018 C 
ATOM     14  C   UNL     1      -7.826  -2.509   4.750  0.00  0.00    +0.018 C 
ATOM     15  C   UNL     1      -6.067  -3.040   6.443  0.00  0.00    +0.018 C 
ENDBRANCH   8  12
BRANCH   1  17
ATOM     16  C   UNL     1      -0.019   1.526   0.010  0.00  0.00    +0.028 C 
ATOM     17  C   UNL     1       0.002  -0.004   0.002  0.00  0.00    +0.072 C 
BRANCH  17  18
ATOM     18  C   UNL     1       0.718  -0.497  -1.257  0.00  0.00    +0.026 C 
BRANCH  18  19
ATOM     19  C   UNL     1       0.849  -2.021  -1.205  0.00  0.00    +0.037 C 
BRANCH  19  20
ATOM     20  C   UNL     1       1.555  -2.507  -2.445  0.00  0.00    -0.047 A 
ATOM     21  C   UNL     1       0.823  -2.834  -3.572  0.00  0.00    +0.007 A 
ATOM     22  C   UNL     1       1.467  -3.280  -4.709  0.00  0.00    +0.045 A 
ATOM     23  C   UNL     1       2.849  -3.400  -4.721  0.00  0.00    +0.117 A 
ATOM     24  C   UNL     1       3.581  -3.071  -3.589  0.00  0.00    +0.045 A 
ATOM     25  C   UNL     1       2.933  -2.620  -2.455  0.00  0.00    +0.007 A 
BRANCH  23  26
ATOM     26  O   UNL     1       3.486  -3.839  -5.839  0.00  0.00    -0.507 OA
ATOM     27  H   UNL     1       3.739  -3.133  -6.449  0.00  0.00    +0.292 HD
ENDBRANCH  23  26
ENDBRANCH  19  20
ENDBRANCH  18  19
ENDBRANCH  17  18
ENDBRANCH   1  17
TORSDOF 6
