REMARK  Name = ZINC03301647
REMARK  8 active torsions:
REMARK  status: ('A' for Active; 'I' for Inactive)
REMARK    1  A    between atoms: C_1  and  C_2
REMARK    2  A    between atoms: C_2  and  C_4
REMARK    3  A    between atoms: C_2  and  N_14
REMARK    4  A    between atoms: C_15  and  C_17
REMARK    5  A    between atoms: C_19  and  S_25
REMARK    6  A    between atoms: C_22  and  O_23
REMARK    7  A    between atoms: O_23  and  C_24
REMARK    8  A    between atoms: S_25  and  N_28
REMARK                            x       y       z     vdW  Elec       q    Type
REMARK                         _______ _______ _______ _____ _____    ______ ____
ROOT
ATOM      1  C   UNL     1       2.679   1.685  -4.594  0.00  0.00    +0.080 A 
ATOM      2  C   UNL     1       2.353   0.571  -3.817  0.00  0.00    +0.045 A 
ATOM      3  C   UNL     1       1.101   0.471  -3.251  0.00  0.00    +0.106 A 
ATOM      4  C   UNL     1       0.161   1.468  -3.454  0.00  0.00    +0.032 A 
ATOM      5  C   UNL     1       0.472   2.578  -4.214  0.00  0.00    +0.048 A 
ATOM      6  C   UNL     1       1.728   2.695  -4.792  0.00  0.00    +0.132 A 
ENDROOT
BRANCH   1   8
ATOM      7  N   UNL     1       4.931   0.825  -5.010  0.00  0.00    -0.308 N 
ATOM      8  C   UNL     1       4.019   1.798  -5.203  0.00  0.00    +0.248 C 
ATOM      9  O   UNL     1       4.299   2.770  -5.878  0.00  0.00    -0.270 OA
ATOM     10  H   UNL     1       4.707   0.050  -4.471  0.00  0.00    +0.149 HD
BRANCH   7  12
ATOM     11  C   UNL     1       7.167   1.766  -4.702  0.00  0.00    +0.028 C 
ATOM     12  C   UNL     1       6.261   0.938  -5.614  0.00  0.00    +0.074 C 
BRANCH  12  13
ATOM     13  C   UNL     1       6.859  -0.459  -5.795  0.00  0.00    +0.012 C 
ATOM     14  C   UNL     1       8.169  -0.382  -6.612  0.00  0.00    +0.009 C 
ATOM     15  C   UNL     1       7.888  -1.233  -7.888  0.00  0.00    -0.010 C 
ATOM     16  C   UNL     1       7.831  -2.704  -7.372  0.00  0.00    +0.004 C 
ATOM     17  C   UNL     1       6.521  -2.780  -6.555  0.00  0.00    +0.004 C 
ATOM     18  C   UNL     1       5.910  -1.349  -6.655  0.00  0.00    -0.006 C 
ATOM     19  C   UNL     1       6.361  -0.941  -8.102  0.00  0.00    +0.007 C 
ENDBRANCH  12  13
ENDBRANCH   7  12
ENDBRANCH   1   8
BRANCH   3  20
ATOM     20  S   UNL     1       0.690  -0.935  -2.272  0.00  0.00    +0.061 S 
ATOM     21  O   UNL     1       1.552  -1.986  -2.689  0.00  0.00    -0.153 OA
ATOM     22  O   UNL     1      -0.725  -1.053  -2.304  0.00  0.00    -0.153 OA
BRANCH  20  23
ATOM     23  N   UNL     1       1.101  -0.579  -0.708  0.00  0.00    -0.177 NA
ATOM     24  C   UNL     1       0.152   0.040   0.172  0.00  0.00    +0.109 C 
ATOM     25  C   UNL     1       0.122   1.589   0.159  0.00  0.00    +0.017 C 
ATOM     26  C   UNL     1       1.564   2.150   0.104  0.00  0.00    +0.001 C 
ATOM     27  C   UNL     1       2.487   1.333   0.960  0.00  0.00    +0.001 C 
ATOM     28  C   UNL     1       3.179   0.367   0.003  0.00  0.00    +0.017 C 
ATOM     29  C   UNL     1       2.472  -0.900  -0.187  0.00  0.00    +0.109 C 
ENDBRANCH  20  23
ENDBRANCH   3  20
BRANCH   6  30
ATOM     30  O   UNL     1       2.034   3.781  -5.543  0.00  0.00    -0.494 OA
ATOM     31  C   UNL     1       1.013   4.769  -5.700  0.00  0.00    +0.277 C 
ENDBRANCH   6  30
TORSDOF 6
