REMARK  Name = ZINC21659073
REMARK  7 active torsions:
REMARK  status: ('A' for Active; 'I' for Inactive)
REMARK    1  A    between atoms: C_1  and  C_2
REMARK    2  A    between atoms: C_7  and  C_8
REMARK    3  A    between atoms: C_20  and  C_22
REMARK    4  A    between atoms: C_24  and  O_29
REMARK    5  A    between atoms: C_27  and  O_28
REMARK    6  A    between atoms: N_30  and  C_37
REMARK    7  A    between atoms: N_33  and  C_36
REMARK                            x       y       z     vdW  Elec       q    Type
REMARK                         _______ _______ _______ _____ _____    ______ ____
ROOT
ATOM      1  C   UNL     1      -1.444   4.318   2.828  0.00  0.00    +0.069 A 
ATOM      2  C   UNL     1      -1.491   2.961   2.624  0.00  0.00    +0.089 A 
ATOM      3  C   UNL     1      -0.750   2.697   1.364  0.00  0.00    +0.082 A 
ATOM      4  C   UNL     1      -0.329   3.872   0.920  0.00  0.00    +0.073 A 
ATOM      5  N   UNL     1      -0.755   4.865   1.791  0.00  0.00    -0.306 N 
ATOM      6  C   UNL     1      -0.453   6.214   1.556  0.00  0.00    +0.068 A 
ATOM      7  C   UNL     1      -0.642   7.179   2.527  0.00  0.00    +0.028 A 
ATOM      8  C   UNL     1      -0.311   8.496   2.260  0.00  0.00    +0.002 A 
ATOM      9  C   UNL     1       0.207   8.846   1.026  0.00  0.00    +0.002 A 
ATOM     10  C   UNL     1       0.392   7.887   0.048  0.00  0.00    +0.025 A 
ATOM     11  C   UNL     1       0.057   6.566   0.302  0.00  0.00    +0.052 A 
ATOM     12  N   UNL     1       0.221   5.588  -0.685  0.00  0.00    -0.330 N 
ATOM     13  C   UNL     1       0.500   4.195  -0.305  0.00  0.00    +0.154 C 
ATOM     14  N   UNL     1      -0.645   1.376   0.906  0.00  0.00    -0.294 N 
ATOM     15  C   UNL     1      -1.222   0.412   1.658  0.00  0.00    +0.332 A 
ATOM     16  O   UNL     1      -1.126  -0.734   1.264  0.00  0.00    -0.246 OA
ATOM     17  N   UNL     1      -1.889   0.613   2.798  0.00  0.00    -0.263 N 
ATOM     18  C   UNL     1      -2.077   1.836   3.358  0.00  0.00    +0.266 A 
ATOM     19  O   UNL     1      -2.691   1.987   4.398  0.00  0.00    -0.267 OA
ATOM     20  C   UNL     1      -2.451  -0.553   3.483  0.00  0.00    +0.157 C 
ATOM     21  C   UNL     1       0.065   1.053  -0.334  0.00  0.00    +0.154 C 
ATOM     22  H   UNL     1       0.141   5.863  -1.748  0.00  0.00    +0.147 HD
ENDROOT
BRANCH   1  29
ATOM     23  C   UNL     1       0.126   4.748   5.220  0.00  0.00    +0.044 C 
ATOM     24  C   UNL     1      -1.287   5.264   5.125  0.00  0.00    -0.041 A 
ATOM     25  C   UNL     1      -1.844   5.952   6.183  0.00  0.00    +0.004 A 
ATOM     26  C   UNL     1      -3.143   6.421   6.101  0.00  0.00    +0.000 A 
ATOM     27  C   UNL     1      -3.891   6.208   4.956  0.00  0.00    +0.001 A 
ATOM     28  C   UNL     1      -3.346   5.526   3.889  0.00  0.00    +0.010 A 
ATOM     29  C   UNL     1      -2.035   5.049   3.965  0.00  0.00    +0.003 A 
ENDBRANCH   1  29
BRANCH  13  30
ATOM     30  C   UNL     1       1.964   4.036   0.013  0.00  0.00    +0.023 A 
ATOM     31  C   UNL     1       2.383   3.981   1.329  0.00  0.00    +0.054 A 
ATOM     32  C   UNL     1       3.730   3.831   1.621  0.00  0.00    +0.117 A 
ATOM     33  C   UNL     1       4.658   3.745   0.594  0.00  0.00    +0.049 A 
ATOM     34  C   UNL     1       4.240   3.805  -0.721  0.00  0.00    +0.049 A 
ATOM     35  C   UNL     1       2.892   3.950  -1.014  0.00  0.00    +0.122 A 
BRANCH  35  36
ATOM     36  O   UNL     1       2.480   4.010  -2.309  0.00  0.00    -0.506 OA
ATOM     37  H   UNL     1       3.216   3.942  -3.124  0.00  0.00    +0.292 HD
ENDBRANCH  35  36
BRANCH  32  38
ATOM     38  O   UNL     1       4.142   3.772   2.916  0.00  0.00    -0.507 OA
ATOM     39  H   UNL     1       5.210   3.653   3.148  0.00  0.00    +0.292 HD
ENDBRANCH  32  38
ENDBRANCH  13  30
TORSDOF 4
