REMARK  Name = ZINC14473043
REMARK  7 active torsions:
REMARK  status: ('A' for Active; 'I' for Inactive)
REMARK    1  A    between atoms: C_1  and  C_2
REMARK    2  A    between atoms: C_2  and  C_3
REMARK    3  A    between atoms: C_2  and  C_4
REMARK    4  A    between atoms: C_2  and  N_5
REMARK    5  A    between atoms: C_6  and  C_8
REMARK    6  A    between atoms: C_15  and  C_24
REMARK    7  A    between atoms: C_26  and  N_31
REMARK                            x       y       z     vdW  Elec       q    Type
REMARK                         _______ _______ _______ _____ _____    ______ ____
ROOT
ATOM      1  C   UNL     1      -0.841   3.436   3.308  0.00  0.00    +0.058 A 
ATOM      2  C   UNL     1      -2.127   3.026   3.660  0.00  0.00    +0.015 A 
ATOM      3  C   UNL     1      -2.751   2.038   2.929  0.00  0.00    +0.001 A 
ATOM      4  C   UNL     1      -2.107   1.458   1.851  0.00  0.00    +0.006 A 
ATOM      5  C   UNL     1      -0.824   1.839   1.495  0.00  0.00    -0.019 A 
ATOM      6  C   UNL     1      -0.188   2.842   2.210  0.00  0.00    +0.044 A 
ATOM      7  N   UNL     1       1.090   3.280   1.898  0.00  0.00    -0.336 N 
ATOM      8  C   UNL     1       1.414   3.083   0.485  0.00  0.00    +0.106 C 
ATOM      9  C   UNL     1       1.280   1.600   0.135  0.00  0.00    +0.029 C 
ATOM     10  C   UNL     1      -0.197   1.179   0.302  0.00  0.00    +0.049 C 
ATOM     11  C   UNL     1      -0.856   1.629  -0.982  0.00  0.00    -0.023 C 
ATOM     12  C   UNL     1       0.038   1.789  -1.925  0.00  0.00    -0.030 C 
ATOM     13  C   UNL     1       1.423   1.460  -1.407  0.00  0.00    +0.033 C 
ATOM     14  H   UNL     1       1.777   2.841   2.492  0.00  0.00    +0.147 HD
ENDROOT
BRANCH   8  15
ATOM     15  C   UNL     1       0.466   3.889  -0.365  0.00  0.00    -0.007 A 
ATOM     16  C   UNL     1      -0.839   4.081   0.047  0.00  0.00    +0.039 A 
ATOM     17  C   UNL     1      -1.708   4.824  -0.730  0.00  0.00    +0.127 A 
ATOM     18  C   UNL     1      -1.275   5.366  -1.927  0.00  0.00    +0.034 A 
ATOM     19  C   UNL     1       0.028   5.169  -2.343  0.00  0.00    +0.022 A 
ATOM     20  C   UNL     1       0.900   4.430  -1.562  0.00  0.00    +0.046 A 
ATOM     21 CL   UNL     1       2.537   4.182  -2.084  0.00  0.00    -0.083 Cl
BRANCH  17  22
ATOM     22  N   UNL     1      -3.103   5.035  -0.285  0.00  0.00    +0.056 N 
ATOM     23  O   UNL     1      -3.870   5.685  -0.973  0.00  0.00    -0.126 OA
ATOM     24  O   UNL     1      -3.485   4.558   0.768  0.00  0.00    -0.126 OA
ENDBRANCH  17  22
ENDBRANCH   8  15
BRANCH   1  26
ATOM     25  N   UNL     1      -0.790   5.059   5.135  0.00  0.00    -0.307 N 
ATOM     26  C   UNL     1      -0.165   4.491   4.085  0.00  0.00    +0.246 C 
ATOM     27  O   UNL     1       0.956   4.849   3.778  0.00  0.00    -0.270 OA
ATOM     28  H   UNL     1      -1.684   4.774   5.380  0.00  0.00    +0.150 HD
BRANCH  25  30
ATOM     29  C   UNL     1       0.208   7.287   4.989  0.00  0.00    +0.031 C 
ATOM     30  C   UNL     1      -0.118   6.108   5.907  0.00  0.00    +0.026 C 
ATOM     31  C   UNL     1      -1.038   6.579   7.036  0.00  0.00    +0.031 C 
ATOM     32  C   UNL     1       1.177   5.552   6.503  0.00  0.00    +0.031 C 
ENDBRANCH  25  30
ENDBRANCH   1  26
TORSDOF 4
