REMARK  Name = ZINC35773156
REMARK  4 active torsions:
REMARK  status: ('A' for Active; 'I' for Inactive)
REMARK    1  A    between atoms: C_1  and  C_2
REMARK    2  A    between atoms: C_2  and  N_3
REMARK    3  A    between atoms: N_3  and  C_4
REMARK    4  A    between atoms: C_9  and  C_11
REMARK                            x       y       z     vdW  Elec       q    Type
REMARK                         _______ _______ _______ _____ _____    ______ ____
ROOT
ATOM      1  C   UNL     1      -1.622  -0.074  -2.309  0.00  0.00    +0.157 C 
ATOM      2  C   UNL     1      -2.425  -1.325  -1.930  0.00  0.00    +0.036 C 
ATOM      3  C   UNL     1      -3.898  -0.943  -1.791  0.00  0.00    +0.039 C 
ATOM      4  C   UNL     1      -4.367  -0.200  -3.014  0.00  0.00    -0.026 A 
ATOM      5  C   UNL     1      -5.724  -0.145  -3.285  0.00  0.00    +0.005 A 
ATOM      6  C   UNL     1      -6.186   0.531  -4.398  0.00  0.00    +0.000 A 
ATOM      7  C   UNL     1      -5.294   1.160  -5.248  0.00  0.00    +0.002 A 
ATOM      8  C   UNL     1      -3.940   1.110  -4.985  0.00  0.00    +0.023 A 
ATOM      9  C   UNL     1      -3.473   0.428  -3.867  0.00  0.00    +0.031 A 
ATOM     10  N   UNL     1      -2.096   0.383  -3.623  0.00  0.00    -0.333 N 
ATOM     11  H   UNL     1      -1.464   0.649  -4.309  0.00  0.00    +0.147 HD
ENDROOT
BRANCH   1  13
ATOM     12  N   UNL     1       0.580  -0.478  -1.258  0.00  0.00    -0.297 N 
ATOM     13  C   UNL     1      -0.155  -0.412  -2.385  0.00  0.00    +0.236 C 
ATOM     14  O   UNL     1       0.363  -0.626  -3.461  0.00  0.00    -0.274 OA
BRANCH  12  15
ATOM     15  C   UNL     1       2.006  -0.806  -1.332  0.00  0.00    +0.076 C 
ATOM     16  C   UNL     1       2.331  -1.969  -0.371  0.00  0.00    +0.022 C 
ATOM     17  C   UNL     1       3.731  -1.618   0.191  0.00  0.00    +0.002 C 
ATOM     18  C   UNL     1       3.656  -0.080   0.358  0.00  0.00    +0.002 C 
ATOM     19  C   UNL     1       2.849   0.395  -0.868  0.00  0.00    +0.022 C 
ENDBRANCH  12  15
BRANCH  12  21
ATOM     20  C   UNL     1      -0.073   1.287   0.304  0.00  0.00    +0.024 C 
ATOM     21  C   UNL     1      -0.046  -0.220   0.041  0.00  0.00    +0.105 C 
ENDBRANCH  12  21
ENDBRANCH   1  13
TORSDOF 3
