REMARK  Name = ZINC04225392
REMARK  9 active torsions:
REMARK  status: ('A' for Active; 'I' for Inactive)
REMARK    1  A    between atoms: C_1  and  C_2
REMARK    2  A    between atoms: C_5  and  C_30
REMARK    3  A    between atoms: C_9  and  C_14
REMARK    4  A    between atoms: C_14  and  C_15
REMARK    5  A    between atoms: C_15  and  N_16
REMARK    6  A    between atoms: N_16  and  C_17
REMARK    7  A    between atoms: C_17  and  N_19
REMARK    8  A    between atoms: N_19  and  C_20
REMARK    9  A    between atoms: C_23  and  C_26
REMARK                            x       y       z     vdW  Elec       q    Type
REMARK                         _______ _______ _______ _____ _____    ______ ____
ROOT
ATOM      1  C   UNL     1       0.427   1.800   0.096  0.00  0.00    +0.108 C 
ENDROOT
BRANCH   1   2
ATOM      2  N   UNL     1      -0.470   1.901   1.249  0.00  0.00    -0.326 N 
ATOM      3  H   UNL     1      -1.384   2.204   1.128  0.00  0.00    +0.148 HD
BRANCH   2   4
ATOM      4  C   UNL     1      -0.027   1.574   2.479  0.00  0.00    +0.135 C 
ATOM      5  S   UNL     1       1.585   1.039   2.693  0.00  0.00    -0.019 S 
BRANCH   4   6
ATOM      6  N   UNL     1      -0.853   1.667   3.540  0.00  0.00    -0.297 N 
ATOM      7  H   UNL     1      -1.746   2.028   3.429  0.00  0.00    +0.154 HD
BRANCH   6   8
ATOM      8  C   UNL     1      -0.421   1.244   4.802  0.00  0.00    +0.033 A 
ATOM      9  C   UNL     1      -1.252   0.466   5.597  0.00  0.00    +0.024 A 
ATOM     10  C   UNL     1      -0.821   0.046   6.840  0.00  0.00    +0.014 A 
ATOM     11  C   UNL     1       0.432   0.408   7.297  0.00  0.00    +0.055 A 
ATOM     12  C   UNL     1       1.260   1.187   6.510  0.00  0.00    +0.014 A 
ATOM     13  C   UNL     1       0.838   1.606   5.264  0.00  0.00    +0.024 A 
BRANCH  11  14
ATOM     14  C   UNL     1       0.897  -0.048   8.656  0.00  0.00    +0.417 C 
ATOM     15  F   UNL     1       0.530   0.900   9.617  0.00  0.00    -0.166 F 
ATOM     16  F   UNL     1       0.305  -1.277   8.964  0.00  0.00    -0.166 F 
ATOM     17  F   UNL     1       2.289  -0.190   8.650  0.00  0.00    -0.166 F 
ENDBRANCH  11  14
ENDBRANCH   6   8
ENDBRANCH   4   6
ENDBRANCH   2   4
ENDBRANCH   1   2
BRANCH   1  18
ATOM     18  C   UNL     1      -0.319   2.227  -1.170  0.00  0.00    +0.059 C 
BRANCH  18  27
ATOM     19  C   UNL     1       0.646  -1.372  -4.808  0.00  0.00    +0.044 C 
ATOM     20  C   UNL     1       1.547  -0.197  -5.090  0.00  0.00    -0.041 A 
ATOM     21  C   UNL     1       2.407  -0.231  -6.152  0.00  0.00    +0.004 A 
ATOM     22  C   UNL     1       3.241   0.845  -6.420  0.00  0.00    +0.005 A 
ATOM     23  C   UNL     1       3.219   1.968  -5.621  0.00  0.00    -0.026 A 
ATOM     24  C   UNL     1       2.352   2.026  -4.535  0.00  0.00    +0.052 A 
ATOM     25  C   UNL     1       1.508   0.932  -4.266  0.00  0.00    +0.002 A 
ATOM     26  C   UNL     1       0.599   1.002  -3.120  0.00  0.00    +0.019 A 
ATOM     27  C   UNL     1       0.604   2.122  -2.357  0.00  0.00    +0.019 A 
ATOM     28  C   UNL     1       1.467   3.193  -2.672  0.00  0.00    +0.252 A 
ATOM     29  O   UNL     1       1.453   4.193  -1.975  0.00  0.00    -0.268 OA
ATOM     30  N   UNL     1       2.309   3.137  -3.719  0.00  0.00    -0.322 N 
ATOM     31  H   UNL     1       2.912   3.911  -3.910  0.00  0.00    +0.169 HD
ATOM     32  C   UNL     1       4.130   3.130  -5.923  0.00  0.00    +0.046 C 
ENDBRANCH  18  27
ENDBRANCH   1  18
TORSDOF 7
