REMARK  Name = ZINC65107520
REMARK  5 active torsions:
REMARK  status: ('A' for Active; 'I' for Inactive)
REMARK    1  A    between atoms: C_4  and  C_7
REMARK    2  A    between atoms: C_9  and  C_13
REMARK    3  A    between atoms: N_15  and  C_16
REMARK    4  A    between atoms: C_21  and  C_22
REMARK    5  A    between atoms: C_22  and  C_23
REMARK                            x       y       z     vdW  Elec       q    Type
REMARK                         _______ _______ _______ _____ _____    ______ ____
ROOT
ATOM      1  C   UNL     1       6.079  -3.354   0.740  0.00  0.00    +0.267 C 
ATOM      2  O   UNL     1       5.556  -4.210   1.428  0.00  0.00    -0.268 OA
ATOM      3  N   UNL     1       7.367  -3.484   0.366  0.00  0.00    -0.280 N 
ATOM      4  H   UNL     1       7.761  -2.844  -0.247  0.00  0.00    +0.155 HD
ENDROOT
BRANCH   1   7
ATOM      5  C   UNL     1       3.708  -0.674  -0.013  0.00  0.00    +0.107 A 
ATOM      6  C   UNL     1       3.983  -1.903   0.616  0.00  0.00    +0.075 A 
ATOM      7  C   UNL     1       5.306  -2.178   0.316  0.00  0.00    +0.135 A 
ATOM      8  N   UNL     1       5.752  -1.138  -0.453  0.00  0.00    -0.271 N 
ATOM      9  H   UNL     1       6.648  -1.056  -0.814  0.00  0.00    +0.189 HD
ATOM     10  N   UNL     1       4.805  -0.288  -0.630  0.00  0.00    -0.172 NA
ATOM     11 BR   UNL     1       2.799  -2.954   1.649  0.00  0.00    -0.046 Br
BRANCH   5  15
ATOM     12  C   UNL     1      -0.000   1.407   0.054  0.00  0.00    +0.000 A 
ATOM     13  C   UNL     1       1.188   2.116   0.050  0.00  0.00    +0.001 A 
ATOM     14  C   UNL     1       2.394   1.446   0.029  0.00  0.00    +0.010 A 
ATOM     15  C   UNL     1       2.414   0.053   0.011  0.00  0.00    +0.003 A 
ATOM     16  C   UNL     1       1.215  -0.656   0.015  0.00  0.00    +0.010 A 
ATOM     17  C   UNL     1       0.014   0.024   0.036  0.00  0.00    +0.001 A 
ENDBRANCH   5  15
ENDBRANCH   1   7
BRANCH   3  18
ATOM     18  C   UNL     1       8.136  -4.542   0.863  0.00  0.00    +0.037 A 
ATOM     19  C   UNL     1       7.803  -5.136   2.074  0.00  0.00    +0.023 A 
ATOM     20  C   UNL     1       8.564  -6.180   2.561  0.00  0.00    +0.002 A 
ATOM     21  C   UNL     1       9.657  -6.634   1.846  0.00  0.00    +0.000 A 
ATOM     22  C   UNL     1       9.991  -6.045   0.640  0.00  0.00    +0.006 A 
ATOM     23  C   UNL     1       9.231  -5.004   0.144  0.00  0.00    -0.017 A 
BRANCH  23  24
ATOM     24  C   UNL     1       9.592  -4.367  -1.173  0.00  0.00    +0.132 C 
BRANCH  24  25
ATOM     25  C   UNL     1      10.450  -3.153  -0.925  0.00  0.00    +0.215 C 
ATOM     26  O   UNL     1      10.740  -2.836   0.209  0.00  0.00    -0.276 OA
ATOM     27  N   UNL     1      10.895  -2.419  -1.964  0.00  0.00    -0.329 N 
ATOM     28  H   UNL     1      10.664  -2.672  -2.871  0.00  0.00    +0.145 HD
ATOM     29  H   UNL     1      11.448  -1.638  -1.804  0.00  0.00    +0.145 HD
ENDBRANCH  24  25
ENDBRANCH  23  24
ENDBRANCH   3  18
TORSDOF 5
