REMARK  Name = ZINC13064137
REMARK  16 active torsions:
REMARK  status: ('A' for Active; 'I' for Inactive)
REMARK    1  A    between atoms: C_1  and  C_2
REMARK    2  A    between atoms: C_2  and  C_3
REMARK    3  A    between atoms: C_3  and  C_5
REMARK    4  A    between atoms: C_3  and  N_72
REMARK    5  A    between atoms: N_9  and  C_10
REMARK    6  A    between atoms: C_10  and  C_11
REMARK    7  A    between atoms: C_10  and  C_12
REMARK    8  A    between atoms: C_10  and  C_13
REMARK    9  A    between atoms: C_13  and  C_14
REMARK   10  A    between atoms: C_15  and  C_16
REMARK   11  A    between atoms: C_15  and  N_72
REMARK   12  A    between atoms: C_19  and  C_22
REMARK   13  A    between atoms: C_23  and  C_24
REMARK   14  A    between atoms: C_23  and  N_72
REMARK   15  A    between atoms: C_28  and  O_36
REMARK   16  A    between atoms: O_36  and  C_37
REMARK                            x       y       z     vdW  Elec       q    Type
REMARK                         _______ _______ _______ _____ _____    ______ ____
ROOT
ATOM      1  N   UNL     1      -3.274   5.375   1.887  0.00  0.00    +0.392 N 
ATOM      2  H   UNL     1      -3.416   4.409   2.204  0.00  0.00    -0.080 HD
ENDROOT
BRANCH   1   3
ATOM      3  C   UNL     1      -1.973   5.860   2.394  0.00  0.00    +0.003 C 
BRANCH   3   4
ATOM      4  C   UNL     1      -1.686   5.178   3.707  0.00  0.00    +0.139 A 
ATOM      5  N   UNL     1      -2.564   4.820   4.612  0.00  0.00    -0.115 NA
ATOM      6  N   UNL     1      -1.928   4.269   5.587  0.00  0.00    -0.023 NA
ATOM      7  N   UNL     1      -0.667   4.266   5.329  0.00  0.00    -0.043 NA
ATOM      8  N   UNL     1      -0.478   4.814   4.176  0.00  0.00    -0.225 N 
BRANCH   8   9
ATOM      9  C   UNL     1       0.810   5.005   3.504  0.00  0.00    +0.061 C 
ATOM     10  C   UNL     1       0.900   4.070   2.297  0.00  0.00    +0.036 C 
ATOM     11  C   UNL     1       0.929   6.457   3.035  0.00  0.00    +0.036 C 
BRANCH   9  12
ATOM     12  C   UNL     1       1.946   4.690   4.480  0.00  0.00    +0.026 C 
ATOM     13  C   UNL     1       3.291   4.890   3.779  0.00  0.00    +0.006 C 
ENDBRANCH   9  12
ENDBRANCH   8   9
ENDBRANCH   3   4
BRANCH   3  15
ATOM     14  C   UNL     1      -2.177   8.074   1.254  0.00  0.00    +0.002 C 
ATOM     15  C   UNL     1      -2.015   7.375   2.605  0.00  0.00    -0.011 C 
ENDBRANCH   3  15
ENDBRANCH   1   3
BRANCH   1  16
ATOM     16  C   UNL     1      -4.368   6.218   2.411  0.00  0.00    -0.042 C 
BRANCH  16  17
ATOM     17  C   UNL     1      -4.593   5.872   3.861  0.00  0.00    -0.064 A 
ATOM     18  C   UNL     1      -5.280   4.721   4.197  0.00  0.00    +0.002 A 
ATOM     19  C   UNL     1      -5.483   4.401   5.527  0.00  0.00    +0.003 A 
ATOM     20  C   UNL     1      -5.007   5.238   6.519  0.00  0.00    -0.050 A 
ATOM     21  C   UNL     1      -4.324   6.391   6.183  0.00  0.00    +0.003 A 
ATOM     22  C   UNL     1      -4.118   6.709   4.853  0.00  0.00    +0.002 A 
ATOM     23  C   UNL     1      -5.233   4.891   7.969  0.00  0.00    +0.044 C 
ENDBRANCH  16  17
ENDBRANCH   1  16
BRANCH   1  24
ATOM     24  C   UNL     1      -3.280   5.400   0.409  0.00  0.00    -0.036 C 
BRANCH  24  25
ATOM     25  C   UNL     1      -2.521   4.201  -0.098  0.00  0.00    +0.001 A 
ATOM     26  C   UNL     1      -3.179   3.044  -0.356  0.00  0.00    +0.017 A 
ATOM     27  C   UNL     1      -2.413   1.899  -0.852  0.00  0.00    +0.002 A 
ATOM     28  C   UNL     1      -3.039   0.681  -1.139  0.00  0.00    +0.055 A 
ATOM     29  C   UNL     1      -2.286  -0.380  -1.599  0.00  0.00    +0.121 A 
ATOM     30  C   UNL     1      -0.911  -0.242  -1.777  0.00  0.00    +0.047 A 
ATOM     31  C   UNL     1      -0.284   0.951  -1.497  0.00  0.00    +0.030 A 
ATOM     32  C   UNL     1      -1.024   2.034  -1.032  0.00  0.00    +0.049 A 
ATOM     33  N   UNL     1      -0.413   3.238  -0.746  0.00  0.00    -0.322 N 
ATOM     34  H   UNL     1       0.544   3.330  -0.871  0.00  0.00    +0.169 HD
ATOM     35  C   UNL     1      -1.126   4.285  -0.296  0.00  0.00    +0.251 A 
ATOM     36  O   UNL     1      -0.553   5.333  -0.053  0.00  0.00    -0.268 OA
BRANCH  29  37
ATOM     37  O   UNL     1      -2.889  -1.566  -1.880  0.00  0.00    -0.495 OA
ATOM     38  C   UNL     1      -2.052  -2.623  -2.352  0.00  0.00    +0.277 C 
ENDBRANCH  29  37
ENDBRANCH  24  25
ENDBRANCH   1  24
TORSDOF 10
