REMARK  Name = ZINC44878864
REMARK  13 active torsions:
REMARK  status: ('A' for Active; 'I' for Inactive)
REMARK    1  A    between atoms: C_1  and  C_2
REMARK    2  A    between atoms: N_7  and  C_9
REMARK    3  A    between atoms: C_9  and  C_10
REMARK    4  A    between atoms: C_13  and  C_16
REMARK    5  A    between atoms: C_16  and  N_17
REMARK    6  A    between atoms: C_18  and  C_20
REMARK    7  A    between atoms: C_20  and  C_22
REMARK    8  A    between atoms: C_20  and  O_23
REMARK    9  A    between atoms: O_23  and  C_24
REMARK   10  A    between atoms: C_27  and  C_30
REMARK   11  A    between atoms: C_30  and  C_31
REMARK   12  A    between atoms: C_30  and  C_32
REMARK   13  A    between atoms: C_30  and  C_33
REMARK                            x       y       z     vdW  Elec       q    Type
REMARK                         _______ _______ _______ _____ _____    ______ ____
ROOT
ATOM      1  N   UNL     1       0.613  -8.768   1.365  0.00  0.00    -0.308 N 
ATOM      2  C   UNL     1       0.369 -10.084   1.202  0.00  0.00    +0.254 C 
ATOM      3  O   UNL     1       0.899 -10.893   1.934  0.00  0.00    -0.272 OA
ATOM      4  H   UNL     1       0.189  -8.121   0.780  0.00  0.00    +0.149 HD
ENDROOT
BRANCH   2   5
ATOM      5  C   UNL     1      -0.561 -10.549   0.111  0.00  0.00    +0.255 C 
ATOM      6  C   UNL     1       0.044 -10.212  -1.253  0.00  0.00    +0.062 C 
BRANCH   5   7
ATOM      7  O   UNL     1      -0.747 -11.962   0.214  0.00  0.00    -0.480 OA
BRANCH   7   8
ATOM      8  C   UNL     1      -1.895 -12.472  -0.305  0.00  0.00    +0.122 A 
ATOM      9  C   UNL     1      -2.196 -13.816  -0.137  0.00  0.00    +0.046 A 
ATOM     10  C   UNL     1      -3.363 -14.332  -0.666  0.00  0.00    +0.008 A 
ATOM     11  C   UNL     1      -4.230 -13.511  -1.363  0.00  0.00    -0.042 A 
ATOM     12  C   UNL     1      -3.932 -12.172  -1.532  0.00  0.00    +0.008 A 
ATOM     13  C   UNL     1      -2.769 -11.649  -1.000  0.00  0.00    +0.046 A 
BRANCH  11  14
ATOM     14  C   UNL     1      -5.502 -14.077  -1.939  0.00  0.00    -0.013 C 
ATOM     15  C   UNL     1      -6.362 -14.652  -0.811  0.00  0.00    +0.015 C 
ATOM     16  C   UNL     1      -6.276 -12.968  -2.656  0.00  0.00    +0.015 C 
ATOM     17  C   UNL     1      -5.161 -15.187  -2.936  0.00  0.00    +0.015 C 
ENDBRANCH  11  14
ENDBRANCH   7   8
ENDBRANCH   5   7
ENDBRANCH   2   5
BRANCH   1  18
ATOM     18  C   UNL     1       1.517  -8.316   2.425  0.00  0.00    +0.139 C 
BRANCH  18  22
ATOM     19  C   UNL     1       1.802  -4.055   2.336  0.00  0.00    -0.064 A 
ATOM     20  C   UNL     1       0.830  -4.667   3.106  0.00  0.00    +0.002 A 
ATOM     21  C   UNL     1       0.738  -6.046   3.134  0.00  0.00    +0.005 A 
ATOM     22  C   UNL     1       1.617  -6.813   2.393  0.00  0.00    -0.030 A 
ATOM     23  C   UNL     1       2.588  -6.201   1.623  0.00  0.00    +0.005 A 
ATOM     24  C   UNL     1       2.678  -4.822   1.591  0.00  0.00    +0.002 A 
BRANCH  19  25
ATOM     25  C   UNL     1       1.903  -2.552   2.305  0.00  0.00    -0.043 C 
BRANCH  25  31
ATOM     26  C   UNL     1       0.113   1.520   0.259  0.00  0.00    +0.005 C 
ATOM     27  C   UNL     1       0.112  -0.010   0.204  0.00  0.00    -0.031 C 
ATOM     28  C   UNL     1       0.590  -0.473  -1.175  0.00  0.00    -0.001 C 
ATOM     29  C   UNL     1       0.659  -2.002  -1.193  0.00  0.00    -0.018 C 
ATOM     30  C   UNL     1       1.582  -2.479  -0.069  0.00  0.00    -0.078 C 
ATOM     31  N   UNL     1       1.057  -2.027   1.225  0.00  0.00    +0.383 N 
ATOM     32  C   UNL     1       1.054  -0.560   1.277  0.00  0.00    -0.075 C 
ATOM     33  H   UNL     1       0.115  -2.368   1.342  0.00  0.00    -0.081 HD
ENDBRANCH  25  31
ENDBRANCH  19  25
ENDBRANCH  18  22
ENDBRANCH   1  18
TORSDOF 8
