REMARK  Name = ZINC13656376
REMARK  8 active torsions:
REMARK  status: ('A' for Active; 'I' for Inactive)
REMARK    1  A    between atoms: C_1  and  C_2
REMARK    2  A    between atoms: N_10  and  C_11
REMARK    3  A    between atoms: C_11  and  C_13
REMARK    4  A    between atoms: N_17  and  C_18
REMARK    5  A    between atoms: N_19  and  C_20
REMARK    6  A    between atoms: C_20  and  C_21
REMARK    7  A    between atoms: C_21  and  S_22
REMARK    8  A    between atoms: S_22  and  C_23
REMARK                            x       y       z     vdW  Elec       q    Type
REMARK                         _______ _______ _______ _____ _____    ______ ____
ROOT
ATOM      1  C   UNL     1       0.168   1.475   0.098  0.00  0.00    +0.044 C 
ATOM      2  C   UNL     1       0.179  -0.032   0.071  0.00  0.00    -0.049 A 
ATOM      3  C   UNL     1       0.276  -0.711  -1.132  0.00  0.00    +0.005 A 
ATOM      4  C   UNL     1       0.287  -2.084  -1.176  0.00  0.00    +0.027 A 
ATOM      5  C   UNL     1       0.200  -2.845   0.003  0.00  0.00    +0.058 A 
ATOM      6  C   UNL     1       0.103  -2.128   1.204  0.00  0.00    +0.039 A 
ATOM      7  C   UNL     1       0.097  -0.754   1.248  0.00  0.00    +0.020 A 
ATOM      8  S   UNL     1       0.015  -3.403   2.438  0.00  0.00    -0.052 S 
ATOM      9  C   UNL     1       0.108  -4.811   1.344  0.00  0.00    +0.167 A 
ATOM     10  N   UNL     1       0.093  -6.104   1.649  0.00  0.00    -0.151 NA
ATOM     11  N   UNL     1       0.200  -4.223   0.118  0.00  0.00    -0.320 N 
ENDROOT
BRANCH  10  12
ATOM     12  C   UNL     1       0.001  -7.019   0.676  0.00  0.00    +0.287 C 
ATOM     13  O   UNL     1       1.006  -7.576   0.267  0.00  0.00    -0.266 OA
BRANCH  12  14
ATOM     14  C   UNL     1      -1.315  -7.354   0.100  0.00  0.00    +0.125 A 
ATOM     15  C   UNL     1      -1.563  -8.275  -0.895  0.00  0.00    +0.054 A 
ATOM     16  C   UNL     1      -2.935  -8.278  -1.137  0.00  0.00    +0.135 A 
ATOM     17  N   UNL     1      -3.505  -7.410  -0.339  0.00  0.00    -0.179 NA
ATOM     18  N   UNL     1      -2.518  -6.815   0.457  0.00  0.00    -0.262 N 
ATOM     19  C   UNL     1      -2.737  -5.796   1.486  0.00  0.00    +0.173 C 
ENDBRANCH  12  14
ENDBRANCH  10  12
BRANCH  11  20
ATOM     20  C   UNL     1       0.297  -5.056  -1.084  0.00  0.00    +0.135 C 
BRANCH  20  21
ATOM     21  C   UNL     1       1.759  -5.439  -1.321  0.00  0.00    +0.090 C 
BRANCH  21  22
ATOM     22  S   UNL     1       1.880  -6.469  -2.809  0.00  0.00    -0.162 S 
ATOM     23  C   UNL     1       3.652  -6.832  -2.949  0.00  0.00    +0.084 C 
ENDBRANCH  21  22
ENDBRANCH  20  21
ENDBRANCH  11  20
TORSDOF 5
