REMARK  Name = ZINC16012559
REMARK  5 active torsions:
REMARK  status: ('A' for Active; 'I' for Inactive)
REMARK    1  A    between atoms: C_1  and  C_2
REMARK    2  A    between atoms: C_2  and  C_3
REMARK    3  A    between atoms: C_2  and  C_4
REMARK    4  A    between atoms: N_12  and  C_15
REMARK    5  A    between atoms: C_19  and  N_21
REMARK                            x       y       z     vdW  Elec       q    Type
REMARK                         _______ _______ _______ _____ _____    ______ ____
ROOT
ATOM      1  C   UNL     1       0.718  -0.497  -1.257  0.00  0.00    +0.070 C 
ATOM      2  C   UNL     1       0.689  -2.021  -1.343  0.00  0.00    +0.107 C 
ATOM      3  C   UNL     1       1.100  -2.149  -2.856  0.00  0.00    +0.123 C 
ATOM      4  C   UNL     1       1.474  -3.539  -2.950  0.00  0.00    +0.233 C 
ATOM      5  O   UNL     1       1.347  -4.276  -3.904  0.00  0.00    -0.274 OA
ATOM      6  N   UNL     1       2.007  -3.846  -1.721  0.00  0.00    -0.210 N 
ATOM      7  C   UNL     1       1.795  -2.855  -0.779  0.00  0.00    +0.232 C 
ATOM      8  O   UNL     1       2.378  -2.689   0.270  0.00  0.00    -0.274 OA
ATOM      9  C   UNL     1       0.368  -1.099  -3.556  0.00  0.00    +0.136 C 
ATOM     10  N   UNL     1      -0.044  -0.115  -2.498  0.00  0.00    -0.295 NA
ATOM     11  C   UNL     1       1.168  -0.364  -4.603  0.00  0.00    +0.003 A 
ATOM     12  C   UNL     1       2.374   0.300  -4.570  0.00  0.00    +0.008 A 
ATOM     13  C   UNL     1       2.867   0.895  -5.718  0.00  0.00    +0.000 A 
ATOM     14  C   UNL     1       2.147   0.820  -6.896  0.00  0.00    +0.002 A 
ATOM     15  C   UNL     1       0.939   0.154  -6.933  0.00  0.00    +0.023 A 
ATOM     16  C   UNL     1       0.435  -0.447  -5.781  0.00  0.00    +0.039 A 
ATOM     17  N   UNL     1      -0.742  -1.165  -5.567  0.00  0.00    -0.283 N 
ATOM     18  C   UNL     1      -0.859  -1.582  -4.294  0.00  0.00    +0.243 C 
ATOM     19  O   UNL     1      -1.776  -2.224  -3.827  0.00  0.00    -0.273 OA
ATOM     20  H   UNL     1      -1.040  -0.160  -2.339  0.00  0.00    +0.124 HD
ATOM     21  H   UNL     1      -1.400  -1.342  -6.257  0.00  0.00    +0.155 HD
ENDROOT
BRANCH   6  22
ATOM     22  C   UNL     1       2.684  -5.042  -1.443  0.00  0.00    +0.046 A 
ATOM     23  C   UNL     1       2.851  -5.994  -2.440  0.00  0.00    +0.025 A 
ATOM     24  C   UNL     1       3.518  -7.171  -2.164  0.00  0.00    +0.024 A 
ATOM     25  C   UNL     1       4.019  -7.403  -0.895  0.00  0.00    +0.071 A 
ATOM     26  C   UNL     1       3.854  -6.456   0.100  0.00  0.00    +0.146 A 
ATOM     27  C   UNL     1       3.192  -5.274  -0.173  0.00  0.00    +0.058 A 
ATOM     28 CL   UNL     1       4.857  -8.884  -0.551  0.00  0.00    -0.081 Cl
BRANCH  26  29
ATOM     29  N   UNL     1       4.390  -6.707   1.457  0.00  0.00    +0.058 N 
ATOM     30  O   UNL     1       4.246  -5.880   2.327  0.00  0.00    -0.126 OA
ATOM     31  O   UNL     1       4.973  -7.739   1.695  0.00  0.00    -0.126 OA
ENDBRANCH  26  29
ENDBRANCH   6  22
BRANCH   1  33
ATOM     32  C   UNL     1      -0.019   1.526   0.010  0.00  0.00    +0.009 C 
ATOM     33  C   UNL     1       0.002  -0.004   0.002  0.00  0.00    +0.001 C 
ATOM     34  C   UNL     1      -1.433  -0.534   0.013  0.00  0.00    +0.009 C 
ENDBRANCH   1  33
TORSDOF 3
