REMARK  Name = ZINC59022282
REMARK  9 active torsions:
REMARK  status: ('A' for Active; 'I' for Inactive)
REMARK    1  A    between atoms: C_1  and  C_2
REMARK    2  A    between atoms: C_4  and  C_31
REMARK    3  A    between atoms: C_5  and  C_9
REMARK    4  A    between atoms: C_6  and  C_8
REMARK    5  A    between atoms: C_9  and  S_10
REMARK    6  A    between atoms: S_10  and  C_11
REMARK    7  A    between atoms: N_17  and  N_18
REMARK    8  A    between atoms: C_19  and  C_20
REMARK    9  A    between atoms: C_19  and  C_21
REMARK                            x       y       z     vdW  Elec       q    Type
REMARK                         _______ _______ _______ _____ _____    ______ ____
ROOT
ATOM      1  C   UNL     1       1.697  -7.550   2.977  0.00  0.00    +0.191 A 
ATOM      2  N   UNL     1       2.697  -8.193   2.304  0.00  0.00    -0.303 N 
ATOM      3  H   UNL     1       3.620  -7.901   2.240  0.00  0.00    +0.171 HD
ATOM      4  C   UNL     1       2.169  -9.320   1.738  0.00  0.00    +0.235 A 
ATOM      5  N   UNL     1       0.896  -9.371   2.049  0.00  0.00    -0.111 NA
ATOM      6  N   UNL     1       0.598  -8.252   2.838  0.00  0.00    -0.121 NA
ATOM      7  N   UNL     1       2.859 -10.247   0.970  0.00  0.00    -0.205 N 
ATOM      8  H   UNL     1       3.805 -10.122   0.794  0.00  0.00    +0.177 HD
ENDROOT
BRANCH   7   9
ATOM      9  N   UNL     1       2.190 -11.362   0.450  0.00  0.00    -0.184 NA
ATOM     10  C   UNL     1       2.857 -12.288  -0.171  0.00  0.00    +0.063 C 
ATOM     11  C   UNL     1       2.123 -13.391  -0.890  0.00  0.00    +0.068 C 
BRANCH  10  12
ATOM     12  C   UNL     1       4.330 -12.260  -0.172  0.00  0.00    -0.002 A 
ATOM     13  C   UNL     1       5.022 -11.840   0.979  0.00  0.00    +0.010 A 
ATOM     14  C   UNL     1       6.378 -11.806   1.002  0.00  0.00    +0.009 A 
ATOM     15  C   UNL     1       7.112 -12.193  -0.135  0.00  0.00    -0.018 A 
ATOM     16  C   UNL     1       8.516 -12.165  -0.135  0.00  0.00    +0.008 A 
ATOM     17  C   UNL     1       9.199 -12.546  -1.249  0.00  0.00    +0.001 A 
ATOM     18  C   UNL     1       8.526 -12.963  -2.396  0.00  0.00    +0.001 A 
ATOM     19  C   UNL     1       7.167 -13.003  -2.435  0.00  0.00    +0.008 A 
ATOM     20  C   UNL     1       6.427 -12.618  -1.302  0.00  0.00    -0.017 A 
ATOM     21  C   UNL     1       5.024 -12.653  -1.306  0.00  0.00    +0.018 A 
ENDBRANCH  10  12
ENDBRANCH   7   9
BRANCH   1  22
ATOM     22  S   UNL     1       1.857  -6.045   3.879  0.00  0.00    -0.081 S 
BRANCH  22  23
ATOM     23  C   UNL     1       0.190  -5.742   4.528  0.00  0.00    +0.113 C 
BRANCH  23  28
ATOM     24  C   UNL     1       0.175  -0.852   7.606  0.00  0.00    +0.044 C 
ATOM     25  C   UNL     1       0.179  -2.127   6.803  0.00  0.00    -0.050 A 
ATOM     26  C   UNL     1      -0.090  -2.092   5.448  0.00  0.00    +0.007 A 
ATOM     27  C   UNL     1      -0.086  -3.262   4.711  0.00  0.00    -0.046 A 
ATOM     28  C   UNL     1       0.187  -4.467   5.330  0.00  0.00    -0.031 A 
ATOM     29  C   UNL     1       0.457  -4.503   6.686  0.00  0.00    -0.046 A 
ATOM     30  C   UNL     1       0.458  -3.332   7.421  0.00  0.00    +0.007 A 
ATOM     31  C   UNL     1       0.754  -5.817   7.361  0.00  0.00    +0.044 C 
ATOM     32  C   UNL     1      -0.380  -3.223   3.234  0.00  0.00    +0.044 C 
ENDBRANCH  23  28
ENDBRANCH  22  23
ENDBRANCH   1  22
TORSDOF 5
