REMARK  Name = ZINC38683028
REMARK  14 active torsions:
REMARK  status: ('A' for Active; 'I' for Inactive)
REMARK    1  A    between atoms: C_1  and  C_2
REMARK    2  A    between atoms: C_2  and  C_3
REMARK    3  A    between atoms: C_3  and  C_4
REMARK    4  A    between atoms: C_4  and  O_5
REMARK    5  A    between atoms: O_5  and  C_6
REMARK    6  A    between atoms: C_11  and  C_12
REMARK    7  A    between atoms: C_17  and  O_26
REMARK    8  A    between atoms: C_21  and  N_25
REMARK    9  A    between atoms: C_22  and  C_23
REMARK   10  A    between atoms: O_26  and  C_27
REMARK   11  A    between atoms: C_27  and  C_29
REMARK   12  A    between atoms: C_29  and  O_30
REMARK   13  A    between atoms: O_30  and  C_31
REMARK   14  A    between atoms: C_36  and  C_37
REMARK                            x       y       z     vdW  Elec       q    Type
REMARK                         _______ _______ _______ _____ _____    ______ ____
ROOT
ATOM      1  C   UNL     1      -5.449  -3.565  -0.002  0.00  0.00    +0.101 C 
ATOM      2  C   UNL     1      -6.244  -3.835   1.248  0.00  0.00    +0.008 A 
ATOM      3  C   UNL     1      -5.750  -3.420   2.472  0.00  0.00    +0.012 A 
ATOM      4  C   UNL     1      -6.465  -3.659   3.629  0.00  0.00    +0.047 A 
ATOM      5  C   UNL     1      -7.685  -4.317   3.567  0.00  0.00    +0.135 A 
ATOM      6  C   UNL     1      -8.183  -4.734   2.343  0.00  0.00    +0.093 A 
ATOM      7  C   UNL     1      -7.462  -4.494   1.180  0.00  0.00    +0.138 A 
ATOM      8  O   UNL     1      -7.963  -4.908  -0.009  0.00  0.00    -0.441 OA
ATOM      9  C   UNL     1      -7.508  -4.368  -1.153  0.00  0.00    +0.199 C 
ATOM     10  C   UNL     1      -6.324  -3.721  -1.214  0.00  0.00    +0.098 C 
ENDROOT
BRANCH   1  16
ATOM     11  C   UNL     1      -2.996  -4.076  -0.106  0.00  0.00    +0.125 A 
ATOM     12  C   UNL     1      -1.943  -4.977  -0.177  0.00  0.00    +0.046 A 
ATOM     13  C   UNL     1      -2.199  -6.333  -0.232  0.00  0.00    +0.004 A 
ATOM     14  C   UNL     1      -3.503  -6.794  -0.215  0.00  0.00    +0.001 A 
ATOM     15  C   UNL     1      -4.554  -5.898  -0.145  0.00  0.00    +0.008 A 
ATOM     16  C   UNL     1      -4.303  -4.541  -0.085  0.00  0.00    +0.007 A 
BRANCH  11  17
ATOM     17  O   UNL     1      -2.748  -2.741  -0.052  0.00  0.00    -0.492 OA
BRANCH  17  18
ATOM     18  C   UNL     1      -1.378  -2.335  -0.079  0.00  0.00    +0.229 C 
BRANCH  18  19
ATOM     19  C   UNL     1      -1.297  -0.809  -0.011  0.00  0.00    +0.041 C 
BRANCH  19  21
ATOM     20  C   UNL     1       0.251   1.152   0.030  0.00  0.00    +0.004 C 
ATOM     21  C   UNL     1       0.170  -0.374  -0.039  0.00  0.00    -0.000 C 
ENDBRANCH  19  21
ENDBRANCH  18  19
ENDBRANCH  17  18
ENDBRANCH  11  17
ENDBRANCH   1  16
BRANCH   9  22
ATOM     22  N   UNL     1      -8.267  -4.480  -2.291  0.00  0.00    -0.328 N 
ATOM     23  H   UNL     1      -9.119  -4.944  -2.262  0.00  0.00    +0.145 HD
ATOM     24  H   UNL     1      -7.952  -4.096  -3.124  0.00  0.00    +0.145 HD
ENDBRANCH   9  22
BRANCH  10  25
ATOM     25  C   UNL     1      -5.895  -3.169  -2.464  0.00  0.00    +0.101 C 
ATOM     26  N   UNL     1      -5.555  -2.731  -3.455  0.00  0.00    -0.191 NA
ENDBRANCH  10  25
BRANCH   5  27
ATOM     27  O   UNL     1      -8.390  -4.553   4.704  0.00  0.00    -0.423 OA
BRANCH  27  28
ATOM     28  C   UNL     1      -8.499  -5.823   5.126  0.00  0.00    +0.350 C 
ATOM     29  O   UNL     1      -7.894  -6.702   4.560  0.00  0.00    -0.247 OA
BRANCH  28  30
ATOM     30  C   UNL     1      -9.376  -6.152   6.307  0.00  0.00    +0.349 C 
BRANCH  30  31
ATOM     31  O   UNL     1      -9.327  -7.558   6.560  0.00  0.00    -0.481 OA
BRANCH  31  32
ATOM     32  C   UNL     1     -10.068  -8.024   7.599  0.00  0.00    +0.124 A 
ATOM     33  C   UNL     1     -10.832  -7.147   8.356  0.00  0.00    +0.047 A 
ATOM     34  C   UNL     1     -11.584  -7.623   9.412  0.00  0.00    +0.023 A 
ATOM     35  C   UNL     1     -11.577  -8.973   9.716  0.00  0.00    +0.041 A 
ATOM     36  C   UNL     1     -10.816  -9.849   8.962  0.00  0.00    +0.027 A 
ATOM     37  C   UNL     1     -10.067  -9.378   7.901  0.00  0.00    -0.007 A 
ATOM     38  C   UNL     1      -9.244 -10.333   7.076  0.00  0.00    +0.047 C 
ATOM     39 CL   UNL     1     -12.523  -9.569  11.044  0.00  0.00    -0.084 Cl
ENDBRANCH  31  32
ENDBRANCH  30  31
ENDBRANCH  28  30
ENDBRANCH  27  28
ENDBRANCH   5  27
TORSDOF 12
