REMARK  Name = ZINC44943305
REMARK  12 active torsions:
REMARK  status: ('A' for Active; 'I' for Inactive)
REMARK    1  A    between atoms: C_1  and  C_2
REMARK    2  A    between atoms: C_5  and  S_8
REMARK    3  A    between atoms: S_8  and  N_11
REMARK    4  A    between atoms: N_14  and  C_17
REMARK    5  A    between atoms: C_17  and  C_18
REMARK    6  A    between atoms: C_22  and  C_24
REMARK    7  A    between atoms: N_26  and  C_27
REMARK    8  A    between atoms: C_27  and  C_28
REMARK    9  A    between atoms: C_28  and  C_29
REMARK   10  A    between atoms: C_29  and  S_30
REMARK   11  A    between atoms: S_30  and  C_31
REMARK   12  A    between atoms: C_31  and  C_32
REMARK                            x       y       z     vdW  Elec       q    Type
REMARK                         _______ _______ _______ _____ _____    ______ ____
ROOT
ATOM      1  C   UNL     1       6.589  -4.774   1.069  0.00  0.00    -0.033 A 
ATOM      2  C   UNL     1       6.573  -4.197   2.327  0.00  0.00    +0.005 A 
ATOM      3  C   UNL     1       7.325  -4.739   3.354  0.00  0.00    +0.001 A 
ATOM      4  C   UNL     1       8.097  -5.860   3.130  0.00  0.00    +0.013 A 
ATOM      5  C   UNL     1       8.118  -6.447   1.864  0.00  0.00    +0.037 A 
ATOM      6  C   UNL     1       7.353  -5.899   0.834  0.00  0.00    +0.018 A 
ENDROOT
BRANCH   5   7
ATOM      7  C   UNL     1       8.944  -7.649   1.617  0.00  0.00    +0.244 C 
ATOM      8  O   UNL     1       8.960  -8.159   0.513  0.00  0.00    -0.270 OA
ATOM      9  N   UNL     1       9.678  -8.179   2.615  0.00  0.00    -0.311 N 
ATOM     10  H   UNL     1       9.665  -7.772   3.495  0.00  0.00    +0.149 HD
BRANCH   9  11
ATOM     11  C   UNL     1      10.496  -9.369   2.370  0.00  0.00    +0.105 C 
BRANCH  11  12
ATOM     12  C   UNL     1      11.223  -9.762   3.657  0.00  0.00    +0.029 C 
BRANCH  12  13
ATOM     13  C   UNL     1      12.078 -11.005   3.401  0.00  0.00    +0.071 C 
BRANCH  13  14
ATOM     14  S   UNL     1      12.940 -11.471   4.928  0.00  0.00    -0.153 S 
BRANCH  14  15
ATOM     15  C   UNL     1      13.895 -12.941   4.461  0.00  0.00    +0.143 C 
BRANCH  15  16
ATOM     16  C   UNL     1      14.669 -13.437   5.655  0.00  0.00    +0.115 A 
ATOM     17  C   UNL     1      14.235 -14.335   6.557  0.00  0.00    +0.045 A 
ATOM     18  C   UNL     1      15.274 -14.506   7.499  0.00  0.00    +0.041 A 
ATOM     19  C   UNL     1      16.283 -13.702   7.117  0.00  0.00    +0.195 A 
ATOM     20  O   UNL     1      15.913 -13.061   5.997  0.00  0.00    -0.467 OA
ENDBRANCH  15  16
ENDBRANCH  14  15
ENDBRANCH  13  14
ENDBRANCH  12  13
ENDBRANCH  11  12
ENDBRANCH   9  11
ENDBRANCH   5   7
BRANCH   1  21
ATOM     21  C   UNL     1       5.766  -4.177  -0.043  0.00  0.00    +0.119 C 
BRANCH  21  25
ATOM     22  N   UNL     1       1.651  -4.999  -0.034  0.00  0.00    -0.174 NA
ATOM     23  C   UNL     1       2.370  -5.200  -1.302  0.00  0.00    +0.125 C 
ATOM     24  C   UNL     1       3.680  -4.408  -1.249  0.00  0.00    +0.102 C 
ATOM     25  N   UNL     1       4.429  -4.785  -0.044  0.00  0.00    -0.296 NA
ATOM     26  C   UNL     1       3.690  -4.432   1.176  0.00  0.00    +0.102 C 
ATOM     27  C   UNL     1       2.382  -5.220   1.223  0.00  0.00    +0.125 C 
BRANCH  22  28
ATOM     28  S   UNL     1       0.063  -4.530  -0.023  0.00  0.00    +0.061 S 
ATOM     29  O   UNL     1      -0.476  -4.950   1.223  0.00  0.00    -0.153 OA
ATOM     30  O   UNL     1      -0.490  -4.937  -1.267  0.00  0.00    -0.153 OA
BRANCH  28  35
ATOM     31  C   UNL     1      -0.018   1.503   0.010  0.00  0.00    +0.044 C 
ATOM     32  C   UNL     1       0.002  -0.004   0.002  0.00  0.00    -0.050 A 
ATOM     33  C   UNL     1       0.006  -0.689  -1.199  0.00  0.00    +0.005 A 
ATOM     34  C   UNL     1       0.025  -2.071  -1.206  0.00  0.00    +0.029 A 
ATOM     35  C   UNL     1       0.040  -2.768  -0.013  0.00  0.00    +0.105 A 
ATOM     36  C   UNL     1       0.037  -2.084   1.188  0.00  0.00    +0.029 A 
ATOM     37  C   UNL     1       0.023  -0.702   1.195  0.00  0.00    +0.005 A 
ENDBRANCH  28  35
ENDBRANCH  22  28
ENDBRANCH  21  25
ENDBRANCH   1  21
TORSDOF 11
