REMARK  Name = ZINC57956057
REMARK  17 active torsions:
REMARK  status: ('A' for Active; 'I' for Inactive)
REMARK    1  A    between atoms: C_1  and  C_2
REMARK    2  A    between atoms: C_3  and  C_36
REMARK    3  A    between atoms: C_4  and  C_35
REMARK    4  A    between atoms: C_7  and  C_8
REMARK    5  A    between atoms: C_8  and  C_10
REMARK    6  A    between atoms: C_10  and  C_12
REMARK    7  A    between atoms: C_10  and  O_13
REMARK    8  A    between atoms: O_13  and  C_14
REMARK    9  A    between atoms: C_14  and  C_16
REMARK   10  A    between atoms: C_18  and  O_33
REMARK   11  A    between atoms: C_19  and  O_31
REMARK   12  A    between atoms: C_21  and  N_22
REMARK   13  A    between atoms: C_23  and  C_25
REMARK   14  A    between atoms: C_28  and  C_30
REMARK   15  A    between atoms: O_31  and  C_32
REMARK   16  A    between atoms: O_33  and  C_34
REMARK   17  A    between atoms: C_36  and  C_38
REMARK                            x       y       z     vdW  Elec       q    Type
REMARK                         _______ _______ _______ _____ _____    ______ ____
ROOT
ATOM      1  C   UNL     1      -1.030  -1.607   5.723  0.00  0.00    +0.342 C 
ATOM      2  O   UNL     1      -1.169  -2.787   5.466  0.00  0.00    -0.245 OA
ENDROOT
BRANCH   1   3
ATOM      3  C   UNL     1      -1.547  -1.063   6.988  0.00  0.00    +0.084 A 
ATOM      4  C   UNL     1      -1.484   0.313   7.239  0.00  0.00    +0.066 A 
ATOM      5  C   UNL     1      -1.971   0.818   8.426  0.00  0.00    +0.162 A 
ATOM      6  C   UNL     1      -2.525  -0.039   9.379  0.00  0.00    +0.163 A 
ATOM      7  C   UNL     1      -2.590  -1.402   9.139  0.00  0.00    +0.073 A 
ATOM      8  C   UNL     1      -2.111  -1.921   7.946  0.00  0.00    +0.051 A 
BRANCH   8   9
ATOM      9  N   UNL     1      -2.182  -3.291   7.701  0.00  0.00    -0.284 N 
ATOM     10  C   UNL     1      -2.016  -4.166   8.712  0.00  0.00    +0.221 C 
ATOM     11  O   UNL     1      -1.884  -3.762   9.848  0.00  0.00    -0.275 OA
ATOM     12  H   UNL     1      -2.352  -3.615   6.802  0.00  0.00    +0.155 HD
BRANCH  10  13
ATOM     13  C   UNL     1      -1.993  -5.647   8.432  0.00  0.00    +0.078 C 
ATOM     14  C   UNL     1      -0.664  -6.380   8.616  0.00  0.00    +0.017 C 
ATOM     15  C   UNL     1      -1.799  -6.588   9.622  0.00  0.00    -0.002 C 
ATOM     16  C   UNL     1      -2.535  -7.929   9.589  0.00  0.00    +0.008 C 
ENDBRANCH  10  13
ENDBRANCH   8   9
BRANCH   6  17
ATOM     17  O   UNL     1      -3.001   0.465  10.546  0.00  0.00    -0.491 OA
ATOM     18  C   UNL     1      -3.555  -0.467  11.477  0.00  0.00    +0.277 C 
ENDBRANCH   6  17
BRANCH   5  19
ATOM     19  O   UNL     1      -1.910   2.155   8.670  0.00  0.00    -0.491 OA
ATOM     20  C   UNL     1      -1.330   2.975   7.653  0.00  0.00    +0.277 C 
ENDBRANCH   5  19
ENDBRANCH   1   3
BRANCH   1  21
ATOM     21  O   UNL     1      -0.401  -0.796   4.847  0.00  0.00    -0.450 OA
BRANCH  21  22
ATOM     22  C   UNL     1       0.075  -1.392   3.639  0.00  0.00    +0.246 C 
ATOM     23  C   UNL     1       1.506  -1.892   3.847  0.00  0.00    +0.061 C 
BRANCH  22  24
ATOM     24  C   UNL     1       0.056  -0.369   2.533  0.00  0.00    +0.219 C 
ATOM     25  O   UNL     1       0.030   0.815   2.802  0.00  0.00    -0.287 OA
BRANCH  24  32
ATOM     26  C   UNL     1       0.021   1.545   0.085  0.00  0.00    +0.047 C 
ATOM     27  C   UNL     1       0.054   0.038   0.079  0.00  0.00    -0.012 A 
ATOM     28  C   UNL     1       0.082  -0.799  -1.060  0.00  0.00    +0.041 A 
ATOM     29  C   UNL     1       0.107  -2.109  -0.602  0.00  0.00    +0.024 A 
ATOM     30  N   UNL     1       0.095  -2.095   0.737  0.00  0.00    -0.355 N 
ATOM     31  H   UNL     1       0.107  -2.880   1.307  0.00  0.00    +0.166 HD
ATOM     32  C   UNL     1       0.069  -0.787   1.181  0.00  0.00    +0.090 A 
ATOM     33  C   UNL     1       0.141  -3.342  -1.468  0.00  0.00    +0.064 C 
BRANCH  28  34
ATOM     34  C   UNL     1       0.084  -0.366  -2.461  0.00  0.00    +0.162 C 
ATOM     35  O   UNL     1      -0.960  -0.297  -3.076  0.00  0.00    -0.292 OA
ATOM     36  C   UNL     1       1.382  -0.006  -3.137  0.00  0.00    +0.091 C 
ENDBRANCH  28  34
ENDBRANCH  24  32
ENDBRANCH  22  24
ENDBRANCH  21  22
ENDBRANCH   1  21
TORSDOF 10
