REMARK  Name = ZINC24089813
REMARK  8 active torsions:
REMARK  status: ('A' for Active; 'I' for Inactive)
REMARK    1  A    between atoms: C_6  and  C_7
REMARK    2  A    between atoms: C_7  and  C_8
REMARK    3  A    between atoms: C_7  and  O_15
REMARK    4  A    between atoms: O_15  and  C_16
REMARK    5  A    between atoms: C_16  and  C_17
REMARK    6  A    between atoms: C_17  and  C_19
REMARK    7  A    between atoms: C_17  and  O_33
REMARK    8  A    between atoms: C_19  and  N_20
REMARK                            x       y       z     vdW  Elec       q    Type
REMARK                         _______ _______ _______ _____ _____    ______ ____
ROOT
ATOM      1  C   UNL     1      -4.810   5.174  -3.281  0.00  0.00    +0.158 C 
ENDROOT
BRANCH   1   2
ATOM      2  O   UNL     1      -3.535   5.473  -3.855  0.00  0.00    -0.388 OA
ATOM      3  H   UNL     1      -2.645   4.908  -3.541  0.00  0.00    +0.210 HD
ENDBRANCH   1   2
BRANCH   1   4
ATOM      4  C   UNL     1      -5.870   6.096  -3.886  0.00  0.00    +0.194 C 
BRANCH   4   5
ATOM      5  O   UNL     1      -6.008   5.813  -5.280  0.00  0.00    -0.365 OA
BRANCH   5   6
ATOM      6  C   UNL     1      -6.979   6.624  -5.945  0.00  0.00    +0.178 C 
BRANCH   6  12
ATOM      7  C   UNL     1      -5.055   7.798  -7.033  0.00  0.00    +0.009 A 
ATOM      8  C   UNL     1      -4.448   8.940  -7.521  0.00  0.00    +0.039 A 
ATOM      9  C   UNL     1      -5.101  10.159  -7.439  0.00  0.00    +0.123 A 
ATOM     10  C   UNL     1      -6.362  10.231  -6.873  0.00  0.00    +0.039 A 
ATOM     11  C   UNL     1      -6.969   9.087  -6.390  0.00  0.00    +0.009 A 
ATOM     12  C   UNL     1      -6.316   7.871  -6.472  0.00  0.00    -0.014 A 
ATOM     13  F   UNL     1      -4.507  11.276  -7.912  0.00  0.00    -0.205 F 
ENDBRANCH   6  12
BRANCH   6  14
ATOM     14  C   UNL     1      -7.579   5.851  -7.091  0.00  0.00    -0.014 A 
ATOM     15  C   UNL     1      -6.796   4.974  -7.818  0.00  0.00    +0.009 A 
ATOM     16  C   UNL     1      -7.347   4.261  -8.866  0.00  0.00    +0.039 A 
ATOM     17  C   UNL     1      -8.681   4.433  -9.194  0.00  0.00    +0.123 A 
ATOM     18  C   UNL     1      -9.463   5.316  -8.468  0.00  0.00    +0.039 A 
ATOM     19  C   UNL     1      -8.912   6.024  -7.417  0.00  0.00    +0.009 A 
ATOM     20  F   UNL     1      -9.219   3.740 -10.221  0.00  0.00    -0.205 F 
ENDBRANCH   6  14
ENDBRANCH   5   6
ENDBRANCH   4   5
ENDBRANCH   1   4
BRANCH   1  21
ATOM     21  C   UNL     1      -4.751   5.389  -1.768  0.00  0.00    +0.151 C 
BRANCH  21  22
ATOM     22  N   UNL     1      -3.735   4.506  -1.188  0.00  0.00    -0.222 N 
ATOM     23  C   UNL     1      -2.439   4.843  -1.031  0.00  0.00    +0.247 C 
ATOM     24  O   UNL     1      -1.914   5.894  -1.329  0.00  0.00    -0.273 OA
ATOM     25  C   UNL     1      -1.776   3.633  -0.405  0.00  0.00    +0.113 C 
ATOM     26  C   UNL     1      -0.693   3.094  -1.299  0.00  0.00    +0.035 C 
ATOM     27  C   UNL     1      -0.688   1.554  -1.194  0.00  0.00    +0.003 C 
ATOM     28  C   UNL     1      -0.013   1.086   0.008  0.00  0.00    +0.000 C 
ATOM     29  C   UNL     1      -0.703   1.568   1.299  0.00  0.00    +0.000 C 
ATOM     30  C   UNL     1      -0.272   2.985   1.569  0.00  0.00    +0.003 C 
ATOM     31  C   UNL     1      -1.264   4.015   0.997  0.00  0.00    +0.035 C 
ATOM     32  N   UNL     1      -2.877   2.666  -0.266  0.00  0.00    -0.285 N 
ATOM     33  C   UNL     1      -3.979   3.266  -0.750  0.00  0.00    +0.309 C 
ATOM     34  O   UNL     1      -5.074   2.740  -0.785  0.00  0.00    -0.252 OA
ATOM     35  H   UNL     1      -2.685   1.674   0.171  0.00  0.00    +0.151 HD
ENDBRANCH  21  22
ENDBRANCH   1  21
TORSDOF 8
