REMARK  Name = ZINC08298407
REMARK  5 active torsions:
REMARK  status: ('A' for Active; 'I' for Inactive)
REMARK    1  A    between atoms: C_7  and  C_9
REMARK    2  A    between atoms: C_17  and  C_19
REMARK    3  A    between atoms: C_19  and  N_20
REMARK    4  A    between atoms: C_22  and  C_25
REMARK    5  A    between atoms: C_25  and  C_26
REMARK                            x       y       z     vdW  Elec       q    Type
REMARK                         _______ _______ _______ _____ _____    ______ ____
ROOT
ATOM      1  C   UNL     1       0.405   7.449   0.037  0.00  0.00    +0.062 C 
ATOM      2  C   UNL     1       1.238   7.718  -1.219  0.00  0.00    -0.065 C 
ATOM      3  C   UNL     1       0.545  10.040  -1.246  0.00  0.00    -0.078 C 
ATOM      4  C   UNL     1      -0.307   9.836   0.009  0.00  0.00    -0.015 C 
ATOM      5  C   UNL     1      -0.809   8.386   0.038  0.00  0.00    -0.004 C 
ATOM      6  C   UNL     1      -1.628   8.127  -1.233  0.00  0.00    -0.010 C 
ATOM      7  C   UNL     1      -0.739   8.379  -2.454  0.00  0.00    -0.046 C 
ATOM      8  N   UNL     1       0.617   8.788  -2.030  0.00  0.00    +0.383 N 
ATOM      9  H   UNL     1       1.193   8.950  -2.865  0.00  0.00    -0.081 HD
ENDROOT
BRANCH   1  16
ATOM     10  C   UNL     1      -1.068   1.927   0.017  0.00  0.00    +0.120 A 
ATOM     11  C   UNL     1      -0.013   1.076   0.008  0.00  0.00    +0.068 A 
ATOM     12  S   UNL     1       1.348   2.235   0.001  0.00  0.00    -0.061 S 
ATOM     13  C   UNL     1       0.403   3.692   0.018  0.00  0.00    +0.164 A 
ATOM     14  N   UNL     1      -0.830   3.223   0.027  0.00  0.00    -0.233 NA
ATOM     15  N   UNL     1       0.836   5.013   0.021  0.00  0.00    -0.265 N 
ATOM     16  C   UNL     1      -0.064   6.016   0.035  0.00  0.00    +0.220 C 
ATOM     17  O   UNL     1      -1.251   5.767   0.045  0.00  0.00    -0.275 OA
ATOM     18  H   UNL     1       1.785   5.212   0.012  0.00  0.00    +0.157 HD
ENDBRANCH   1  16
BRANCH   7  19
ATOM     19  C   UNL     1      -0.635   7.097  -3.283  0.00  0.00    +0.130 C 
BRANCH  19  20
ATOM     20  N   UNL     1       0.118   7.369  -4.510  0.00  0.00    -0.253 N 
ATOM     21  C   UNL     1       1.224   6.708  -4.924  0.00  0.00    +0.133 A 
ATOM     22  C   UNL     1       1.588   7.279  -6.096  0.00  0.00    +0.083 A 
ATOM     23  N   UNL     1       0.703   8.253  -6.335  0.00  0.00    -0.135 NA
ATOM     24  N   UNL     1      -0.154   8.281  -5.377  0.00  0.00    -0.066 NA
BRANCH  22  25
ATOM     25  C   UNL     1       2.762   6.896  -6.960  0.00  0.00    +0.062 C 
BRANCH  25  26
ATOM     26  C   UNL     1       2.275   6.596  -8.379  0.00  0.00    -0.005 C 
ATOM     27  C   UNL     1       1.368   5.364  -8.358  0.00  0.00    +0.004 C 
ATOM     28  C   UNL     1       0.881   5.065  -9.778  0.00  0.00    +0.000 C 
ATOM     29  C   UNL     1       2.085   4.798 -10.684  0.00  0.00    +0.000 C 
ATOM     30  C   UNL     1       2.991   6.030 -10.705  0.00  0.00    +0.000 C 
ATOM     31  C   UNL     1       3.478   6.329  -9.285  0.00  0.00    +0.004 C 
ENDBRANCH  25  26
ENDBRANCH  22  25
ENDBRANCH  19  20
ENDBRANCH   7  19
TORSDOF 5
