REMARK  Name = ZINC63375946
REMARK  5 active torsions:
REMARK  status: ('A' for Active; 'I' for Inactive)
REMARK    1  A    between atoms: C_1  and  C_2
REMARK    2  A    between atoms: C_2  and  C_3
REMARK    3  A    between atoms: C_2  and  C_4
REMARK    4  A    between atoms: C_4  and  N_5
REMARK    5  A    between atoms: C_6  and  C_8
REMARK                            x       y       z     vdW  Elec       q    Type
REMARK                         _______ _______ _______ _____ _____    ______ ____
ROOT
ATOM      1  C   UNL     1       4.402   0.000  -2.171  0.00  0.00    +0.167 C 
ATOM      2  C   UNL     1       4.503   1.536  -2.242  0.00  0.00    +0.065 C 
ATOM      3  C   UNL     1       5.356   1.867  -3.441  0.00  0.00    -0.034 C 
ATOM      4  C   UNL     1       5.131   2.694  -4.458  0.00  0.00    -0.001 A 
ATOM      5  C   UNL     1       4.035   3.640  -4.725  0.00  0.00    +0.010 A 
ATOM      6  C   UNL     1       4.112   4.331  -5.894  0.00  0.00    +0.001 A 
ATOM      7  C   UNL     1       5.155   4.176  -6.811  0.00  0.00    +0.002 A 
ATOM      8  C   UNL     1       6.206   3.335  -6.644  0.00  0.00    +0.026 A 
ATOM      9  C   UNL     1       6.242   2.560  -5.448  0.00  0.00    +0.043 A 
ATOM     10  N   UNL     1       7.126   1.705  -5.026  0.00  0.00    -0.375 N 
ATOM     11  C   UNL     1       6.717   1.236  -3.701  0.00  0.00    +0.131 C 
ATOM     12  C   UNL     1       6.530  -0.280  -3.661  0.00  0.00    +0.134 C 
ATOM     13  N   UNL     1       5.119  -0.558  -3.325  0.00  0.00    -0.276 N 
ATOM     14  C   UNL     1       4.611  -1.385  -4.258  0.00  0.00    +0.248 C 
ATOM     15  O   UNL     1       3.510  -1.898  -4.210  0.00  0.00    -0.270 OA
ATOM     16  C   UNL     1       5.579  -1.575  -5.340  0.00  0.00    +0.042 A 
ATOM     17  C   UNL     1       6.779  -0.899  -4.997  0.00  0.00    -0.013 A 
ATOM     18  C   UNL     1       7.881  -0.893  -5.822  0.00  0.00    +0.006 A 
ATOM     19  C   UNL     1       7.776  -1.592  -7.021  0.00  0.00    +0.000 A 
ATOM     20  C   UNL     1       6.623  -2.264  -7.373  0.00  0.00    +0.001 A 
ATOM     21  C   UNL     1       5.477  -2.278  -6.543  0.00  0.00    +0.013 A 
ATOM     22  H   UNL     1       7.920   1.425  -5.507  0.00  0.00    +0.160 HD
ENDROOT
BRANCH   1  24
ATOM     23  N   UNL     1       2.381  -0.986  -1.140  0.00  0.00    -0.314 N 
ATOM     24  C   UNL     1       2.955  -0.418  -2.220  0.00  0.00    +0.234 C 
ATOM     25  O   UNL     1       2.307  -0.243  -3.230  0.00  0.00    -0.274 OA
ATOM     26  H   UNL     1       2.899  -1.125  -0.332  0.00  0.00    +0.149 HD
BRANCH  23  27
ATOM     27  C   UNL     1       0.974  -1.392  -1.188  0.00  0.00    +0.107 C 
BRANCH  27  29
ATOM     28  C   UNL     1       0.650  -0.934   1.247  0.00  0.00    +0.009 C 
ATOM     29  C   UNL     1       0.575  -2.004   0.156  0.00  0.00    -0.000 C 
ATOM     30  C   UNL     1      -0.855  -2.542   0.067  0.00  0.00    +0.009 C 
ENDBRANCH  27  29
ENDBRANCH  23  27
ENDBRANCH   1  24
TORSDOF 3
