REMARK  Name = ZINC13778885
REMARK  3 active torsions:
REMARK  status: ('A' for Active; 'I' for Inactive)
REMARK    1  A    between atoms: C_3  and  C_8
REMARK    2  A    between atoms: C_13  and  N_15
REMARK    3  A    between atoms: N_15  and  C_16
REMARK                            x       y       z     vdW  Elec       q    Type
REMARK                         _______ _______ _______ _____ _____    ______ ____
ROOT
ATOM      1  C   UNL     1       3.640   2.152   0.086  0.00  0.00    +0.028 C 
ATOM      2  C   UNL     1       4.824   1.493   0.138  0.00  0.00    +0.079 C 
ATOM      3  C   UNL     1       6.207   2.027   0.191  0.00  0.00    +0.276 C 
ATOM      4  O   UNL     1       6.435   3.226   0.192  0.00  0.00    -0.267 OA
ATOM      5  N   UNL     1       7.173   1.137   0.235  0.00  0.00    -0.152 NA
ATOM      6  C   UNL     1       6.940  -0.166   0.235  0.00  0.00    +0.175 C 
ATOM      7  S   UNL     1       5.157  -0.264   0.171  0.00  0.00    -0.050 S 
ENDROOT
BRANCH   1  10
ATOM      8  C   UNL     1      -0.005   1.354  -0.287  0.00  0.00    +0.003 A 
ATOM      9  C   UNL     1       1.159   2.058  -0.065  0.00  0.00    +0.008 A 
ATOM     10  C   UNL     1       2.395   1.407  -0.149  0.00  0.00    -0.021 A 
ATOM     11  C   UNL     1       2.439   0.044  -0.460  0.00  0.00    +0.046 A 
ATOM     12  C   UNL     1       1.264  -0.648  -0.681  0.00  0.00    +0.124 A 
ATOM     13  C   UNL     1       0.044   0.006  -0.594  0.00  0.00    +0.038 A 
ATOM     14  F   UNL     1       1.303  -1.965  -0.981  0.00  0.00    -0.205 F 
ENDBRANCH   1  10
BRANCH   6  15
ATOM     15  N   UNL     1       7.846  -1.192   0.277  0.00  0.00    -0.190 NA
BRANCH  15  16
ATOM     16  C   UNL     1       9.201  -0.920   0.495  0.00  0.00    +0.074 A 
ATOM     17  C   UNL     1       9.581   0.244   1.151  0.00  0.00    +0.028 A 
ATOM     18  C   UNL     1      10.919   0.510   1.365  0.00  0.00    +0.022 A 
ATOM     19  C   UNL     1      11.882  -0.381   0.925  0.00  0.00    +0.042 A 
ATOM     20  C   UNL     1      11.508  -1.541   0.271  0.00  0.00    +0.042 A 
ATOM     21  C   UNL     1      10.170  -1.816   0.059  0.00  0.00    +0.065 A 
ATOM     22 CL   UNL     1       9.701  -3.275  -0.756  0.00  0.00    -0.082 Cl
ATOM     23 CL   UNL     1      13.563  -0.043   1.196  0.00  0.00    -0.083 Cl
ENDBRANCH  15  16
ENDBRANCH   6  15
TORSDOF 3
