REMARK  Name = ZINC19498244
REMARK  8 active torsions:
REMARK  status: ('A' for Active; 'I' for Inactive)
REMARK    1  A    between atoms: C_1  and  C_2
REMARK    2  A    between atoms: C_7  and  C_12
REMARK    3  A    between atoms: N_17  and  C_18
REMARK    4  A    between atoms: C_18  and  C_20
REMARK    5  A    between atoms: C_22  and  C_28
REMARK    6  A    between atoms: C_28  and  C_29
REMARK    7  A    between atoms: C_29  and  C_30
REMARK    8  A    between atoms: C_29  and  C_31
REMARK                            x       y       z     vdW  Elec       q    Type
REMARK                         _______ _______ _______ _____ _____    ______ ____
ROOT
ATOM      1  C   UNL     1      -3.959  -6.827  -2.865  0.00  0.00    +0.055 A 
ATOM      2  C   UNL     1      -4.872  -6.013  -3.478  0.00  0.00    +0.074 A 
ATOM      3  S   UNL     1      -4.245  -4.405  -3.013  0.00  0.00    -0.060 S 
ATOM      4  C   UNL     1      -2.845  -4.978  -2.059  0.00  0.00    +0.164 A 
ATOM      5  N   UNL     1      -2.967  -6.287  -2.175  0.00  0.00    -0.335 N 
ATOM      6  N   UNL     1      -1.884  -4.242  -1.382  0.00  0.00    -0.151 NA
ATOM      7  H   UNL     1      -2.222  -6.933  -1.686  0.00  0.00    +0.168 HD
ENDROOT
BRANCH   1  13
ATOM      8  C   UNL     1      -2.955 -14.112  -1.927  0.00  0.00    +0.052 C 
ATOM      9  C   UNL     1      -2.916 -12.831  -2.763  0.00  0.00    +0.175 C 
ATOM     10  C   UNL     1      -2.425 -11.636  -1.913  0.00  0.00    +0.083 C 
ATOM     11  C   UNL     1      -3.266 -10.497  -2.457  0.00  0.00    -0.002 A 
ATOM     12  C   UNL     1      -3.147  -9.131  -2.351  0.00  0.00    +0.017 A 
ATOM     13  C   UNL     1      -4.078  -8.302  -2.976  0.00  0.00    -0.001 A 
ATOM     14  C   UNL     1      -5.125  -8.869  -3.702  0.00  0.00    +0.013 A 
ATOM     15  C   UNL     1      -5.234 -10.238  -3.806  0.00  0.00    +0.046 A 
ATOM     16  C   UNL     1      -4.308 -11.069  -3.179  0.00  0.00    +0.124 A 
ATOM     17  O   UNL     1      -4.243 -12.429  -3.141  0.00  0.00    -0.488 OA
ENDBRANCH   1  13
BRANCH   6  18
ATOM     18  C   UNL     1      -1.936  -2.895  -1.391  0.00  0.00    +0.286 C 
ATOM     19  O   UNL     1      -2.825  -2.326  -1.992  0.00  0.00    -0.266 OA
BRANCH  18  20
ATOM     20  C   UNL     1      -0.905  -2.106  -0.665  0.00  0.00    +0.109 A 
ATOM     21  C   UNL     1      -0.958  -0.702  -0.667  0.00  0.00    +0.054 A 
ATOM     22  C   UNL     1       0.002  -0.004   0.002  0.00  0.00    +0.049 A 
ATOM     23  N   UNL     1       0.978  -0.677   0.651  0.00  0.00    -0.198 NA
ATOM     24  H   UNL     1       0.117  -3.821  -0.006  0.00  0.00    +0.171 HD
ATOM     25  C   UNL     1       0.997  -2.023   0.644  0.00  0.00    +0.347 A 
ATOM     26  O   UNL     1       1.884  -2.613   1.238  0.00  0.00    -0.245 OA
ATOM     27  N   UNL     1       0.068  -2.722  -0.012  0.00  0.00    -0.302 N 
BRANCH  22  28
ATOM     28  C   UNL     1      -0.018   1.503   0.010  0.00  0.00    +0.058 C 
BRANCH  28  29
ATOM     29  C   UNL     1      -0.735   1.996   1.269  0.00  0.00    -0.011 C 
ATOM     30  C   UNL     1       0.073   1.595   2.505  0.00  0.00    +0.007 C 
ATOM     31  C   UNL     1      -0.866   3.520   1.217  0.00  0.00    +0.007 C 
ENDBRANCH  28  29
ENDBRANCH  22  28
ENDBRANCH  18  20
ENDBRANCH   6  18
TORSDOF 5
