REMARK  Name = ZINC02809624
REMARK  6 active torsions:
REMARK  status: ('A' for Active; 'I' for Inactive)
REMARK    1  A    between atoms: C_4  and  C_7
REMARK    2  A    between atoms: C_7  and  N_8
REMARK    3  A    between atoms: C_17  and  C_19
REMARK    4  A    between atoms: C_19  and  N_20
REMARK    5  A    between atoms: C_21  and  C_29
REMARK    6  A    between atoms: C_23  and  C_25
REMARK                            x       y       z     vdW  Elec       q    Type
REMARK                         _______ _______ _______ _____ _____    ______ ____
ROOT
ATOM      1  N   UNL     1       2.858   4.194  -1.384  0.00  0.00    -0.265 N 
ATOM      2  C   UNL     1       3.129   5.402  -1.919  0.00  0.00    +0.110 A 
ATOM      3  C   UNL     1       3.466   5.216  -3.216  0.00  0.00    +0.065 A 
ATOM      4  C   UNL     1       3.398   3.840  -3.485  0.00  0.00    +0.146 A 
ATOM      5  N   UNL     1       3.038   3.227  -2.382  0.00  0.00    -0.156 NA
ATOM      6  N   UNL     1       3.673   3.227  -4.714  0.00  0.00    -0.276 N 
ATOM      7  C   UNL     1       4.051   3.998  -5.804  0.00  0.00    +0.187 A 
ATOM      8  N   UNL     1       4.209   5.311  -5.907  0.00  0.00    -0.126 NA
ATOM      9  N   UNL     1       4.567   5.855  -6.988  0.00  0.00    -0.143 NA
ATOM     10  C   UNL     1       4.796   5.158  -8.082  0.00  0.00    +0.125 A 
ATOM     11  S   UNL     1       4.460   3.506  -7.477  0.00  0.00    -0.034 S 
ATOM     12  H   UNL     1       3.588   2.135  -4.816  0.00  0.00    +0.156 HD
ENDROOT
BRANCH   1  13
ATOM     13  C   UNL     1       2.451   3.937  -0.001  0.00  0.00    +0.178 C 
BRANCH  13  17
ATOM     14  C   UNL     1      -1.219   1.751   0.017  0.00  0.00    +0.000 A 
ATOM     15  C   UNL     1      -0.013   1.076   0.008  0.00  0.00    +0.000 A 
ATOM     16  C   UNL     1       1.175   1.783   0.000  0.00  0.00    +0.005 A 
ATOM     17  C   UNL     1       1.156   3.165   0.008  0.00  0.00    -0.026 A 
ATOM     18  C   UNL     1      -0.050   3.840   0.023  0.00  0.00    +0.005 A 
ATOM     19  C   UNL     1      -1.238   3.133   0.030  0.00  0.00    +0.000 A 
ENDBRANCH  13  17
ENDBRANCH   1  13
BRANCH  10  20
ATOM     20  C   UNL     1       5.220   5.619  -9.453  0.00  0.00    +0.208 C 
BRANCH  20  21
ATOM     21  N   UNL     1       6.682   5.632  -9.534  0.00  0.00    -0.261 N 
ATOM     22  C   UNL     1       7.465   4.606  -9.928  0.00  0.00    +0.043 A 
ATOM     23  C   UNL     1       8.752   5.019  -9.863  0.00  0.00    +0.057 A 
ATOM     24  C   UNL     1       8.755   6.344  -9.413  0.00  0.00    +0.165 A 
ATOM     25  N   UNL     1       7.515   6.714  -9.221  0.00  0.00    -0.167 NA
BRANCH  24  26
ATOM     26  C   UNL     1       9.977   7.199  -9.194  0.00  0.00    +0.436 C 
ATOM     27  F   UNL     1      10.282   7.887 -10.373  0.00  0.00    -0.164 F 
ATOM     28  F   UNL     1       9.725   8.118  -8.170  0.00  0.00    -0.164 F 
ATOM     29  F   UNL     1      11.057   6.386  -8.836  0.00  0.00    -0.164 F 
ENDBRANCH  24  26
BRANCH  22  30
ATOM     30  C   UNL     1       6.991   3.243 -10.364  0.00  0.00    +0.037 C 
ATOM     31  C   UNL     1       7.881   2.045 -10.028  0.00  0.00    +0.010 C 
ATOM     32  C   UNL     1       7.779   2.542 -11.472  0.00  0.00    +0.010 C 
ENDBRANCH  22  30
ENDBRANCH  20  21
ENDBRANCH  10  20
TORSDOF 6
