REMARK  Name = ZINC66543604
REMARK  11 active torsions:
REMARK  status: ('A' for Active; 'I' for Inactive)
REMARK    1  A    between atoms: C_1  and  C_2
REMARK    2  A    between atoms: C_2  and  C_3
REMARK    3  A    between atoms: C_3  and  C_4
REMARK    4  A    between atoms: C_4  and  N_5
REMARK    5  A    between atoms: N_5  and  C_6
REMARK    6  A    between atoms: N_5  and  C_19
REMARK    7  A    between atoms: C_6  and  C_7
REMARK    8  A    between atoms: C_7  and  C_8
REMARK    9  A    between atoms: C_8  and  O_9
REMARK   10  A    between atoms: O_9  and  C_10
REMARK   11  A    between atoms: C_13  and  N_16
REMARK                            x       y       z     vdW  Elec       q    Type
REMARK                         _______ _______ _______ _____ _____    ______ ____
ROOT
ATOM      1  C   UNL     1       0.920  -3.921  -2.472  0.00  0.00    +0.088 C 
ENDROOT
BRANCH   1   2
ATOM      2  N   UNL     1       1.323  -2.510  -2.529  0.00  0.00    -0.298 NA
BRANCH   2   3
ATOM      3  C   UNL     1       2.767  -2.364  -2.304  0.00  0.00    +0.079 C 
ATOM      4  C   UNL     1       3.044  -2.203  -0.800  0.00  0.00    +0.043 C 
ATOM      5  C   UNL     1       4.502  -1.733  -0.579  0.00  0.00    +0.167 C 
ATOM      6  S   UNL     1       4.867  -0.807  -2.126  0.00  0.00    -0.029 S 
ATOM      7  O   UNL     1       5.920  -1.462  -2.819  0.00  0.00    -0.174 OA
ATOM      8  O   UNL     1       4.983   0.575  -1.821  0.00  0.00    -0.174 OA
ATOM      9  C   UNL     1       3.287  -1.091  -3.030  0.00  0.00    +0.184 C 
ENDBRANCH   2   3
BRANCH   2  10
ATOM     10  C   UNL     1       0.556  -1.704  -1.569  0.00  0.00    +0.085 C 
BRANCH  10  11
ATOM     11  C   UNL     1       0.873  -0.222  -1.778  0.00  0.00    +0.015 C 
BRANCH  11  13
ATOM     12  C   UNL     1       0.284   2.106  -1.090  0.00  0.00    +0.004 C 
ATOM     13  C   UNL     1      -0.033   0.624  -0.881  0.00  0.00    -0.002 C 
ENDBRANCH  11  13
ENDBRANCH  10  11
ENDBRANCH   2  10
ENDBRANCH   1   2
BRANCH   1  14
ATOM     14  C   UNL     1       1.414  -4.643  -3.728  0.00  0.00    +0.056 C 
BRANCH  14  15
ATOM     15  C   UNL     1       0.893  -6.082  -3.726  0.00  0.00    +0.230 C 
BRANCH  15  16
ATOM     16  O   UNL     1       1.354  -6.756  -4.899  0.00  0.00    -0.492 OA
BRANCH  16  17
ATOM     17  C   UNL     1       0.978  -8.053  -5.053  0.00  0.00    +0.121 A 
ATOM     18  C   UNL     1       0.177  -8.662  -4.098  0.00  0.00    +0.048 A 
ATOM     19  C   UNL     1      -0.204  -9.980  -4.257  0.00  0.00    +0.036 A 
ATOM     20  C   UNL     1       0.212 -10.693  -5.367  0.00  0.00    +0.126 A 
ATOM     21  C   UNL     1       1.011 -10.088  -6.319  0.00  0.00    +0.036 A 
ATOM     22  C   UNL     1       1.390  -8.768  -6.168  0.00  0.00    +0.048 A 
BRANCH  20  23
ATOM     23  N   UNL     1      -0.198 -12.105  -5.534  0.00  0.00    +0.056 N 
ATOM     24  O   UNL     1      -0.896 -12.635  -4.702  0.00  0.00    -0.126 OA
ATOM     25  O   UNL     1       0.165 -12.729  -6.504  0.00  0.00    -0.126 OA
ENDBRANCH  20  23
ENDBRANCH  16  17
ENDBRANCH  15  16
ENDBRANCH  14  15
ENDBRANCH   1  14
TORSDOF 10
