REMARK  Name = ZINC00941896
REMARK  12 active torsions:
REMARK  status: ('A' for Active; 'I' for Inactive)
REMARK    1  A    between atoms: C_1  and  C_2
REMARK    2  A    between atoms: C_3  and  C_37
REMARK    3  A    between atoms: C_6  and  N_7
REMARK    4  A    between atoms: N_7  and  S_8
REMARK    5  A    between atoms: S_8  and  C_11
REMARK    6  A    between atoms: C_14  and  N_17
REMARK    7  A    between atoms: C_18  and  C_20
REMARK    8  A    between atoms: C_20  and  C_22
REMARK    9  A    between atoms: C_20  and  N_26
REMARK   10  A    between atoms: C_22  and  C_23
REMARK   11  A    between atoms: C_23  and  C_24
REMARK   12  A    between atoms: C_23  and  C_25
REMARK                            x       y       z     vdW  Elec       q    Type
REMARK                         _______ _______ _______ _____ _____    ______ ____
ROOT
ATOM      1  N   UNL     1       0.064   1.492   8.751  0.00  0.00    -0.284 N 
ATOM      2  C   UNL     1      -1.100   1.900   9.295  0.00  0.00    +0.238 C 
ATOM      3  O   UNL     1      -2.152   1.577   8.787  0.00  0.00    -0.273 OA
ATOM      4  H   UNL     1       0.903   1.686   9.199  0.00  0.00    +0.155 HD
ENDROOT
BRANCH   1   8
ATOM      5  C   UNL     1       0.062  -0.599   5.148  0.00  0.00    +0.111 A 
ATOM      6  C   UNL     1      -0.893   0.374   5.382  0.00  0.00    +0.031 A 
ATOM      7  C   UNL     1      -0.895   1.069   6.575  0.00  0.00    +0.025 A 
ATOM      8  C   UNL     1       0.063   0.790   7.541  0.00  0.00    +0.034 A 
ATOM      9  C   UNL     1       1.020  -0.188   7.303  0.00  0.00    +0.025 A 
ATOM     10  C   UNL     1       1.014  -0.883   6.110  0.00  0.00    +0.031 A 
BRANCH   5  11
ATOM     11  S   UNL     1       0.061  -1.483   3.624  0.00  0.00    +0.094 S 
ATOM     12  O   UNL     1       1.384  -1.964   3.433  0.00  0.00    -0.148 OA
ATOM     13  O   UNL     1      -0.593  -0.654   2.674  0.00  0.00    -0.148 OA
BRANCH  11  14
ATOM     14  N   UNL     1      -0.902  -2.815   3.832  0.00  0.00    -0.057 NA
BRANCH  14  20
ATOM     15  C   UNL     1      -2.636  -5.332   4.003  0.00  0.00    +0.051 C 
ATOM     16  C   UNL     1      -1.848  -4.829   2.821  0.00  0.00    +0.037 A 
ATOM     17  C   UNL     1      -1.775  -5.438   1.561  0.00  0.00    +0.085 A 
ATOM     18  N   UNL     1      -1.000  -4.713   0.801  0.00  0.00    -0.081 NA
ATOM     19  O   UNL     1      -0.550  -3.606   1.560  0.00  0.00    -0.336 OA
ATOM     20  C   UNL     1      -1.089  -3.702   2.788  0.00  0.00    +0.262 A 
ATOM     21  C   UNL     1      -2.470  -6.712   1.154  0.00  0.00    +0.069 C 
ENDBRANCH  14  20
ENDBRANCH  11  14
ENDBRANCH   5  11
ENDBRANCH   1   8
BRANCH   2  22
ATOM     22  C   UNL     1      -1.093   2.758  10.534  0.00  0.00    +0.171 C 
BRANCH  22  23
ATOM     23  N   UNL     1      -2.472   3.065  10.923  0.00  0.00    -0.222 N 
ATOM     24  C   UNL     1      -3.395   2.141  11.246  0.00  0.00    +0.254 C 
ATOM     25  O   UNL     1      -3.220   0.940  11.260  0.00  0.00    -0.270 OA
ATOM     26  C   UNL     1      -4.657   2.834  11.580  0.00  0.00    +0.049 A 
ATOM     27  C   UNL     1      -5.917   2.413  11.975  0.00  0.00    +0.014 A 
ATOM     28  C   UNL     1      -6.910   3.349  12.216  0.00  0.00    +0.001 A 
ATOM     29  C   UNL     1      -6.652   4.699  12.066  0.00  0.00    +0.001 A 
ATOM     30  C   UNL     1      -5.397   5.135  11.672  0.00  0.00    +0.014 A 
ATOM     31  C   UNL     1      -4.394   4.210  11.427  0.00  0.00    +0.049 A 
ATOM     32  C   UNL     1      -2.980   4.308  11.009  0.00  0.00    +0.254 C 
ATOM     33  O   UNL     1      -2.377   5.337  10.781  0.00  0.00    -0.270 OA
ENDBRANCH  22  23
BRANCH  22  34
ATOM     34  C   UNL     1      -0.397   2.007  11.670  0.00  0.00    +0.035 C 
BRANCH  34  35
ATOM     35  C   UNL     1      -0.280   2.923  12.890  0.00  0.00    -0.015 C 
ATOM     36  C   UNL     1       0.302   2.135  14.066  0.00  0.00    +0.007 C 
ATOM     37  C   UNL     1       0.642   4.098  12.558  0.00  0.00    +0.007 C 
ENDBRANCH  34  35
ENDBRANCH  22  34
ENDBRANCH   2  22
TORSDOF 8
