REMARK  Name = ZINC12569007
REMARK  6 active torsions:
REMARK  status: ('A' for Active; 'I' for Inactive)
REMARK    1  A    between atoms: C_1  and  C_2
REMARK    2  A    between atoms: N_11  and  C_15
REMARK    3  A    between atoms: C_15  and  C_16
REMARK    4  A    between atoms: C_19  and  C_22
REMARK    5  A    between atoms: C_22  and  N_23
REMARK    6  A    between atoms: C_31  and  C_33
REMARK                            x       y       z     vdW  Elec       q    Type
REMARK                         _______ _______ _______ _____ _____    ______ ____
ROOT
ATOM      1  C   UNL     1       1.895   3.750   1.424  0.00  0.00    -0.030 A 
ATOM      2  C   UNL     1       0.835   4.340   2.087  0.00  0.00    +0.005 A 
ATOM      3  C   UNL     1       0.988   4.768   3.392  0.00  0.00    +0.005 A 
ATOM      4  C   UNL     1       2.204   4.615   4.032  0.00  0.00    -0.030 A 
ATOM      5  C   UNL     1       3.266   4.030   3.368  0.00  0.00    +0.005 A 
ATOM      6  C   UNL     1       3.111   3.598   2.064  0.00  0.00    +0.005 A 
ENDROOT
BRANCH   1   7
ATOM      7  C   UNL     1       1.728   3.279   0.002  0.00  0.00    +0.153 C 
BRANCH   7  17
ATOM      8  C   UNL     1       0.072  -0.025   2.495  0.00  0.00    +0.010 C 
ATOM      9  C   UNL     1      -0.663  -0.552   1.260  0.00  0.00    +0.018 C 
ATOM     10  C   UNL     1      -0.605  -2.081   1.247  0.00  0.00    +0.006 C 
ATOM     11  C   UNL     1      -1.321  -2.607   0.001  0.00  0.00    +0.000 C 
ATOM     12  C   UNL     1      -0.629  -2.068  -1.253  0.00  0.00    +0.003 C 
ATOM     13  C   UNL     1      -0.687  -0.538  -1.249  0.00  0.00    +0.035 C 
ATOM     14  C   UNL     1       0.002  -0.004   0.002  0.00  0.00    +0.115 C 
ATOM     15  C   UNL     1      -0.018   1.507   0.010  0.00  0.00    +0.247 C 
ATOM     16  O   UNL     1      -0.993   2.228   0.019  0.00  0.00    -0.273 OA
ATOM     17  N   UNL     1       1.277   1.885   0.000  0.00  0.00    -0.220 N 
ATOM     18  C   UNL     1       2.099   0.829  -0.014  0.00  0.00    +0.310 C 
ATOM     19  O   UNL     1       3.311   0.915  -0.024  0.00  0.00    -0.252 OA
ATOM     20  N   UNL     1       1.431  -0.341  -0.013  0.00  0.00    -0.285 N 
ATOM     21  H   UNL     1       1.818  -1.231  -0.022  0.00  0.00    +0.151 HD
ENDBRANCH   7  17
ENDBRANCH   1   7
BRANCH   4  22
ATOM     22  C   UNL     1       2.371   5.085   5.454  0.00  0.00    +0.153 C 
BRANCH  22  23
ATOM     23  N   UNL     1       2.823   6.479   5.457  0.00  0.00    -0.220 N 
ATOM     24  C   UNL     1       1.996   7.544   5.470  0.00  0.00    +0.247 C 
ATOM     25  O   UNL     1       0.784   7.532   5.481  0.00  0.00    -0.273 OA
ATOM     26  C   UNL     1       2.899   8.756   5.469  0.00  0.00    +0.115 C 
ATOM     27  C   UNL     1       2.656   9.598   4.221  0.00  0.00    +0.035 C 
ATOM     28  C   UNL     1       3.598  10.804   4.224  0.00  0.00    +0.003 C 
ATOM     29  C   UNL     1       3.349  11.641   5.480  0.00  0.00    +0.000 C 
ATOM     30  C   UNL     1       3.620  10.791   6.723  0.00  0.00    +0.006 C 
ATOM     31  C   UNL     1       2.678   9.584   6.730  0.00  0.00    +0.018 C 
ATOM     32  C   UNL     1       2.963   8.723   7.962  0.00  0.00    +0.010 C 
ATOM     33  N   UNL     1       4.254   8.192   5.454  0.00  0.00    -0.285 N 
ATOM     34  C   UNL     1       4.109   6.853   5.454  0.00  0.00    +0.310 C 
ATOM     35  O   UNL     1       5.040   6.072   5.448  0.00  0.00    -0.252 OA
ATOM     36  H   UNL     1       5.089   8.685   5.449  0.00  0.00    +0.151 HD
ENDBRANCH  22  23
ENDBRANCH   4  22
TORSDOF 4
