REMARK  Name = ZINC12888055
REMARK  9 active torsions:
REMARK  status: ('A' for Active; 'I' for Inactive)
REMARK    1  A    between atoms: C_1  and  C_2
REMARK    2  A    between atoms: C_2  and  C_3
REMARK    3  A    between atoms: C_3  and  C_5
REMARK    4  A    between atoms: C_3  and  N_58
REMARK    5  A    between atoms: N_7  and  C_8
REMARK    6  A    between atoms: C_14  and  N_58
REMARK    7  A    between atoms: C_15  and  C_16
REMARK    8  A    between atoms: C_15  and  N_58
REMARK    9  A    between atoms: C_29  and  C_31
REMARK                            x       y       z     vdW  Elec       q    Type
REMARK                         _______ _______ _______ _____ _____    ______ ____
ROOT
ATOM      1  C   UNL     1       1.020   0.270  -0.287  0.00  0.00    +0.020 C 
ENDROOT
BRANCH   1   2
ATOM      2  C   UNL     1       0.161  -0.872   0.191  0.00  0.00    +0.204 C 
ATOM      3  O   UNL     1      -0.840  -0.649   0.838  0.00  0.00    -0.277 OA
ATOM      4  N   UNL     1       0.505  -2.142  -0.101  0.00  0.00    -0.268 N 
ATOM      5  C   UNL     1       1.656  -2.416  -0.853  0.00  0.00    +0.058 A 
ATOM      6  C   UNL     1       1.696  -2.149  -2.208  0.00  0.00    +0.025 A 
ATOM      7  C   UNL     1       2.830  -2.456  -2.937  0.00  0.00    +0.002 A 
ATOM      8  C   UNL     1       3.926  -3.028  -2.316  0.00  0.00    +0.002 A 
ATOM      9  C   UNL     1       3.900  -3.285  -0.957  0.00  0.00    +0.025 A 
ATOM     10  C   UNL     1       2.773  -2.968  -0.218  0.00  0.00    +0.055 A 
ATOM     11  N   UNL     1       2.733  -3.188   1.164  0.00  0.00    -0.284 N 
ATOM     12  C   UNL     1       1.681  -3.823   1.728  0.00  0.00    +0.219 C 
ATOM     13  O   UNL     1       1.624  -3.938   2.934  0.00  0.00    -0.275 OA
ATOM     14  C   UNL     1       0.580  -4.389   0.871  0.00  0.00    +0.118 C 
ATOM     15  C   UNL     1      -0.317  -3.263   0.355  0.00  0.00    +0.087 C 
ATOM     16  C   UNL     1      -1.162  -3.781  -0.810  0.00  0.00    +0.029 C 
ATOM     17  H   UNL     1       3.465  -2.882   1.721  0.00  0.00    +0.155 HD
ENDBRANCH   1   2
BRANCH   1  19
ATOM     18  C   UNL     1      -0.769   1.868  -0.619  0.00  0.00    -0.094 C 
ATOM     19  N   UNL     1       0.427   1.539   0.185  0.00  0.00    +0.391 N 
ATOM     20  H   UNL     1       0.149   1.432   1.168  0.00  0.00    -0.080 HD
BRANCH  19  21
ATOM     21  C   UNL     1       1.419   2.630   0.083  0.00  0.00    +0.020 C 
BRANCH  21  22
ATOM     22  C   UNL     1       1.905   2.771  -1.337  0.00  0.00    +0.204 C 
ATOM     23  O   UNL     1       1.561   1.968  -2.178  0.00  0.00    -0.277 OA
ATOM     24  N   UNL     1       2.720   3.790  -1.671  0.00  0.00    -0.287 N 
ATOM     25  H   UNL     1       3.057   4.388  -0.985  0.00  0.00    +0.155 HD
BRANCH  24  26
ATOM     26  C   UNL     1       3.083   3.986  -3.009  0.00  0.00    +0.033 A 
ATOM     27  C   UNL     1       4.343   4.476  -3.324  0.00  0.00    +0.023 A 
ATOM     28  C   UNL     1       4.700   4.662  -4.645  0.00  0.00    +0.002 A 
ATOM     29  C   UNL     1       3.799   4.373  -5.653  0.00  0.00    +0.000 A 
ATOM     30  C   UNL     1       2.541   3.891  -5.343  0.00  0.00    +0.002 A 
ATOM     31  C   UNL     1       2.180   3.697  -4.024  0.00  0.00    +0.023 A 
ENDBRANCH  24  26
ENDBRANCH  21  22
BRANCH  21  33
ATOM     32  C   UNL     1       2.119   2.214   2.445  0.00  0.00    +0.002 C 
ATOM     33  C   UNL     1       2.603   2.309   0.997  0.00  0.00    -0.010 C 
ENDBRANCH  21  33
ENDBRANCH  19  21
ENDBRANCH   1  19
TORSDOF 6
