REMARK  Name = ZINC38685156
REMARK  16 active torsions:
REMARK  status: ('A' for Active; 'I' for Inactive)
REMARK    1  A    between atoms: C_1  and  C_2
REMARK    2  A    between atoms: C_2  and  C_3
REMARK    3  A    between atoms: C_3  and  C_4
REMARK    4  A    between atoms: C_4  and  O_5
REMARK    5  A    between atoms: O_5  and  C_6
REMARK    6  A    between atoms: C_9  and  C_12
REMARK    7  A    between atoms: C_12  and  O_14
REMARK    8  A    between atoms: O_14  and  C_15
REMARK    9  A    between atoms: C_22  and  N_39
REMARK   10  A    between atoms: C_23  and  C_37
REMARK   11  A    between atoms: C_24  and  C_26
REMARK   12  A    between atoms: C_30  and  O_32
REMARK   13  A    between atoms: O_32  and  C_33
REMARK   14  A    between atoms: C_33  and  C_34
REMARK   15  A    between atoms: C_34  and  C_35
REMARK   16  A    between atoms: C_35  and  C_36
REMARK                            x       y       z     vdW  Elec       q    Type
REMARK                         _______ _______ _______ _____ _____    ______ ____
ROOT
ATOM      1  C   UNL     1      -4.663 -10.012   0.021  0.00  0.00    +0.135 A 
ATOM      2  C   UNL     1      -3.470 -10.718   0.089  0.00  0.00    +0.047 A 
ATOM      3  C   UNL     1      -3.485 -12.098   0.116  0.00  0.00    +0.012 A 
ATOM      4  C   UNL     1      -4.687 -12.783   0.076  0.00  0.00    +0.008 A 
ATOM      5  C   UNL     1      -5.882 -12.084   0.008  0.00  0.00    +0.138 A 
ATOM      6  C   UNL     1      -5.868 -10.695  -0.014  0.00  0.00    +0.093 A 
ATOM      7  O   UNL     1      -7.069 -12.737  -0.032  0.00  0.00    -0.441 OA
ATOM      8  C   UNL     1      -7.110 -14.031  -0.390  0.00  0.00    +0.199 C 
ATOM      9  C   UNL     1      -6.012 -14.822  -0.347  0.00  0.00    +0.098 C 
ATOM     10  C   UNL     1      -4.682 -14.289   0.107  0.00  0.00    +0.098 C 
ENDROOT
BRANCH  10  11
ATOM     11  C   UNL     1      -4.410 -14.758   1.514  0.00  0.00    -0.031 A 
ATOM     12  C   UNL     1      -5.271 -14.408   2.537  0.00  0.00    +0.005 A 
ATOM     13  C   UNL     1      -5.025 -14.837   3.828  0.00  0.00    +0.004 A 
ATOM     14  C   UNL     1      -3.917 -15.617   4.098  0.00  0.00    +0.045 A 
ATOM     15  C   UNL     1      -3.051 -15.969   3.073  0.00  0.00    +0.121 A 
ATOM     16  C   UNL     1      -3.305 -15.543   1.777  0.00  0.00    +0.050 A 
BRANCH  15  17
ATOM     17  O   UNL     1      -1.961 -16.736   3.337  0.00  0.00    -0.492 OA
BRANCH  17  18
ATOM     18  C   UNL     1      -1.766 -17.144   4.692  0.00  0.00    +0.229 C 
BRANCH  18  19
ATOM     19  C   UNL     1      -0.498 -17.993   4.792  0.00  0.00    +0.041 C 
BRANCH  19  20
ATOM     20  C   UNL     1      -0.290 -18.430   6.244  0.00  0.00    -0.000 C 
ATOM     21  C   UNL     1       0.979 -19.279   6.344  0.00  0.00    +0.004 C 
ENDBRANCH  19  20
ENDBRANCH  18  19
ENDBRANCH  17  18
ENDBRANCH  15  17
ENDBRANCH  10  11
BRANCH   8  22
ATOM     22  N   UNL     1      -8.301 -14.568  -0.811  0.00  0.00    -0.328 N 
ATOM     23  H   UNL     1      -9.097 -14.014  -0.848  0.00  0.00    +0.145 HD
ATOM     24  H   UNL     1      -8.347 -15.501  -1.073  0.00  0.00    +0.145 HD
ENDBRANCH   8  22
BRANCH   9  25
ATOM     25  C   UNL     1      -6.119 -16.194  -0.743  0.00  0.00    +0.101 C 
ATOM     26  N   UNL     1      -6.205 -17.282  -1.058  0.00  0.00    -0.191 NA
ENDBRANCH   9  25
BRANCH   1  27
ATOM     27  O   UNL     1      -4.650  -8.654  -0.006  0.00  0.00    -0.422 OA
BRANCH  27  28
ATOM     28  C   UNL     1      -4.959  -7.995   1.129  0.00  0.00    +0.344 C 
ATOM     29  O   UNL     1      -5.325  -8.613   2.109  0.00  0.00    -0.245 OA
BRANCH  28  33
ATOM     30  C   UNL     1      -4.654  -3.764   1.278  0.00  0.00    +0.121 A 
ATOM     31  C   UNL     1      -5.073  -4.468   2.401  0.00  0.00    +0.046 A 
ATOM     32  C   UNL     1      -5.173  -5.841   2.356  0.00  0.00    +0.018 A 
ATOM     33  C   UNL     1      -4.853  -6.525   1.180  0.00  0.00    +0.060 A 
ATOM     34  C   UNL     1      -4.432  -5.813   0.054  0.00  0.00    +0.018 A 
ATOM     35  C   UNL     1      -4.340  -4.440   0.105  0.00  0.00    +0.046 A 
BRANCH  30  36
ATOM     36  O   UNL     1      -4.556  -2.411   1.326  0.00  0.00    -0.492 OA
BRANCH  36  37
ATOM     37  C   UNL     1      -4.893  -1.779   2.562  0.00  0.00    +0.229 C 
BRANCH  37  38
ATOM     38  C   UNL     1      -4.724  -0.265   2.425  0.00  0.00    +0.041 C 
BRANCH  38  40
ATOM     39  C   UNL     1      -4.915   1.925   3.611  0.00  0.00    +0.004 C 
ATOM     40  C   UNL     1      -5.085   0.411   3.748  0.00  0.00    -0.000 C 
ENDBRANCH  38  40
ENDBRANCH  37  38
ENDBRANCH  36  37
ENDBRANCH  30  36
ENDBRANCH  28  33
ENDBRANCH  27  28
ENDBRANCH   1  27
TORSDOF 14
