REMARK  Name = ZINC21722180
REMARK  5 active torsions:
REMARK  status: ('A' for Active; 'I' for Inactive)
REMARK    1  A    between atoms: C_1  and  C_2
REMARK    2  A    between atoms: C_2  and  C_36
REMARK    3  A    between atoms: C_6  and  C_26
REMARK    4  A    between atoms: N_18  and  C_19
REMARK    5  A    between atoms: C_19  and  C_20
REMARK                            x       y       z     vdW  Elec       q    Type
REMARK                         _______ _______ _______ _____ _____    ______ ____
ROOT
ATOM      1  C   UNL     1       1.785   8.922   0.597  0.00  0.00    +0.011 C 
ATOM      2  C   UNL     1       0.938   8.628   1.837  0.00  0.00    -0.023 C 
ATOM      3  C   UNL     1      -0.089   7.543   1.517  0.00  0.00    +0.058 C 
ATOM      4  C   UNL     1       0.622   6.274   1.075  0.00  0.00    +0.017 C 
ATOM      5  C   UNL     1       1.817   5.950   1.594  0.00  0.00    +0.037 C 
ATOM      6  C   UNL     1       2.617   4.710   1.272  0.00  0.00    +0.148 C 
ATOM      7  N   UNL     1       2.132   3.965   0.130  0.00  0.00    -0.242 N 
ATOM      8  C   UNL     1       0.876   3.355   0.146  0.00  0.00    +0.060 A 
ATOM      9  C   UNL     1       0.742   1.976   0.141  0.00  0.00    +0.025 A 
ATOM     10  C   UNL     1      -0.518   1.415   0.255  0.00  0.00    +0.002 A 
ATOM     11  C   UNL     1      -1.635   2.221   0.368  0.00  0.00    +0.002 A 
ATOM     12  C   UNL     1      -1.506   3.600   0.364  0.00  0.00    +0.025 A 
ATOM     13  C   UNL     1      -0.247   4.162   0.233  0.00  0.00    +0.053 A 
ATOM     14  N   UNL     1      -0.052   5.536   0.157  0.00  0.00    -0.316 N 
ATOM     15  C   UNL     1       2.906   3.858  -0.968  0.00  0.00    +0.307 C 
ATOM     16  O   UNL     1       4.002   4.385  -0.993  0.00  0.00    -0.252 OA
ATOM     17  N   UNL     1       2.466   3.167  -2.038  0.00  0.00    -0.296 N 
ATOM     18  C   UNL     1       2.444   6.806   2.530  0.00  0.00    +0.163 C 
ATOM     19  O   UNL     1       3.516   6.478   2.999  0.00  0.00    -0.292 OA
ATOM     20  C   UNL     1       1.833   8.105   2.966  0.00  0.00    +0.086 C 
ATOM     21  C   UNL     1       0.222   9.902   2.291  0.00  0.00    +0.011 C 
ATOM     22  H   UNL     1      -0.491   6.023  -0.726  0.00  0.00    +0.152 HD
ATOM     23  H   UNL     1       1.475   2.690  -2.016  0.00  0.00    +0.150 HD
ENDROOT
BRANCH   6  24
ATOM     24  C   UNL     1       2.596   3.802   2.475  0.00  0.00    -0.022 A 
ATOM     25  C   UNL     1       1.399   3.273   2.921  0.00  0.00    +0.008 A 
ATOM     26  C   UNL     1       1.379   2.436   4.020  0.00  0.00    +0.038 A 
ATOM     27  C   UNL     1       2.557   2.136   4.682  0.00  0.00    +0.123 A 
ATOM     28  C   UNL     1       3.755   2.671   4.239  0.00  0.00    +0.038 A 
ATOM     29  C   UNL     1       3.773   3.503   3.135  0.00  0.00    +0.008 A 
ATOM     30  F   UNL     1       2.538   1.323   5.761  0.00  0.00    -0.205 F 
ENDBRANCH   6  24
BRANCH  17  31
ATOM     31  C   UNL     1       3.308   3.050  -3.232  0.00  0.00    +0.137 C 
BRANCH  31  32
ATOM     32  C   UNL     1       2.579   2.222  -4.292  0.00  0.00    +0.135 C 
ATOM     33  C   UNL     1       3.467   2.057  -5.551  0.00  0.00    +0.035 C 
ATOM     34  C   UNL     1       2.886   0.747  -6.150  0.00  0.00    +0.031 C 
ATOM     35  C   UNL     1       2.496  -0.050  -4.886  0.00  0.00    +0.160 C 
ATOM     36  O   UNL     1       2.353   0.887  -3.812  0.00  0.00    -0.375 OA
ENDBRANCH  31  32
ENDBRANCH  17  31
TORSDOF 3
