REMARK  Name = ZINC06829396
REMARK  6 active torsions:
REMARK  status: ('A' for Active; 'I' for Inactive)
REMARK    1  A    between atoms: C_4  and  C_7
REMARK    2  A    between atoms: C_8  and  C_9
REMARK    3  A    between atoms: C_9  and  C_10
REMARK    4  A    between atoms: C_9  and  C_21
REMARK    5  A    between atoms: C_9  and  O_27
REMARK    6  A    between atoms: C_11  and  N_12
REMARK                            x       y       z     vdW  Elec       q    Type
REMARK                         _______ _______ _______ _____ _____    ______ ____
ROOT
ATOM      1  C   UNL     1      -6.176   3.386   0.080  0.00  0.00    +0.173 C 
ENDROOT
BRANCH   1   2
ATOM      2  C   UNL     1      -6.425   1.899   0.075  0.00  0.00    +0.000 A 
ATOM      3  C   UNL     1      -6.557   1.225  -1.124  0.00  0.00    +0.008 A 
ATOM      4  C   UNL     1      -6.781  -0.139  -1.129  0.00  0.00    +0.000 A 
ATOM      5  C   UNL     1      -6.883  -0.827   0.066  0.00  0.00    +0.000 A 
ATOM      6  C   UNL     1      -6.756  -0.152   1.265  0.00  0.00    +0.000 A 
ATOM      7  C   UNL     1      -6.528   1.212   1.270  0.00  0.00    +0.008 A 
ENDBRANCH   1   2
BRANCH   1   9
ATOM      8  C   UNL     1      -7.742   4.934  -1.006  0.00  0.00    +0.008 C 
ATOM      9  C   UNL     1      -6.806   4.005  -1.141  0.00  0.00    +0.026 C 
BRANCH   8  13
ATOM     10  C   UNL     1      -9.516   6.678  -4.448  0.00  0.00    +0.000 A 
ATOM     11  C   UNL     1      -9.917   7.082  -3.187  0.00  0.00    +0.001 A 
ATOM     12  C   UNL     1      -9.345   6.519  -2.064  0.00  0.00    +0.008 A 
ATOM     13  C   UNL     1      -8.359   5.541  -2.204  0.00  0.00    -0.025 A 
ATOM     14  C   UNL     1      -7.955   5.142  -3.478  0.00  0.00    +0.008 A 
ATOM     15  C   UNL     1      -8.540   5.709  -4.593  0.00  0.00    +0.001 A 
ENDBRANCH   8  13
ENDBRANCH   1   9
BRANCH   1  16
ATOM     16  C   UNL     1      -4.726   3.640   0.067  0.00  0.00    -0.034 C 
ATOM     17  C   UNL     1      -3.570   3.844   0.057  0.00  0.00    +0.041 C 
BRANCH  17  18
ATOM     18  N   UNL     1      -2.236   4.078   0.045  0.00  0.00    -0.168 N 
ATOM     19  C   UNL     1      -1.234   3.133   0.031  0.00  0.00    +0.104 A 
ATOM     20  C   UNL     1      -1.217   1.743   0.017  0.00  0.00    +0.031 A 
ATOM     21  C   UNL     1      -0.013   1.076   0.008  0.00  0.00    +0.002 A 
ATOM     22  C   UNL     1       1.184   1.782   0.000  0.00  0.00    +0.002 A 
ATOM     23  C   UNL     1       1.188   3.146   0.007  0.00  0.00    +0.032 A 
ATOM     24  C   UNL     1      -0.024   3.849   0.022  0.00  0.00    +0.114 A 
ATOM     25  N   UNL     1      -0.328   5.168   0.032  0.00  0.00    -0.129 NA
ATOM     26  N   UNL     1      -1.604   5.331   0.045  0.00  0.00    -0.052 NA
ENDBRANCH  17  18
ENDBRANCH   1  16
BRANCH   1  27
ATOM     27  O   UNL     1      -6.750   3.961   1.255  0.00  0.00    -0.369 OA
ATOM     28  H   UNL     1      -6.628   4.918   1.325  0.00  0.00    +0.212 HD
ENDBRANCH   1  27
TORSDOF 6
