REMARK  Name = ZINC32916250
REMARK  14 active torsions:
REMARK  status: ('A' for Active; 'I' for Inactive)
REMARK    1  A    between atoms: C_1  and  C_2
REMARK    2  A    between atoms: C_2  and  N_3
REMARK    3  A    between atoms: N_6  and  C_9
REMARK    4  A    between atoms: C_9  and  C_10
REMARK    5  A    between atoms: C_15  and  C_16
REMARK    6  A    between atoms: C_16  and  N_17
REMARK    7  A    between atoms: N_17  and  C_18
REMARK    8  A    between atoms: C_21  and  S_27
REMARK    9  A    between atoms: C_23  and  N_24
REMARK   10  A    between atoms: S_27  and  N_30
REMARK   11  A    between atoms: N_30  and  C_31
REMARK   12  A    between atoms: C_31  and  C_32
REMARK   13  A    between atoms: C_31  and  C_33
REMARK   14  A    between atoms: C_31  and  C_34
REMARK                            x       y       z     vdW  Elec       q    Type
REMARK                         _______ _______ _______ _____ _____    ______ ____
ROOT
ATOM      1  N   UNL     1       2.189   5.766  -2.530  0.00  0.00    -0.338 N 
ATOM      2  H   UNL     1       1.252   5.371  -2.951  0.00  0.00    +0.146 HD
ENDROOT
BRANCH   1   3
ATOM      3  C   UNL     1       2.584   5.402  -1.241  0.00  0.00    +0.058 A 
ATOM      4  C   UNL     1       3.688   6.007  -0.654  0.00  0.00    +0.027 A 
ATOM      5  C   UNL     1       4.072   5.647   0.623  0.00  0.00    +0.030 A 
ATOM      6  C   UNL     1       3.367   4.678   1.312  0.00  0.00    +0.108 A 
ATOM      7  C   UNL     1       2.267   4.074   0.731  0.00  0.00    +0.063 A 
ATOM      8  C   UNL     1       1.874   4.433  -0.544  0.00  0.00    +0.149 A 
BRANCH   8   9
ATOM      9  N   UNL     1       0.697   3.785  -1.165  0.00  0.00    +0.058 N 
ATOM     10  O   UNL     1       0.011   3.016  -0.516  0.00  0.00    -0.126 OA
ATOM     11  O   UNL     1       0.415   4.021  -2.327  0.00  0.00    -0.126 OA
ENDBRANCH   8   9
BRANCH   6  12
ATOM     12  S   UNL     1       3.865   4.218   2.938  0.00  0.00    +0.059 S 
ATOM     13  O   UNL     1       2.785   3.487   3.502  0.00  0.00    -0.153 OA
ATOM     14  O   UNL     1       4.394   5.388   3.547  0.00  0.00    -0.153 OA
BRANCH  12  15
ATOM     15  N   UNL     1       5.125   3.155   2.781  0.00  0.00    -0.185 NA
ATOM     16  H   UNL     1       6.088   3.389   3.258  0.00  0.00    +0.149 HD
BRANCH  15  17
ATOM     17  C   UNL     1       4.896   1.827   2.206  0.00  0.00    +0.032 C 
ATOM     18  C   UNL     1       4.233   1.973   0.835  0.00  0.00    +0.029 C 
ATOM     19  C   UNL     1       6.234   1.101   2.051  0.00  0.00    +0.029 C 
ATOM     20  C   UNL     1       3.982   1.021   3.131  0.00  0.00    +0.029 C 
ENDBRANCH  15  17
ENDBRANCH  12  15
ENDBRANCH   6  12
ENDBRANCH   1   3
BRANCH   1  21
ATOM     21  C   UNL     1       3.021   6.675  -3.322  0.00  0.00    +0.137 C 
BRANCH  21  27
ATOM     22  C   UNL     1       1.267   7.903  -4.618  0.00  0.00    -0.029 A 
ATOM     23  C   UNL     1       0.622   8.206  -5.802  0.00  0.00    +0.005 A 
ATOM     24  C   UNL     1       1.027   7.611  -6.982  0.00  0.00    +0.000 A 
ATOM     25  C   UNL     1       2.078   6.712  -6.977  0.00  0.00    +0.000 A 
ATOM     26  C   UNL     1       2.726   6.413  -5.794  0.00  0.00    +0.005 A 
ATOM     27  C   UNL     1       2.317   7.005  -4.613  0.00  0.00    -0.026 A 
BRANCH  22  28
ATOM     28  C   UNL     1       0.826   8.553  -3.332  0.00  0.00    +0.119 C 
BRANCH  28  32
ATOM     29  N   UNL     1      -2.402   6.956  -1.124  0.00  0.00    +0.381 N 
ATOM     30  C   UNL     1      -1.092   7.040  -0.464  0.00  0.00    -0.063 C 
ATOM     31  C   UNL     1      -0.216   8.055  -1.203  0.00  0.00    +0.066 C 
ATOM     32  N   UNL     1      -0.071   7.644  -2.606  0.00  0.00    -0.302 NA
ATOM     33  C   UNL     1      -1.382   7.559  -3.266  0.00  0.00    +0.066 C 
ATOM     34  C   UNL     1      -2.257   6.544  -2.527  0.00  0.00    -0.063 C 
ATOM     35  H   UNL     1      -2.855   7.958  -1.109  0.00  0.00    -0.082 HD
BRANCH  29  37
ATOM     36  C   UNL     1      -4.717   6.173  -0.960  0.00  0.00    -0.017 C 
ATOM     37  C   UNL     1      -3.299   6.046  -0.398  0.00  0.00    -0.082 C 
ENDBRANCH  29  37
ENDBRANCH  28  32
ENDBRANCH  22  28
ENDBRANCH  21  27
ENDBRANCH   1  21
TORSDOF 10
