REMARK  Name = ZINC66205072
REMARK  8 active torsions:
REMARK  status: ('A' for Active; 'I' for Inactive)
REMARK    1  A    between atoms: C_1  and  C_2
REMARK    2  A    between atoms: C_4  and  C_7
REMARK    3  A    between atoms: C_7  and  N_8
REMARK    4  A    between atoms: N_11  and  C_12
REMARK    5  A    between atoms: N_11  and  C_16
REMARK    6  A    between atoms: C_12  and  C_13
REMARK    7  A    between atoms: C_16  and  C_18
REMARK    8  A    between atoms: C_16  and  C_19
REMARK                            x       y       z     vdW  Elec       q    Type
REMARK                         _______ _______ _______ _____ _____    ______ ____
ROOT
ATOM      1  N   UNL     1       2.193  -4.316  -1.137  0.00  0.00    -0.290 N 
ATOM      2  C   UNL     1       2.117  -4.914  -2.342  0.00  0.00    +0.303 C 
ATOM      3  O   UNL     1       1.046  -4.998  -2.912  0.00  0.00    -0.253 OA
ATOM      4  N   UNL     1       3.227  -5.419  -2.915  0.00  0.00    -0.279 N 
ATOM      5  H   UNL     1       3.047  -4.249  -0.682  0.00  0.00    +0.151 HD
ENDROOT
BRANCH   4   6
ATOM      6  C   UNL     1       3.125  -6.183  -4.161  0.00  0.00    +0.105 C 
ATOM      7  C   UNL     1       1.748  -6.843  -4.243  0.00  0.00    +0.033 C 
BRANCH   6   8
ATOM      8  C   UNL     1       3.310  -5.257  -5.335  0.00  0.00    -0.027 A 
ATOM      9  C   UNL     1       2.688  -4.023  -5.346  0.00  0.00    +0.005 A 
ATOM     10  C   UNL     1       2.857  -3.173  -6.424  0.00  0.00    +0.000 A 
ATOM     11  C   UNL     1       3.648  -3.558  -7.490  0.00  0.00    +0.000 A 
ATOM     12  C   UNL     1       4.271  -4.792  -7.478  0.00  0.00    +0.000 A 
ATOM     13  C   UNL     1       4.105  -5.640  -6.399  0.00  0.00    +0.005 A 
ENDBRANCH   6   8
ENDBRANCH   4   6
BRANCH   1  14
ATOM     14  C   UNL     1       0.986  -3.768  -0.513  0.00  0.00    +0.204 C 
BRANCH  14  18
ATOM     15  C   UNL     1       2.377  -0.418   2.942  0.00  0.00    +0.091 C 
ATOM     16  C   UNL     1       1.941  -1.721   2.323  0.00  0.00    +0.169 A 
ATOM     17  N   UNL     1       1.699  -1.921   1.022  0.00  0.00    -0.195 NA
ATOM     18  C   UNL     1       1.341  -3.159   0.819  0.00  0.00    +0.245 A 
ATOM     19  O   UNL     1       1.343  -3.795   1.997  0.00  0.00    -0.336 OA
ATOM     20  N   UNL     1       1.744  -2.836   2.965  0.00  0.00    -0.062 NA
ENDBRANCH  14  18
ENDBRANCH   1  14
BRANCH   4  21
ATOM     21  C   UNL     1       4.536  -5.202  -2.293  0.00  0.00    +0.113 C 
BRANCH  21  22
ATOM     22  C   UNL     1       4.834  -6.346  -1.322  0.00  0.00    +0.006 C 
ATOM     23  C   UNL     1       5.102  -5.980   0.139  0.00  0.00    +0.005 C 
ATOM     24  C   UNL     1       6.253  -6.442  -0.757  0.00  0.00    +0.005 C 
ENDBRANCH  21  22
ENDBRANCH   4  21
TORSDOF 6
