REMARK  Name = ZINC08995078
REMARK  10 active torsions:
REMARK  status: ('A' for Active; 'I' for Inactive)
REMARK    1  A    between atoms: C_1  and  C_2
REMARK    2  A    between atoms: C_7  and  C_8
REMARK    3  A    between atoms: C_8  and  O_9
REMARK    4  A    between atoms: O_9  and  C_10
REMARK    5  A    between atoms: C_13  and  C_17
REMARK    6  A    between atoms: C_14  and  O_16
REMARK    7  A    between atoms: C_18  and  C_28
REMARK    8  A    between atoms: C_19  and  C_24
REMARK    9  A    between atoms: C_33  and  O_34
REMARK   10  A    between atoms: O_34  and  C_35
REMARK                            x       y       z     vdW  Elec       q    Type
REMARK                         _______ _______ _______ _____ _____    ______ ____
ROOT
ATOM      1  C   UNL     1       1.155  -0.668  -0.013  0.00  0.00    +0.088 A 
ATOM      2  C   UNL     1       1.924   0.053   0.923  0.00  0.00    +0.042 A 
ATOM      3  C   UNL     1       1.871   1.446   0.886  0.00  0.00    +0.157 A 
ATOM      4  N   UNL     1       1.107   2.037  -0.018  0.00  0.00    -0.210 NA
ATOM      5  C   UNL     1       0.397   1.329  -0.884  0.00  0.00    +0.214 A 
ATOM      6  N   UNL     1       0.414   0.005  -0.889  0.00  0.00    -0.214 NA
ATOM      7  N   UNL     1      -0.383   1.993  -1.815  0.00  0.00    -0.327 N 
ATOM      8  H   UNL     1      -0.906   1.489  -2.458  0.00  0.00    +0.145 HD
ATOM      9  H   UNL     1      -0.406   2.963  -1.825  0.00  0.00    +0.145 HD
ENDROOT
BRANCH   1  13
ATOM     10  C   UNL     1       1.205  -4.921  -0.035  0.00  0.00    +0.124 A 
ATOM     11  C   UNL     1       2.394  -4.211  -0.148  0.00  0.00    +0.046 A 
ATOM     12  C   UNL     1       2.382  -2.833  -0.141  0.00  0.00    +0.017 A 
ATOM     13  C   UNL     1       1.172  -2.147  -0.020  0.00  0.00    +0.043 A 
ATOM     14  C   UNL     1      -0.025  -2.864   0.099  0.00  0.00    +0.129 A 
ATOM     15  C   UNL     1      -0.002  -4.248   0.085  0.00  0.00    +0.091 A 
BRANCH  14  16
ATOM     16  O   UNL     1      -1.205  -2.204   0.223  0.00  0.00    -0.506 OA
ATOM     17  H   UNL     1      -1.636  -2.009  -0.620  0.00  0.00    +0.292 HD
ENDBRANCH  14  16
BRANCH  10  18
ATOM     18  O   UNL     1       1.224  -6.279  -0.042  0.00  0.00    -0.487 OA
BRANCH  18  19
ATOM     19  C   UNL     1       2.501  -6.909  -0.169  0.00  0.00    +0.264 C 
BRANCH  19  26
ATOM     20  C   UNL     1       4.807  -8.634  -0.400  0.00  0.00    +0.044 C 
ATOM     21  C   UNL     1       3.429  -9.231  -0.269  0.00  0.00    -0.044 A 
ATOM     22  C   UNL     1       3.269 -10.604  -0.258  0.00  0.00    +0.004 A 
ATOM     23  C   UNL     1       2.006 -11.152  -0.137  0.00  0.00    +0.000 A 
ATOM     24  C   UNL     1       0.902 -10.326  -0.026  0.00  0.00    +0.000 A 
ATOM     25  C   UNL     1       1.063  -8.953  -0.032  0.00  0.00    +0.007 A 
ATOM     26  C   UNL     1       2.326  -8.406  -0.158  0.00  0.00    -0.007 A 
ENDBRANCH  19  26
ENDBRANCH  18  19
ENDBRANCH  10  18
ENDBRANCH   1  13
BRANCH   2  27
ATOM     27  C   UNL     1       2.767  -0.650   1.919  0.00  0.00    +0.028 A 
ATOM     28  C   UNL     1       4.088  -0.972   1.616  0.00  0.00    +0.012 A 
ATOM     29  C   UNL     1       4.870  -1.622   2.548  0.00  0.00    +0.001 A 
ATOM     30  C   UNL     1       4.343  -1.966   3.781  0.00  0.00    +0.004 A 
ATOM     31  C   UNL     1       3.033  -1.656   4.091  0.00  0.00    +0.046 A 
ATOM     32  C   UNL     1       2.238  -0.998   3.166  0.00  0.00    +0.128 A 
BRANCH  32  33
ATOM     33  O   UNL     1       0.949  -0.694   3.469  0.00  0.00    -0.495 OA
ATOM     34  C   UNL     1       0.477  -1.081   4.761  0.00  0.00    +0.277 C 
ENDBRANCH  32  33
ENDBRANCH   2  27
BRANCH   3  35
ATOM     35  C   UNL     1       2.672   2.267   1.863  0.00  0.00    +0.435 C 
ATOM     36  F   UNL     1       3.933   2.538   1.321  0.00  0.00    -0.164 F 
ATOM     37  F   UNL     1       2.006   3.471   2.117  0.00  0.00    -0.164 F 
ATOM     38  F   UNL     1       2.821   1.555   3.058  0.00  0.00    -0.164 F 
ENDBRANCH   3  35
TORSDOF 8
