REMARK  Name = ZINC19660826
REMARK  8 active torsions:
REMARK  status: ('A' for Active; 'I' for Inactive)
REMARK    1  A    between atoms: C_1  and  C_2
REMARK    2  A    between atoms: C_5  and  C_29
REMARK    3  A    between atoms: C_8  and  C_13
REMARK    4  A    between atoms: C_9  and  C_12
REMARK    5  A    between atoms: C_13  and  C_14
REMARK    6  A    between atoms: C_19  and  C_22
REMARK    7  A    between atoms: N_25  and  C_28
REMARK    8  A    between atoms: C_26  and  C_27
REMARK                            x       y       z     vdW  Elec       q    Type
REMARK                         _______ _______ _______ _____ _____    ______ ____
ROOT
ATOM      1  C   UNL     1      -5.885  -1.422   0.018  0.00  0.00    +0.223 C 
ATOM      2  O   UNL     1      -6.661  -0.491   0.026  0.00  0.00    -0.275 OA
ATOM      3  N   UNL     1      -4.557  -1.193   0.015  0.00  0.00    -0.264 N 
ATOM      4  C   UNL     1      -4.077   0.112   0.020  0.00  0.00    +0.165 A 
ATOM      5  N   UNL     1      -2.829   0.532   0.011  0.00  0.00    -0.224 NA
ATOM      6  C   UNL     1      -2.539   1.825   0.022  0.00  0.00    +0.083 A 
ATOM      7  C   UNL     1      -3.576   2.715   0.032  0.00  0.00    +0.077 A 
ATOM      8  S   UNL     1      -4.972   1.599   0.031  0.00  0.00    -0.060 S 
ATOM      9  H   UNL     1      -3.853  -2.038   0.007  0.00  0.00    +0.157 HD
ENDROOT
BRANCH   6  10
ATOM     10  C   UNL     1      -1.130   2.293   0.019  0.00  0.00    +0.041 A 
ATOM     11  C   UNL     1      -0.698   3.634   0.028  0.00  0.00    +0.144 A 
ATOM     12  N   UNL     1       0.609   3.640   0.016  0.00  0.00    -0.179 NA
ATOM     13  N   UNL     1       1.060   2.315   0.004  0.00  0.00    -0.271 N 
ATOM     14  C   UNL     1      -0.018   1.503   0.010  0.00  0.00    +0.045 A 
ATOM     15  C   UNL     1       0.002  -0.004   0.002  0.00  0.00    +0.066 C 
ATOM     16  C   UNL     1       2.460   1.884  -0.012  0.00  0.00    +0.172 C 
ENDBRANCH   6  10
BRANCH   1  17
ATOM     17  C   UNL     1      -6.405  -2.837   0.013  0.00  0.00    +0.133 C 
BRANCH  17  25
ATOM     18  C   UNL     1      -7.155  -2.812  -3.070  0.00  0.00    +0.044 C 
ATOM     19  C   UNL     1      -8.563  -2.796  -2.533  0.00  0.00    -0.041 A 
ATOM     20  C   UNL     1      -9.625  -2.779  -3.394  0.00  0.00    +0.004 A 
ATOM     21  C   UNL     1     -10.925  -2.765  -2.908  0.00  0.00    +0.005 A 
ATOM     22  C   UNL     1     -11.169  -2.768  -1.552  0.00  0.00    -0.027 A 
ATOM     23  C   UNL     1     -10.104  -2.787  -0.659  0.00  0.00    +0.050 A 
ATOM     24  C   UNL     1      -8.788  -2.800  -1.156  0.00  0.00    +0.007 A 
ATOM     25  C   UNL     1      -7.912  -2.818   0.018  0.00  0.00    -0.010 A 
ATOM     26  C   UNL     1      -8.706  -2.819   1.101  0.00  0.00    +0.018 A 
ATOM     27  N   UNL     1     -10.019  -2.795   0.716  0.00  0.00    -0.358 N 
ATOM     28  H   UNL     1     -10.936  -2.782   1.323  0.00  0.00    +0.166 HD
ATOM     29  C   UNL     1      -8.224  -2.841   2.528  0.00  0.00    +0.063 C 
ATOM     30  C   UNL     1     -12.586  -2.752  -1.039  0.00  0.00    +0.046 C 
ENDBRANCH  17  25
ENDBRANCH   1  17
TORSDOF 3
