REMARK  Name = ZINC03336481
REMARK  5 active torsions:
REMARK  status: ('A' for Active; 'I' for Inactive)
REMARK    1  A    between atoms: C_1  and  O_2
REMARK    2  A    between atoms: O_2  and  C_3
REMARK    3  A    between atoms: C_8  and  N_9
REMARK    4  A    between atoms: C_10  and  C_12
REMARK    5  A    between atoms: C_14  and  C_22
REMARK                            x       y       z     vdW  Elec       q    Type
REMARK                         _______ _______ _______ _____ _____    ______ ____
ROOT
ATOM      1  C   UNL     1      -3.660  -0.849   0.246  0.00  0.00    +0.144 C 
ATOM      2  C   UNL     1      -4.845   0.119   0.365  0.00  0.00    +0.126 C 
ATOM      3  N   UNL     1      -5.050   0.797  -0.915  0.00  0.00    -0.318 N 
ATOM      4  C   UNL     1      -4.769   0.217  -2.089  0.00  0.00    +0.135 C 
ATOM      5  S   UNL     1      -5.137   1.059  -3.534  0.00  0.00    -0.019 S 
ATOM      6  N   UNL     1      -4.208  -1.004  -2.175  0.00  0.00    -0.300 N 
ATOM      7  C   UNL     1      -3.875  -1.685  -1.000  0.00  0.00    +0.016 C 
ATOM      8  C   UNL     1      -3.753  -2.998  -0.977  0.00  0.00    +0.029 C 
ATOM      9  H   UNL     1      -5.402   1.701  -0.913  0.00  0.00    +0.148 HD
ATOM     10  H   UNL     1      -4.037  -1.406  -3.041  0.00  0.00    +0.154 HD
ENDROOT
BRANCH   2  11
ATOM     11  C   UNL     1      -6.088  -0.651   0.729  0.00  0.00    +0.011 A 
ATOM     12  C   UNL     1      -6.677  -0.797   1.941  0.00  0.00    +0.013 A 
ATOM     13  C   UNL     1      -7.826  -1.558   2.041  0.00  0.00    +0.008 A 
ATOM     14  C   UNL     1      -8.330  -2.137   0.924  0.00  0.00    +0.045 A 
ATOM     15  S   UNL     1      -7.171  -1.603  -0.324  0.00  0.00    -0.100 S 
ENDBRANCH   2  11
BRANCH   1  17
ATOM     16  N   UNL     1      -1.201  -0.723   0.009  0.00  0.00    -0.282 N 
ATOM     17  C   UNL     1      -2.375  -0.071   0.125  0.00  0.00    +0.228 C 
ATOM     18  O   UNL     1      -2.397   1.142   0.132  0.00  0.00    -0.275 OA
ATOM     19  H   UNL     1      -1.189  -1.690  -0.061  0.00  0.00    +0.155 HD
BRANCH  16  25
ATOM     20  C   UNL     1       1.147  -0.542   0.571  0.00  0.00    +0.143 A 
ATOM     21  C   UNL     1       2.333   0.173   0.549  0.00  0.00    +0.067 A 
ATOM     22  C   UNL     1       2.378   1.420  -0.049  0.00  0.00    +0.045 A 
ATOM     23  C   UNL     1       1.240   1.955  -0.626  0.00  0.00    +0.022 A 
ATOM     24  C   UNL     1       0.054   1.247  -0.608  0.00  0.00    +0.028 A 
ATOM     25  C   UNL     1       0.001  -0.003  -0.010  0.00  0.00    +0.076 A 
ATOM     26 CL   UNL     1       3.866   2.314  -0.075  0.00  0.00    -0.083 Cl
BRANCH  20  28
ATOM     27  C   UNL     1       2.314  -2.257   1.735  0.00  0.00    +0.277 C 
ATOM     28  O   UNL     1       1.101  -1.768   1.159  0.00  0.00    -0.493 OA
ENDBRANCH  20  28
ENDBRANCH  16  25
ENDBRANCH   1  17
TORSDOF 4
