REMARK  Name = ZINC22418986
REMARK  11 active torsions:
REMARK  status: ('A' for Active; 'I' for Inactive)
REMARK    1  A    between atoms: C_1  and  C_2
REMARK    2  A    between atoms: C_2  and  C_4
REMARK    3  A    between atoms: C_2  and  S_16
REMARK    4  A    between atoms: C_4  and  C_6
REMARK    5  A    between atoms: C_9  and  C_12
REMARK    6  A    between atoms: C_12  and  C_13
REMARK    7  A    between atoms: C_12  and  C_14
REMARK    8  A    between atoms: C_12  and  C_15
REMARK    9  A    between atoms: S_16  and  C_17
REMARK   10  A    between atoms: N_24  and  C_32
REMARK   11  A    between atoms: C_27  and  C_29
REMARK                            x       y       z     vdW  Elec       q    Type
REMARK                         _______ _______ _______ _____ _____    ______ ____
ROOT
ATOM      1  C   UNL     1      -2.355   0.698  -1.371  0.00  0.00    +0.116 A 
ATOM      2  C   UNL     1      -3.420   0.920  -2.259  0.00  0.00    +0.116 A 
ATOM      3  C   UNL     1      -3.334   1.862  -3.379  0.00  0.00    +0.288 A 
ATOM      4  O   UNL     1      -2.318   2.498  -3.585  0.00  0.00    -0.265 OA
ATOM      5  N   UNL     1      -4.417   2.003  -4.176  0.00  0.00    -0.153 NA
ATOM      6  C   UNL     1      -5.540   1.304  -3.951  0.00  0.00    +0.353 A 
ATOM      7  O   UNL     1      -6.486   1.468  -4.697  0.00  0.00    -0.244 OA
ATOM      8  N   UNL     1      -5.665   0.429  -2.938  0.00  0.00    -0.273 N 
ATOM      9  C   UNL     1      -4.620   0.210  -2.067  0.00  0.00    +0.155 A 
ATOM     10  N   UNL     1      -4.703  -0.643  -1.055  0.00  0.00    -0.214 NA
ATOM     11  C   UNL     1      -3.678  -0.822  -0.243  0.00  0.00    +0.136 A 
ATOM     12  N   UNL     1      -2.534  -0.184  -0.387  0.00  0.00    -0.225 NA
ENDROOT
BRANCH  11  13
ATOM     13  C   UNL     1      -3.820  -1.801   0.893  0.00  0.00    +0.057 C 
ATOM     14  C   UNL     1      -2.700  -1.843   1.934  0.00  0.00    +0.012 C 
ATOM     15  C   UNL     1      -2.853  -2.987   0.929  0.00  0.00    +0.012 C 
ENDBRANCH  11  13
BRANCH   8  16
ATOM     16  C   UNL     1      -6.924  -0.298  -2.758  0.00  0.00    +0.094 C 
ATOM     17  C   UNL     1      -6.841  -1.808  -2.523  0.00  0.00    +0.027 C 
ATOM     18  C   UNL     1      -7.345  -1.268  -3.864  0.00  0.00    +0.027 C 
ENDBRANCH   8  16
BRANCH   1  19
ATOM     19  S   UNL     1      -0.826   1.554  -1.557  0.00  0.00    -0.094 S 
BRANCH  19  21
ATOM     20  C   UNL     1      -0.572   1.278   1.149  0.00  0.00    +0.028 C 
ATOM     21  C   UNL     1       0.095   0.858  -0.163  0.00  0.00    +0.121 C 
BRANCH  21  22
ATOM     22  C   UNL     1       1.512   1.368  -0.192  0.00  0.00    +0.176 C 
ATOM     23  O   UNL     1       1.766   2.421  -0.736  0.00  0.00    -0.291 OA
BRANCH  22  24
ATOM     24  C   UNL     1       2.588   0.588   0.440  0.00  0.00    +0.019 A 
ATOM     25  C   UNL     1       2.298  -0.624   1.074  0.00  0.00    +0.012 A 
ATOM     26  C   UNL     1       3.313  -1.352   1.659  0.00  0.00    +0.005 A 
ATOM     27  C   UNL     1       4.614  -0.880   1.630  0.00  0.00    -0.042 A 
ATOM     28  C   UNL     1       4.908   0.322   1.010  0.00  0.00    +0.005 A 
ATOM     29  C   UNL     1       3.905   1.058   0.415  0.00  0.00    +0.012 A 
BRANCH  27  30
ATOM     30  C   UNL     1       5.715  -1.678   2.278  0.00  0.00    -0.013 C 
ATOM     31  C   UNL     1       6.372  -0.842   3.378  0.00  0.00    +0.015 C 
ATOM     32  C   UNL     1       5.130  -2.954   2.887  0.00  0.00    +0.015 C 
ATOM     33  C   UNL     1       6.762  -2.049   1.225  0.00  0.00    +0.015 C 
ENDBRANCH  27  30
ENDBRANCH  22  24
ENDBRANCH  21  22
ENDBRANCH  19  21
ENDBRANCH   1  19
TORSDOF 7
