REMARK  Name = ZINC09184127
REMARK  6 active torsions:
REMARK  status: ('A' for Active; 'I' for Inactive)
REMARK    1  A    between atoms: C_1  and  C_2
REMARK    2  A    between atoms: C_2  and  C_3
REMARK    3  A    between atoms: C_3  and  N_4
REMARK    4  A    between atoms: C_5  and  C_7
REMARK    5  A    between atoms: C_7  and  C_9
REMARK    6  A    between atoms: C_7  and  C_10
REMARK                            x       y       z     vdW  Elec       q    Type
REMARK                         _______ _______ _______ _____ _____    ______ ____
ROOT
ATOM      1  C   UNL     1       0.590   4.171   0.019  0.00  0.00    -0.034 A 
ATOM      2  C   UNL     1      -0.734   3.758   0.029  0.00  0.00    +0.005 A 
ATOM      3  C   UNL     1      -1.042   2.415   0.020  0.00  0.00    +0.011 A 
ATOM      4  C   UNL     1      -0.018   1.470   0.010  0.00  0.00    +0.007 A 
ATOM      5  C   UNL     1       0.002  -0.004   0.002  0.00  0.00    +0.009 A 
ATOM      6  C   UNL     1      -0.996  -0.976   0.006  0.00  0.00    +0.030 A 
ATOM      7  C   UNL     1      -0.651  -2.312  -0.005  0.00  0.00    +0.042 A 
ATOM      8  C   UNL     1       0.684  -2.688  -0.020  0.00  0.00    +0.022 A 
ATOM      9  C   UNL     1       1.681  -1.736  -0.024  0.00  0.00    +0.027 A 
ATOM     10  C   UNL     1       1.352  -0.384  -0.013  0.00  0.00    +0.048 A 
ATOM     11  N   UNL     1       2.128   0.763  -0.014  0.00  0.00    -0.354 N 
ATOM     12  H   UNL     1       3.098   0.776  -0.024  0.00  0.00    +0.166 HD
ATOM     13  C   UNL     1       1.321   1.887  -0.000  0.00  0.00    +0.048 A 
ATOM     14  C   UNL     1       1.612   3.248   0.004  0.00  0.00    +0.030 A 
ATOM     15 CL   UNL     1      -1.892  -3.525  -0.001  0.00  0.00    -0.084 Cl
ENDROOT
BRANCH   1  16
ATOM     16  C   UNL     1       0.913   5.643   0.023  0.00  0.00    +0.102 C 
ATOM     17  C   UNL     1       0.306   6.303  -1.217  0.00  0.00    +0.022 C 
BRANCH  16  19
ATOM     18  N   UNL     1       0.505   7.600   1.481  0.00  0.00    -0.315 N 
ATOM     19  C   UNL     1       0.339   6.280   1.262  0.00  0.00    +0.220 C 
ATOM     20  O   UNL     1      -0.272   5.605   2.063  0.00  0.00    -0.275 OA
ATOM     21  H   UNL     1       0.994   8.140   0.840  0.00  0.00    +0.149 HD
BRANCH  18  22
ATOM     22  C   UNL     1      -0.053   8.219   2.686  0.00  0.00    +0.104 C 
BRANCH  22  24
ATOM     23  C   UNL     1      -0.308  10.359   3.949  0.00  0.00    +0.005 C 
ATOM     24  C   UNL     1       0.275   9.713   2.690  0.00  0.00    +0.015 C 
ENDBRANCH  22  24
ENDBRANCH  18  22
ENDBRANCH  16  19
ENDBRANCH   1  16
TORSDOF 4
