REMARK  Name = ZINC45810910
REMARK  10 active torsions:
REMARK  status: ('A' for Active; 'I' for Inactive)
REMARK    1  A    between atoms: C_1  and  C_2
REMARK    2  A    between atoms: C_2  and  C_3
REMARK    3  A    between atoms: C_6  and  C_9
REMARK    4  A    between atoms: C_9  and  C_11
REMARK    5  A    between atoms: C_9  and  N_12
REMARK    6  A    between atoms: C_13  and  C_15
REMARK    7  A    between atoms: C_17  and  C_26
REMARK    8  A    between atoms: C_18  and  C_25
REMARK    9  A    between atoms: C_19  and  S_21
REMARK   10  A    between atoms: S_21  and  N_24
REMARK                            x       y       z     vdW  Elec       q    Type
REMARK                         _______ _______ _______ _____ _____    ______ ____
ROOT
ATOM      1  N   UNL     1       2.257  -1.263   5.877  0.00  0.00    -0.305 N 
ATOM      2  C   UNL     1       3.021  -1.139   6.981  0.00  0.00    +0.245 C 
ATOM      3  O   UNL     1       4.157  -1.571   6.986  0.00  0.00    -0.270 OA
ATOM      4  H   UNL     1       1.351  -0.918   5.873  0.00  0.00    +0.150 HD
ENDROOT
BRANCH   2   5
ATOM      5  C   UNL     1       2.477  -0.477   8.186  0.00  0.00    +0.039 A 
ATOM      6  C   UNL     1       1.170   0.016   8.185  0.00  0.00    +0.016 A 
ATOM      7  C   UNL     1       0.668   0.632   9.313  0.00  0.00    -0.045 A 
ATOM      8  C   UNL     1       1.457   0.763  10.442  0.00  0.00    -0.021 A 
ATOM      9  C   UNL     1       2.752   0.277  10.449  0.00  0.00    +0.109 A 
ATOM     10  C   UNL     1       3.264  -0.347   9.330  0.00  0.00    +0.041 A 
ATOM     11  C   UNL     1       0.902   1.438  11.670  0.00  0.00    +0.046 C 
ATOM     12  C   UNL     1      -0.741   1.164   9.314  0.00  0.00    +0.044 C 
BRANCH   9  13
ATOM     13  S   UNL     1       3.748   0.449  11.893  0.00  0.00    +0.056 S 
ATOM     14  O   UNL     1       2.960  -0.002  12.986  0.00  0.00    -0.153 OA
ATOM     15  O   UNL     1       5.014  -0.116  11.583  0.00  0.00    -0.153 OA
BRANCH  13  16
ATOM     16  N   UNL     1       3.996   2.070  12.126  0.00  0.00    -0.204 NA
ATOM     17  H   UNL     1       4.119   2.418  13.023  0.00  0.00    +0.144 HD
ATOM     18  H   UNL     1       4.019   2.671  11.365  0.00  0.00    +0.144 HD
ENDBRANCH  13  16
ENDBRANCH   9  13
ENDBRANCH   2   5
BRANCH   1  19
ATOM     19  C   UNL     1       2.797  -1.919   4.683  0.00  0.00    +0.100 C 
ATOM     20  C   UNL     1       2.610  -3.433   4.805  0.00  0.00    +0.033 C 
BRANCH  19  24
ATOM     21  C   UNL     1       0.731  -0.503   1.223  0.00  0.00    -0.048 A 
ATOM     22  C   UNL     1       2.097  -0.710   1.176  0.00  0.00    +0.004 A 
ATOM     23  C   UNL     1       2.766  -1.167   2.296  0.00  0.00    +0.006 A 
ATOM     24  C   UNL     1       2.068  -1.419   3.463  0.00  0.00    -0.027 A 
ATOM     25  C   UNL     1       0.702  -1.212   3.510  0.00  0.00    +0.006 A 
ATOM     26  C   UNL     1       0.034  -0.750   2.391  0.00  0.00    +0.004 A 
BRANCH  21  28
ATOM     27  C   UNL     1      -0.019   1.526   0.010  0.00  0.00    +0.009 C 
ATOM     28  C   UNL     1       0.002  -0.004   0.002  0.00  0.00    +0.032 C 
ENDBRANCH  21  28
ENDBRANCH  19  24
ENDBRANCH   1  19
TORSDOF 6
