REMARK  Name = ZINC33077482
REMARK  8 active torsions:
REMARK  status: ('A' for Active; 'I' for Inactive)
REMARK    1  A    between atoms: C_1  and  C_2
REMARK    2  A    between atoms: C_2  and  C_3
REMARK    3  A    between atoms: C_7  and  C_37
REMARK    4  A    between atoms: C_8  and  N_9
REMARK    5  A    between atoms: C_10  and  C_12
REMARK    6  A    between atoms: N_15  and  S_18
REMARK    7  A    between atoms: S_18  and  C_21
REMARK    8  A    between atoms: C_31  and  C_33
REMARK                            x       y       z     vdW  Elec       q    Type
REMARK                         _______ _______ _______ _____ _____    ______ ____
ROOT
ATOM      1  C   UNL     1      -4.482   1.434  -2.320  0.00  0.00    +0.078 C 
ATOM      2  C   UNL     1      -4.354   1.092  -3.806  0.00  0.00    +0.030 C 
ATOM      3  C   UNL     1      -5.634   0.396  -4.279  0.00  0.00    +0.110 C 
ATOM      4  N   UNL     1      -6.784   1.249  -3.953  0.00  0.00    -0.177 NA
ATOM      5  C   UNL     1      -6.952   1.711  -2.568  0.00  0.00    +0.110 C 
ATOM      6  C   UNL     1      -5.658   2.393  -2.115  0.00  0.00    +0.030 C 
ENDROOT
BRANCH   1   8
ATOM      7  N   UNL     1      -2.040   1.428  -1.927  0.00  0.00    -0.285 N 
ATOM      8  C   UNL     1      -3.211   2.089  -1.844  0.00  0.00    +0.220 C 
ATOM      9  O   UNL     1      -3.243   3.212  -1.386  0.00  0.00    -0.275 OA
ATOM     10  H   UNL     1      -1.996   0.449  -2.426  0.00  0.00    +0.155 HD
BRANCH   7  16
ATOM     11  C   UNL     1      -0.153   1.283  -0.426  0.00  0.00    -0.026 A 
ATOM     12  C   UNL     1       0.988   1.839   0.117  0.00  0.00    +0.005 A 
ATOM     13  C   UNL     1       1.413   3.090  -0.293  0.00  0.00    +0.001 A 
ATOM     14  C   UNL     1       0.690   3.792  -1.240  0.00  0.00    +0.005 A 
ATOM     15  C   UNL     1      -0.455   3.244  -1.783  0.00  0.00    -0.029 A 
ATOM     16  C   UNL     1      -0.881   1.986  -1.378  0.00  0.00    +0.039 A 
ATOM     17  C   UNL     1      -1.241   4.010  -2.816  0.00  0.00    +0.045 C 
BRANCH  11  19
ATOM     18  C   UNL     1      -0.081  -1.138  -0.956  0.00  0.00    +0.009 C 
ATOM     19  C   UNL     1      -0.611  -0.082   0.016  0.00  0.00    +0.033 C 
ENDBRANCH  11  19
ENDBRANCH   7  16
ENDBRANCH   1   8
BRANCH   4  20
ATOM     20  S   UNL     1      -7.871   1.683  -5.125  0.00  0.00    +0.061 S 
ATOM     21  O   UNL     1      -7.788   0.694  -6.142  0.00  0.00    -0.153 OA
ATOM     22  O   UNL     1      -9.088   1.989  -4.457  0.00  0.00    -0.153 OA
BRANCH  20  23
ATOM     23  C   UNL     1      -7.296   3.188  -5.838  0.00  0.00    +0.106 A 
ATOM     24  C   UNL     1      -7.701   4.400  -5.311  0.00  0.00    +0.030 A 
ATOM     25  C   UNL     1      -7.247   5.579  -5.868  0.00  0.00    +0.026 A 
ATOM     26  C   UNL     1      -6.393   5.547  -6.964  0.00  0.00    +0.040 A 
ATOM     27  C   UNL     1      -5.989   4.332  -7.494  0.00  0.00    -0.024 A 
ATOM     28  C   UNL     1      -6.447   3.154  -6.927  0.00  0.00    +0.034 A 
ATOM     29  C   UNL     1      -5.057   4.259  -8.674  0.00  0.00    +0.038 C 
ATOM     30  C   UNL     1      -5.071   5.575  -9.450  0.00  0.00    +0.024 C 
ATOM     31  C   UNL     1      -4.831   6.731  -8.471  0.00  0.00    +0.114 C 
ATOM     32  N   UNL     1      -5.951   6.755  -7.521  0.00  0.00    -0.271 N 
ATOM     33  C   UNL     1      -6.545   7.919  -7.191  0.00  0.00    +0.223 C 
ATOM     34  O   UNL     1      -7.537   7.918  -6.493  0.00  0.00    -0.275 OA
BRANCH  33  35
ATOM     35  C   UNL     1      -5.976   9.223  -7.688  0.00  0.00    +0.076 C 
ATOM     36  C   UNL     1      -4.909   9.825  -6.758  0.00  0.00    +0.013 C 
ATOM     37  C   UNL     1      -5.539  11.196  -7.053  0.00  0.00    +0.001 C 
ATOM     38  C   UNL     1      -6.847  10.444  -7.350  0.00  0.00    +0.013 C 
ENDBRANCH  33  35
ENDBRANCH  20  23
ENDBRANCH   4  20
TORSDOF 6
