REMARK  Name = ZINC14546623
REMARK  3 active torsions:
REMARK  status: ('A' for Active; 'I' for Inactive)
REMARK    1  A    between atoms: C_1  and  C_2
REMARK    2  A    between atoms: C_4  and  N_26
REMARK    3  A    between atoms: C_9  and  C_18
REMARK                            x       y       z     vdW  Elec       q    Type
REMARK                         _______ _______ _______ _____ _____    ______ ____
ROOT
ATOM      1  C   UNL     1      -1.397   1.365   1.301  0.00  0.00    +0.046 C 
ATOM      2  C   UNL     1      -1.462   1.722   2.764  0.00  0.00    -0.027 A 
ATOM      3  C   UNL     1      -2.688   1.909   3.364  0.00  0.00    +0.038 A 
ATOM      4  C   UNL     1      -2.763   2.232   4.707  0.00  0.00    +0.127 A 
ATOM      5  C   UNL     1      -1.601   2.385   5.439  0.00  0.00    +0.038 A 
ATOM      6  C   UNL     1      -0.370   2.214   4.843  0.00  0.00    -0.017 A 
ATOM      7  C   UNL     1      -0.280   1.865   3.492  0.00  0.00    +0.034 A 
ATOM      8  N   UNL     1       0.920   1.628   2.825  0.00  0.00    -0.336 N 
ATOM      9  C   UNL     1       2.158   1.891   3.577  0.00  0.00    +0.108 C 
ATOM     10  C   UNL     1       1.930   1.412   4.995  0.00  0.00    +0.029 C 
ATOM     11  C   UNL     1       0.891   2.413   5.588  0.00  0.00    +0.049 C 
ATOM     12  C   UNL     1       1.010   2.169   7.046  0.00  0.00    -0.023 C 
ATOM     13  C   UNL     1       2.248   1.761   7.306  0.00  0.00    -0.030 C 
ATOM     14  C   UNL     1       3.050   1.667   6.005  0.00  0.00    +0.033 C 
ATOM     15  H   UNL     1       0.932   0.704   2.420  0.00  0.00    +0.147 HD
ENDROOT
BRANCH   9  16
ATOM     16  C   UNL     1       2.455   3.369   3.576  0.00  0.00    +0.010 A 
ATOM     17  C   UNL     1       1.507   4.265   3.114  0.00  0.00    +0.047 A 
ATOM     18  C   UNL     1       1.778   5.622   3.119  0.00  0.00    +0.020 A 
ATOM     19  C   UNL     1       3.000   6.081   3.574  0.00  0.00    +0.003 A 
ATOM     20  C   UNL     1       3.950   5.186   4.030  0.00  0.00    +0.020 A 
ATOM     21  C   UNL     1       3.677   3.829   4.031  0.00  0.00    +0.047 A 
ATOM     22 CL   UNL     1       4.870   2.705   4.604  0.00  0.00    -0.083 Cl
ATOM     23 CL   UNL     1      -0.024   3.688   2.536  0.00  0.00    -0.083 Cl
ENDBRANCH   9  16
BRANCH   4  24
ATOM     24  N   UNL     1      -4.081   2.418   5.354  0.00  0.00    +0.056 N 
ATOM     25  O   UNL     1      -4.143   2.707   6.536  0.00  0.00    -0.126 OA
ATOM     26  O   UNL     1      -5.103   2.282   4.706  0.00  0.00    -0.126 OA
ENDBRANCH   4  24
TORSDOF 2
