REMARK  Name = ZINC43367370
REMARK  9 active torsions:
REMARK  status: ('A' for Active; 'I' for Inactive)
REMARK    1  A    between atoms: C_1  and  C_2
REMARK    2  A    between atoms: C_2  and  C_3
REMARK    3  A    between atoms: C_3  and  C_5
REMARK    4  A    between atoms: C_3  and  N_22
REMARK    5  A    between atoms: C_5  and  C_7
REMARK    6  A    between atoms: C_5  and  S_13
REMARK    7  A    between atoms: C_10  and  C_12
REMARK    8  A    between atoms: S_13  and  C_14
REMARK    9  A    between atoms: C_16  and  C_21
REMARK                            x       y       z     vdW  Elec       q    Type
REMARK                         _______ _______ _______ _____ _____    ______ ____
ROOT
ATOM      1  C   UNL     1       0.636  -2.039  -1.348  0.00  0.00    +0.106 C 
ENDROOT
BRANCH   1   2
ATOM      2  C   UNL     1      -0.848  -2.298  -1.366  0.00  0.00    +0.117 A 
ATOM      3  C   UNL     1      -1.522  -3.072  -0.496  0.00  0.00    +0.046 A 
ATOM      4  C   UNL     1      -2.882  -3.033  -0.882  0.00  0.00    +0.044 A 
ATOM      5  C   UNL     1      -2.957  -2.239  -1.965  0.00  0.00    +0.102 A 
ATOM      6  O   UNL     1      -1.723  -1.792  -2.250  0.00  0.00    -0.464 OA
ATOM      7  C   UNL     1      -4.214  -1.903  -2.725  0.00  0.00    +0.086 C 
ENDBRANCH   1   2
BRANCH   1   8
ATOM      8  C   UNL     1       0.890  -0.540  -1.176  0.00  0.00    -0.054 C 
BRANCH   8   9
ATOM      9  N   UNL     1       2.333  -0.277  -1.247  0.00  0.00    +0.381 N 
ATOM     10  H   UNL     1       2.813  -0.844  -0.564  0.00  0.00    -0.090 HD
ATOM     11  H   UNL     1       2.672  -0.504  -2.170  0.00  0.00    -0.090 HD
ATOM     12  H   UNL     1       2.507   0.699  -1.056  0.00  0.00    -0.090 HD
ENDBRANCH   8   9
BRANCH   8  14
ATOM     13  C   UNL     1       0.495   1.435   0.302  0.00  0.00    +0.002 C 
ATOM     14  C   UNL     1       0.354  -0.084   0.182  0.00  0.00    -0.018 C 
ENDBRANCH   8  14
ENDBRANCH   1   8
BRANCH   1  15
ATOM     15  S   UNL     1       1.367  -2.602  -2.910  0.00  0.00    -0.076 S 
BRANCH  15  16
ATOM     16  C   UNL     1       1.213  -4.356  -2.845  0.00  0.00    +0.192 A 
ATOM     17  N   UNL     1       1.566  -5.075  -3.901  0.00  0.00    -0.227 NA
ATOM     18  C   UNL     1       1.464  -6.395  -3.889  0.00  0.00    +0.046 A 
ATOM     19  C   UNL     1       0.983  -7.026  -2.757  0.00  0.00    +0.095 A 
ATOM     20  C   UNL     1       0.619  -6.242  -1.662  0.00  0.00    +0.274 A 
ATOM     21  O   UNL     1       0.142  -6.819  -0.533  0.00  0.00    -0.266 OA
ATOM     22  N   UNL     1       0.752  -4.924  -1.740  0.00  0.00    -0.183 NA
ATOM     23  C   UNL     1       1.869  -7.202  -5.096  0.00  0.00    +0.066 C 
ENDBRANCH  15  16
ENDBRANCH   1  15
TORSDOF 6
