REMARK  Name = ZINC00960115
REMARK  9 active torsions:
REMARK  status: ('A' for Active; 'I' for Inactive)
REMARK    1  A    between atoms: C_1  and  C_2
REMARK    2  A    between atoms: C_5  and  C_8
REMARK    3  A    between atoms: C_8  and  O_9
REMARK    4  A    between atoms: O_9  and  C_10
REMARK    5  A    between atoms: C_11  and  O_31
REMARK    6  A    between atoms: C_13  and  C_17
REMARK    7  A    between atoms: C_19  and  C_28
REMARK    8  A    between atoms: C_20  and  C_27
REMARK    9  A    between atoms: O_31  and  C_32
REMARK                            x       y       z     vdW  Elec       q    Type
REMARK                         _______ _______ _______ _____ _____    ______ ____
ROOT
ATOM      1  C   UNL     1       2.067  -6.079   0.342  0.00  0.00    +0.176 A 
ATOM      2  C   UNL     1       2.301  -6.861   1.468  0.00  0.00    +0.163 A 
ATOM      3  C   UNL     1       2.406  -8.237   1.343  0.00  0.00    +0.055 A 
ATOM      4  C   UNL     1       2.278  -8.830   0.101  0.00  0.00    -0.016 A 
ATOM      5  C   UNL     1       2.046  -8.054  -1.019  0.00  0.00    +0.025 A 
ATOM      6  C   UNL     1       1.934  -6.680  -0.900  0.00  0.00    +0.063 A 
ATOM      7 BR   UNL     1       1.609  -5.622  -2.433  0.00  0.00    -0.046 Br
ENDROOT
BRANCH   4   8
ATOM      8  C   UNL     1       2.392 -10.327  -0.033  0.00  0.00    +0.164 C 
ATOM      9  C   UNL     1       3.800 -10.654  -0.500  0.00  0.00    +0.061 C 
ATOM     10  C   UNL     1       3.923 -11.347  -1.671  0.00  0.00    +0.052 C 
ATOM     11  N   UNL     1       2.867 -11.723  -2.378  0.00  0.00    -0.218 NA
ATOM     12  C   UNL     1       1.611 -11.480  -2.045  0.00  0.00    +0.237 C 
ATOM     13  N   UNL     1       1.305 -10.793  -0.900  0.00  0.00    -0.208 N 
ATOM     14  N   UNL     1      -0.088 -10.707  -0.847  0.00  0.00    -0.251 N 
ATOM     15  C   UNL     1      -0.554 -11.337  -1.951  0.00  0.00    +0.203 C 
ATOM     16  N   UNL     1       0.445 -11.789  -2.645  0.00  0.00    -0.205 NA
ATOM     17  C   UNL     1       5.301 -11.694  -2.174  0.00  0.00    +0.066 C 
ATOM     18  H   UNL     1      -0.618 -10.280  -0.155  0.00  0.00    +0.171 HD
BRANCH   9  19
ATOM     19  C   UNL     1       4.930 -10.260   0.241  0.00  0.00    +0.241 C 
ATOM     20  O   UNL     1       5.274 -10.905   1.216  0.00  0.00    -0.271 OA
ATOM     21  N   UNL     1       5.630  -9.169  -0.127  0.00  0.00    -0.325 N 
ATOM     22  H   UNL     1       5.398  -8.695  -0.941  0.00  0.00    +0.145 HD
ATOM     23  H   UNL     1       6.367  -8.857   0.422  0.00  0.00    +0.145 HD
ENDBRANCH   9  19
ENDBRANCH   4   8
BRANCH   2  24
ATOM     24  O   UNL     1       2.427  -6.276   2.690  0.00  0.00    -0.491 OA
ATOM     25  C   UNL     1       2.666  -7.141   3.802  0.00  0.00    +0.277 C 
ENDBRANCH   2  24
BRANCH   1  26
ATOM     26  O   UNL     1       1.963  -4.728   0.460  0.00  0.00    -0.483 OA
BRANCH  26  27
ATOM     27  C   UNL     1       0.660  -4.196   0.704  0.00  0.00    +0.264 C 
BRANCH  27  32
ATOM     28  C   UNL     1       0.966   1.562   1.089  0.00  0.00    +0.044 C 
ATOM     29  C   UNL     1       0.886   0.060   0.989  0.00  0.00    -0.050 A 
ATOM     30  C   UNL     1       0.665  -0.540  -0.237  0.00  0.00    +0.004 A 
ATOM     31  C   UNL     1       0.592  -1.917  -0.329  0.00  0.00    +0.007 A 
ATOM     32  C   UNL     1       0.740  -2.694   0.805  0.00  0.00    -0.010 A 
ATOM     33  C   UNL     1       0.962  -2.094   2.030  0.00  0.00    +0.007 A 
ATOM     34  C   UNL     1       1.039  -0.717   2.121  0.00  0.00    +0.004 A 
ENDBRANCH  27  32
ENDBRANCH  26  27
ENDBRANCH   1  26
TORSDOF 6
