REMARK  Name = ZINC36116555
REMARK  14 active torsions:
REMARK  status: ('A' for Active; 'I' for Inactive)
REMARK    1  A    between atoms: C_1  and  C_2
REMARK    2  A    between atoms: C_4  and  O_9
REMARK    3  A    between atoms: O_9  and  C_10
REMARK    4  A    between atoms: C_10  and  C_11
REMARK    5  A    between atoms: C_21  and  C_23
REMARK    6  A    between atoms: C_23  and  N_24
REMARK    7  A    between atoms: N_24  and  C_25
REMARK    8  A    between atoms: C_25  and  C_26
REMARK    9  A    between atoms: C_26  and  C_27
REMARK   10  A    between atoms: C_27  and  O_28
REMARK   11  A    between atoms: O_28  and  C_29
REMARK   12  A    between atoms: N_32  and  C_33
REMARK   13  A    between atoms: C_33  and  C_34
REMARK   14  A    between atoms: C_33  and  C_35
REMARK                            x       y       z     vdW  Elec       q    Type
REMARK                         _______ _______ _______ _____ _____    ______ ____
ROOT
ATOM      1  C   UNL     1       0.048  -4.755  -3.734  0.00  0.00    +0.144 C 
ATOM      2  C   UNL     1      -1.130  -4.188  -4.524  0.00  0.00    -0.014 A 
ATOM      3  C   UNL     1      -2.451  -4.574  -4.307  0.00  0.00    +0.013 A 
ATOM      4  C   UNL     1      -3.445  -4.026  -5.044  0.00  0.00    +0.046 A 
ATOM      5  S   UNL     1      -2.543  -2.911  -6.108  0.00  0.00    -0.101 S 
ATOM      6  C   UNL     1      -0.916  -3.260  -5.496  0.00  0.00    -0.004 A 
ATOM      7  C   UNL     1       0.387  -2.678  -5.939  0.00  0.00    +0.061 C 
ATOM      8  C   UNL     1       1.449  -2.975  -4.869  0.00  0.00    +0.114 C 
ATOM      9  N   UNL     1       1.284  -4.369  -4.428  0.00  0.00    -0.289 N 
ATOM     10  C   UNL     1       2.251  -5.279  -4.658  0.00  0.00    +0.234 C 
ATOM     11  O   UNL     1       2.105  -6.426  -4.290  0.00  0.00    -0.274 OA
ENDROOT
BRANCH   1  12
ATOM     12  C   UNL     1       0.047  -4.176  -2.317  0.00  0.00    +0.256 C 
BRANCH  12  13
ATOM     13  O   UNL     1       0.028  -2.749  -2.386  0.00  0.00    -0.490 OA
BRANCH  13  17
ATOM     14  C   UNL     1      -0.018   1.503   0.010  0.00  0.00    +0.045 C 
ATOM     15  C   UNL     1       0.002  -0.004   0.002  0.00  0.00    -0.029 A 
ATOM     16  C   UNL     1       0.006  -0.688  -1.199  0.00  0.00    +0.050 A 
ATOM     17  C   UNL     1       0.025  -2.075  -1.206  0.00  0.00    +0.121 A 
ATOM     18  C   UNL     1       0.040  -2.773  -0.007  0.00  0.00    +0.047 A 
ATOM     19  C   UNL     1       0.036  -2.086   1.192  0.00  0.00    +0.024 A 
ATOM     20  C   UNL     1       0.023  -0.702   1.196  0.00  0.00    +0.044 A 
ATOM     21 CL   UNL     1       0.025   0.160   2.704  0.00  0.00    -0.083 Cl
ENDBRANCH  13  17
ENDBRANCH  12  13
ENDBRANCH   1  12
BRANCH  10  22
ATOM     22  C   UNL     1       3.515  -4.872  -5.371  0.00  0.00    +0.205 C 
BRANCH  22  23
ATOM     23  N   UNL     1       4.400  -6.033  -5.497  0.00  0.00    -0.277 N 
ATOM     24  C   UNL     1       5.300  -6.301  -4.530  0.00  0.00    +0.303 C 
ATOM     25  O   UNL     1       6.035  -7.264  -4.634  0.00  0.00    -0.253 OA
ATOM     26  N   UNL     1       5.386  -5.502  -3.448  0.00  0.00    -0.297 N 
ATOM     27  H   UNL     1       4.800  -4.734  -3.365  0.00  0.00    +0.150 HD
BRANCH  26  28
ATOM     28  C   UNL     1       6.364  -5.794  -2.397  0.00  0.00    +0.068 C 
ATOM     29  C   UNL     1       6.708  -4.505  -1.649  0.00  0.00    +0.027 C 
ATOM     30  C   UNL     1       5.773  -6.811  -1.418  0.00  0.00    +0.027 C 
ENDBRANCH  26  28
BRANCH  23  31
ATOM     31  C   UNL     1       4.307  -6.901  -6.673  0.00  0.00    +0.112 C 
BRANCH  31  32
ATOM     32  C   UNL     1       5.250  -6.386  -7.763  0.00  0.00    +0.047 C 
BRANCH  32  33
ATOM     33  C   UNL     1       5.152  -7.293  -8.991  0.00  0.00    +0.161 C 
BRANCH  33  34
ATOM     34  O   UNL     1       6.032  -6.812 -10.009  0.00  0.00    -0.383 OA
ATOM     35  C   UNL     1       6.018  -7.593 -11.206  0.00  0.00    +0.193 C 
ENDBRANCH  33  34
ENDBRANCH  32  33
ENDBRANCH  31  32
ENDBRANCH  23  31
ENDBRANCH  22  23
ENDBRANCH  10  22
TORSDOF 10
