REMARK  Name = ZINC17702495
REMARK  12 active torsions:
REMARK  status: ('A' for Active; 'I' for Inactive)
REMARK    1  A    between atoms: C_1  and  C_2
REMARK    2  A    between atoms: C_4  and  C_33
REMARK    3  A    between atoms: C_5  and  S_9
REMARK    4  A    between atoms: C_6  and  C_8
REMARK    5  A    between atoms: S_9  and  N_12
REMARK    6  A    between atoms: C_15  and  C_18
REMARK    7  A    between atoms: N_20  and  C_21
REMARK    8  A    between atoms: C_21  and  C_22
REMARK    9  A    between atoms: C_22  and  C_24
REMARK   10  A    between atoms: C_22  and  N_67
REMARK   11  A    between atoms: C_31  and  N_67
REMARK   12  A    between atoms: C_32  and  N_67
REMARK                            x       y       z     vdW  Elec       q    Type
REMARK                         _______ _______ _______ _____ _____    ______ ____
ROOT
ATOM      1  N   UNL     1      -4.317   8.977  -1.024  0.00  0.00    -0.177 NA
ATOM      2  C   UNL     1      -3.650   9.708  -2.110  0.00  0.00    +0.110 C 
ATOM      3  C   UNL     1      -4.434   9.500  -3.405  0.00  0.00    +0.030 C 
ATOM      4  C   UNL     1      -4.598   8.001  -3.664  0.00  0.00    +0.077 C 
ATOM      5  C   UNL     1      -5.384   7.366  -2.514  0.00  0.00    +0.030 C 
ATOM      6  C   UNL     1      -4.606   7.548  -1.207  0.00  0.00    +0.110 C 
ENDROOT
BRANCH   4   7
ATOM      7  C   UNL     1      -5.345   7.793  -4.957  0.00  0.00    +0.216 C 
ATOM      8  O   UNL     1      -6.401   7.197  -4.958  0.00  0.00    -0.276 OA
ATOM      9  N   UNL     1      -4.838   8.271  -6.111  0.00  0.00    -0.316 N 
ATOM     10  H   UNL     1      -3.994   8.748  -6.110  0.00  0.00    +0.149 HD
BRANCH   9  11
ATOM     11  C   UNL     1      -5.564   8.069  -7.368  0.00  0.00    +0.093 C 
BRANCH  11  12
ATOM     12  C   UNL     1      -4.690   8.521  -8.539  0.00  0.00    -0.020 C 
BRANCH  12  13
ATOM     13  C   UNL     1      -5.492   8.470  -9.814  0.00  0.00    -0.041 A 
ATOM     14  C   UNL     1      -5.311   7.428 -10.704  0.00  0.00    +0.003 A 
ATOM     15  C   UNL     1      -6.046   7.382 -11.873  0.00  0.00    +0.000 A 
ATOM     16  C   UNL     1      -6.965   8.376 -12.153  0.00  0.00    +0.001 A 
ATOM     17  C   UNL     1      -7.148   9.418 -11.263  0.00  0.00    +0.020 A 
ATOM     18  C   UNL     1      -6.415   9.463 -10.090  0.00  0.00    +0.043 A 
ATOM     19 CL   UNL     1      -6.649  10.767  -8.969  0.00  0.00    -0.083 Cl
ENDBRANCH  12  13
BRANCH  12  22
ATOM     20  C   UNL     1      -2.417   8.098  -7.818  0.00  0.00    -0.096 C 
ATOM     21  C   UNL     1      -3.892   6.245  -8.322  0.00  0.00    -0.096 C 
ATOM     22  N   UNL     1      -3.520   7.629  -8.683  0.00  0.00    +0.382 N 
ATOM     23  H   UNL     1      -3.206   7.646  -9.661  0.00  0.00    -0.082 HD
ENDBRANCH  12  22
ENDBRANCH  11  12
ENDBRANCH   9  11
ENDBRANCH   4   7
BRANCH   1  24
ATOM     24  S   UNL     1      -4.742   9.751   0.377  0.00  0.00    +0.061 S 
ATOM     25  O   UNL     1      -5.809   9.005   0.945  0.00  0.00    -0.153 OA
ATOM     26  O   UNL     1      -4.861  11.131   0.058  0.00  0.00    -0.153 OA
BRANCH  24  31
ATOM     27  C   UNL     1      -0.076   9.256   4.171  0.00  0.00    +0.044 C 
ATOM     28  C   UNL     1      -1.242   9.380   3.224  0.00  0.00    -0.050 A 
ATOM     29  C   UNL     1      -2.285   8.475   3.289  0.00  0.00    +0.008 A 
ATOM     30  C   UNL     1      -3.352   8.586   2.417  0.00  0.00    -0.024 A 
ATOM     31  C   UNL     1      -3.380   9.607   1.485  0.00  0.00    +0.111 A 
ATOM     32  C   UNL     1      -2.337  10.512   1.420  0.00  0.00    -0.024 A 
ATOM     33  C   UNL     1      -1.268  10.399   2.290  0.00  0.00    +0.008 A 
ATOM     34  C   UNL     1      -2.365  11.622   0.402  0.00  0.00    +0.046 C 
ATOM     35  C   UNL     1      -4.486   7.596   2.484  0.00  0.00    +0.046 C 
ENDBRANCH  24  31
ENDBRANCH   1  24
TORSDOF 7
