REMARK  Name = ZINC39667585
REMARK  9 active torsions:
REMARK  status: ('A' for Active; 'I' for Inactive)
REMARK    1  A    between atoms: C_1  and  C_2
REMARK    2  A    between atoms: C_2  and  C_3
REMARK    3  A    between atoms: C_3  and  C_5
REMARK    4  A    between atoms: C_3  and  C_11
REMARK    5  A    between atoms: C_15  and  C_24
REMARK    6  A    between atoms: N_26  and  C_27
REMARK    7  A    between atoms: C_27  and  C_28
REMARK    8  A    between atoms: C_32  and  C_35
REMARK    9  A    between atoms: C_33  and  C_34
REMARK                            x       y       z     vdW  Elec       q    Type
REMARK                         _______ _______ _______ _____ _____    ______ ____
ROOT
ATOM      1  C   UNL     1      -1.981  -0.064  -0.962  0.00  0.00    +0.223 C 
ATOM      2  O   UNL     1      -2.624  -0.890  -1.574  0.00  0.00    -0.275 OA
ATOM      3  N   UNL     1      -2.059   1.238  -1.301  0.00  0.00    -0.300 N 
ATOM      4  C   UNL     1      -1.424   2.393  -0.624  0.00  0.00    +0.121 C 
ATOM      5  C   UNL     1      -0.963   3.315  -1.775  0.00  0.00    +0.100 C 
ATOM      6  C   UNL     1      -1.871   2.947  -2.961  0.00  0.00    -0.004 C 
ATOM      7  C   UNL     1      -2.796   1.837  -2.440  0.00  0.00    +0.115 C 
ATOM      8  C   UNL     1      -1.034   2.425  -4.125  0.00  0.00    -0.010 C 
ATOM      9  C   UNL     1      -1.953   2.120  -5.311  0.00  0.00    -0.082 C 
ATOM     10  N   UNL     1      -2.669   3.340  -5.704  0.00  0.00    +0.379 N 
ATOM     11  C   UNL     1      -3.542   3.783  -4.611  0.00  0.00    -0.082 C 
ATOM     12  C   UNL     1      -2.690   4.158  -3.395  0.00  0.00    -0.010 C 
ATOM     13  H   UNL     1      -2.001   4.066  -5.915  0.00  0.00    -0.086 HD
ATOM     14  H   UNL     1      -3.227   3.151  -6.523  0.00  0.00    -0.086 HD
ENDROOT
BRANCH   5  15
ATOM     15  C   UNL     1      -1.150   4.761  -1.397  0.00  0.00    +0.218 C 
ATOM     16  O   UNL     1      -2.047   5.080  -0.644  0.00  0.00    -0.275 OA
ATOM     17  N   UNL     1      -0.322   5.701  -1.894  0.00  0.00    -0.311 N 
ATOM     18  H   UNL     1       0.395   5.446  -2.495  0.00  0.00    +0.149 HD
BRANCH  17  19
ATOM     19  C   UNL     1      -0.504   7.107  -1.526  0.00  0.00    +0.139 C 
BRANCH  19  20
ATOM     20  C   UNL     1       0.544   7.946  -2.211  0.00  0.00    -0.027 A 
ATOM     21  C   UNL     1       1.670   8.349  -1.516  0.00  0.00    +0.005 A 
ATOM     22  C   UNL     1       2.631   9.118  -2.145  0.00  0.00    +0.001 A 
ATOM     23  C   UNL     1       2.467   9.484  -3.468  0.00  0.00    +0.003 A 
ATOM     24  C   UNL     1       1.342   9.080  -4.162  0.00  0.00    -0.047 A 
ATOM     25  C   UNL     1       0.383   8.307  -3.535  0.00  0.00    -0.043 A 
ATOM     26  C   UNL     1      -0.841   7.863  -4.294  0.00  0.00    +0.044 C 
ATOM     27  C   UNL     1       1.164   9.479  -5.604  0.00  0.00    +0.044 C 
ENDBRANCH  19  20
ENDBRANCH  17  19
ENDBRANCH   5  15
BRANCH   1  28
ATOM     28  C   UNL     1      -1.094  -0.493   0.179  0.00  0.00    +0.105 C 
BRANCH  28  29
ATOM     29  C   UNL     1      -1.897  -0.528   1.454  0.00  0.00    -0.036 A 
ATOM     30  C   UNL     1      -2.994  -1.364   1.557  0.00  0.00    +0.004 A 
ATOM     31  C   UNL     1      -3.731  -1.397   2.726  0.00  0.00    +0.000 A 
ATOM     32  C   UNL     1      -3.371  -0.594   3.792  0.00  0.00    +0.000 A 
ATOM     33  C   UNL     1      -2.274   0.241   3.690  0.00  0.00    +0.000 A 
ATOM     34  C   UNL     1      -1.534   0.270   2.522  0.00  0.00    +0.004 A 
ENDBRANCH  28  29
BRANCH  28  36
ATOM     35  C   UNL     1       0.398  -1.821  -1.322  0.00  0.00    +0.005 C 
ATOM     36  C   UNL     1      -0.532  -1.887  -0.108  0.00  0.00    +0.014 C 
ENDBRANCH  28  36
ENDBRANCH   1  28
TORSDOF 6
