REMARK  Name = ZINC14536267
REMARK  14 active torsions:
REMARK  status: ('A' for Active; 'I' for Inactive)
REMARK    1  A    between atoms: C_1  and  C_2
REMARK    2  A    between atoms: C_2  and  N_73
REMARK    3  A    between atoms: C_6  and  C_8
REMARK    4  A    between atoms: C_8  and  N_9
REMARK    5  A    between atoms: C_10  and  C_12
REMARK    6  A    between atoms: N_15  and  C_17
REMARK    7  A    between atoms: C_17  and  C_18
REMARK    8  A    between atoms: C_18  and  O_19
REMARK    9  A    between atoms: O_19  and  C_20
REMARK   10  A    between atoms: C_25  and  C_27
REMARK   11  A    between atoms: C_29  and  C_32
REMARK   12  A    between atoms: C_32  and  C_33
REMARK   13  A    between atoms: C_33  and  C_34
REMARK   14  A    between atoms: C_33  and  C_35
REMARK                            x       y       z     vdW  Elec       q    Type
REMARK                         _______ _______ _______ _____ _____    ______ ____
ROOT
ATOM      1  C   UNL     1       5.813  -4.133   1.747  0.00  0.00    +0.152 A 
ATOM      2  C   UNL     1       5.272  -2.993   1.132  0.00  0.00    +0.023 A 
ATOM      3  C   UNL     1       5.573  -1.949   1.944  0.00  0.00    +0.046 A 
ATOM      4  N   UNL     1       6.263  -2.446   2.986  0.00  0.00    -0.265 N 
ATOM      5  N   UNL     1       6.396  -3.721   2.861  0.00  0.00    -0.166 NA
ATOM      6  C   UNL     1       5.174  -0.521   1.674  0.00  0.00    +0.074 C 
ATOM      7  C   UNL     1       4.808  -0.384   0.185  0.00  0.00    +0.114 C 
ATOM      8  N   UNL     1       3.944  -1.508  -0.203  0.00  0.00    -0.291 N 
ATOM      9  C   UNL     1       4.506  -2.871  -0.158  0.00  0.00    +0.147 C 
ATOM     10  C   UNL     1       2.671  -1.299  -0.595  0.00  0.00    +0.269 C 
ATOM     11  O   UNL     1       2.245  -0.165  -0.693  0.00  0.00    -0.268 OA
ENDROOT
BRANCH  10  12
ATOM     12  C   UNL     1       1.792  -2.452  -0.908  0.00  0.00    +0.168 A 
ATOM     13  C   UNL     1       0.406  -2.409  -1.223  0.00  0.00    +0.080 A 
ATOM     14  C   UNL     1       0.077  -3.706  -1.422  0.00  0.00    +0.138 A 
ATOM     15  O   UNL     1       1.195  -4.420  -1.232  0.00  0.00    -0.359 OA
ATOM     16  N   UNL     1       2.135  -3.715  -0.948  0.00  0.00    -0.073 NA
BRANCH  14  17
ATOM     17  C   UNL     1      -1.284  -4.245  -1.781  0.00  0.00    +0.080 C 
BRANCH  17  18
ATOM     18  C   UNL     1      -1.429  -4.293  -3.303  0.00  0.00    -0.010 C 
ATOM     19  C   UNL     1      -2.759  -4.954  -3.669  0.00  0.00    +0.007 C 
ATOM     20  C   UNL     1      -1.396  -2.869  -3.864  0.00  0.00    +0.007 C 
ENDBRANCH  17  18
ENDBRANCH  14  17
ENDBRANCH  10  12
BRANCH   1  22
ATOM     21  N   UNL     1       6.316  -6.519   1.952  0.00  0.00    -0.312 N 
ATOM     22  C   UNL     1       5.745  -5.521   1.248  0.00  0.00    +0.264 C 
ATOM     23  O   UNL     1       5.176  -5.764   0.202  0.00  0.00    -0.268 OA
ATOM     24  H   UNL     1       6.771  -6.325   2.787  0.00  0.00    +0.149 HD
BRANCH  21  25
ATOM     25  C   UNL     1       6.248  -7.896   1.457  0.00  0.00    +0.089 C 
BRANCH  25  29
ATOM     26  C   UNL     1       9.352  -9.634   2.300  0.00  0.00    -0.078 C 
ATOM     27  C   UNL     1       8.386 -10.833   2.398  0.00  0.00    -0.020 C 
ATOM     28  C   UNL     1       7.060 -10.261   1.833  0.00  0.00    -0.016 C 
ATOM     29  C   UNL     1       7.105  -8.800   2.346  0.00  0.00    -0.051 C 
ATOM     30  N   UNL     1       8.527  -8.417   2.237  0.00  0.00    +0.382 N 
ATOM     31  H   UNL     1       8.684  -7.946   1.339  0.00  0.00    -0.081 HD
BRANCH  30  33
ATOM     32  C   UNL     1      10.390  -7.184   3.267  0.00  0.00    -0.017 C 
ATOM     33  C   UNL     1       8.893  -7.491   3.341  0.00  0.00    -0.082 C 
ENDBRANCH  30  33
ENDBRANCH  25  29
ENDBRANCH  21  25
ENDBRANCH   1  22
BRANCH   4  34
ATOM     34  C   UNL     1       6.787  -1.652   4.099  0.00  0.00    +0.171 C 
BRANCH  34  35
ATOM     35  C   UNL     1       5.737  -1.574   5.209  0.00  0.00    +0.182 C 
BRANCH  35  36
ATOM     36  O   UNL     1       6.249  -0.800   6.296  0.00  0.00    -0.381 OA
ATOM     37  C   UNL     1       5.341  -0.664   7.391  0.00  0.00    +0.194 C 
ENDBRANCH  35  36
ENDBRANCH  34  35
ENDBRANCH   4  34
TORSDOF 10
