REMARK  Name = ZINC59121753
REMARK  9 active torsions:
REMARK  status: ('A' for Active; 'I' for Inactive)
REMARK    1  A    between atoms: C_1  and  C_2
REMARK    2  A    between atoms: C_2  and  C_3
REMARK    3  A    between atoms: C_3  and  N_4
REMARK    4  A    between atoms: N_4  and  C_5
REMARK    5  A    between atoms: N_4  and  C_21
REMARK    6  A    between atoms: C_5  and  C_6
REMARK    7  A    between atoms: N_8  and  N_9
REMARK    8  A    between atoms: C_21  and  C_23
REMARK    9  A    between atoms: C_21  and  C_24
REMARK                            x       y       z     vdW  Elec       q    Type
REMARK                         _______ _______ _______ _____ _____    ______ ____
ROOT
ATOM      1  C   UNL     1       0.608  -1.767   1.542  0.00  0.00    +0.213 C 
ATOM      2  O   UNL     1       1.106  -1.139   0.632  0.00  0.00    -0.276 OA
ATOM      3  N   UNL     1       1.272  -1.907   2.707  0.00  0.00    -0.225 N 
ATOM      4  H   UNL     1       0.874  -2.409   3.435  0.00  0.00    +0.173 HD
ENDROOT
BRANCH   3   5
ATOM      5  N   UNL     1       2.537  -1.327   2.865  0.00  0.00    -0.137 N 
ATOM      6  C   UNL     1       3.696  -2.018   2.845  0.00  0.00    +0.263 C 
ATOM      7  O   UNL     1       3.835  -3.213   2.692  0.00  0.00    -0.271 OA
ATOM      8  C   UNL     1       4.784  -0.990   3.053  0.00  0.00    +0.114 C 
ATOM      9  C   UNL     1       5.718  -0.953   1.848  0.00  0.00    +0.035 C 
ATOM     10  C   UNL     1       6.792   0.116   2.066  0.00  0.00    +0.003 C 
ATOM     11  C   UNL     1       7.582  -0.209   3.335  0.00  0.00    +0.000 C 
ATOM     12  C   UNL     1       6.636  -0.219   4.538  0.00  0.00    +0.003 C 
ATOM     13  C   UNL     1       5.561  -1.289   4.330  0.00  0.00    +0.035 C 
ATOM     14  N   UNL     1       4.055   0.279   3.179  0.00  0.00    -0.284 N 
ATOM     15  C   UNL     1       2.748  -0.018   3.051  0.00  0.00    +0.326 C 
ATOM     16  O   UNL     1       1.858   0.809   3.101  0.00  0.00    -0.251 OA
ATOM     17  H   UNL     1       4.440   1.158   3.322  0.00  0.00    +0.151 HD
ENDBRANCH   3   5
BRANCH   1  18
ATOM     18  C   UNL     1      -0.754  -2.390   1.372  0.00  0.00    +0.021 C 
BRANCH  18  19
ATOM     19  N   UNL     1      -1.326  -1.972   0.085  0.00  0.00    +0.390 N 
ATOM     20  H   UNL     1      -0.669  -2.167  -0.655  0.00  0.00    -0.080 HD
BRANCH  19  21
ATOM     21  C   UNL     1      -2.572  -2.710  -0.160  0.00  0.00    -0.039 C 
ATOM     22  C   UNL     1      -3.168  -2.274  -1.500  0.00  0.00    -0.008 C 
BRANCH  21  23
ATOM     23  C   UNL     1      -2.281  -4.188  -0.196  0.00  0.00    -0.047 A 
ATOM     24  C   UNL     1      -0.992  -4.634  -0.421  0.00  0.00    +0.003 A 
ATOM     25  C   UNL     1      -0.725  -5.989  -0.455  0.00  0.00    +0.000 A 
ATOM     26  C   UNL     1      -1.748  -6.901  -0.262  0.00  0.00    +0.001 A 
ATOM     27  C   UNL     1      -3.036  -6.456  -0.037  0.00  0.00    +0.015 A 
ATOM     28  C   UNL     1      -3.303  -5.099   0.001  0.00  0.00    +0.019 A 
ATOM     29 BR   UNL     1      -5.065  -4.490   0.317  0.00  0.00    -0.050 Br
ENDBRANCH  21  23
ENDBRANCH  19  21
BRANCH  19  30
ATOM     30  C   UNL     1      -1.610  -0.531   0.121  0.00  0.00    -0.078 C 
BRANCH  30  32
ATOM     31  C   UNL     1      -2.969   1.254   1.221  0.00  0.00    +0.002 C 
ATOM     32  C   UNL     1      -2.707  -0.252   1.150  0.00  0.00    -0.022 C 
ENDBRANCH  30  32
ENDBRANCH  19  30
ENDBRANCH  18  19
ENDBRANCH   1  18
TORSDOF 7
