REMARK  Name = ZINC00860080
REMARK  14 active torsions:
REMARK  status: ('A' for Active; 'I' for Inactive)
REMARK    1  A    between atoms: C_1  and  C_2
REMARK    2  A    between atoms: C_2  and  O_3
REMARK    3  A    between atoms: O_3  and  C_4
REMARK    4  A    between atoms: C_4  and  C_6
REMARK    5  A    between atoms: C_12  and  C_13
REMARK    6  A    between atoms: C_18  and  O_19
REMARK    7  A    between atoms: O_19  and  C_20
REMARK    8  A    between atoms: C_22  and  N_38
REMARK    9  A    between atoms: C_23  and  C_34
REMARK   10  A    between atoms: C_24  and  C_26
REMARK   11  A    between atoms: C_31  and  O_32
REMARK   12  A    between atoms: O_32  and  C_33
REMARK   13  A    between atoms: C_34  and  O_36
REMARK   14  A    between atoms: O_36  and  C_37
REMARK                            x       y       z     vdW  Elec       q    Type
REMARK                         _______ _______ _______ _____ _____    ______ ____
ROOT
ATOM      1  C   UNL     1      -0.403  -4.754   0.296  0.00  0.00    +0.079 C 
ATOM      2  C   UNL     1      -1.659  -5.265   0.102  0.00  0.00    +0.100 A 
ATOM      3  N   UNL     1      -2.822  -4.530   0.215  0.00  0.00    -0.257 N 
ATOM      4  C   UNL     1      -3.988  -5.169  -0.006  0.00  0.00    +0.271 A 
ATOM      5  O   UNL     1      -5.048  -4.576   0.078  0.00  0.00    -0.266 OA
ATOM      6  C   UNL     1      -3.951  -6.594  -0.348  0.00  0.00    +0.080 A 
ATOM      7  C   UNL     1      -4.977  -7.444  -0.613  0.00  0.00    +0.032 C 
ATOM      8  S   UNL     1      -2.194  -6.909  -0.326  0.00  0.00    -0.065 S 
ATOM      9  C   UNL     1      -2.741  -3.175   0.547  0.00  0.00    +0.115 C 
ATOM     10  C   UNL     1      -1.576  -2.522   0.770  0.00  0.00    +0.087 C 
ATOM     11  C   UNL     1      -0.273  -3.286   0.652  0.00  0.00    +0.102 C 
ENDROOT
BRANCH   7  12
ATOM     12  C   UNL     1      -4.718  -8.881  -0.767  0.00  0.00    +0.018 A 
ATOM     13  C   UNL     1      -3.529  -9.438  -0.281  0.00  0.00    +0.011 A 
ATOM     14  C   UNL     1      -3.296 -10.788  -0.426  0.00  0.00    +0.001 A 
ATOM     15  C   UNL     1      -4.228 -11.596  -1.058  0.00  0.00    +0.004 A 
ATOM     16  C   UNL     1      -5.403 -11.058  -1.547  0.00  0.00    +0.046 A 
ATOM     17  C   UNL     1      -5.659  -9.704  -1.407  0.00  0.00    +0.127 A 
BRANCH  17  18
ATOM     18  O   UNL     1      -6.813  -9.175  -1.888  0.00  0.00    -0.495 OA
ATOM     19  C   UNL     1      -7.722 -10.073  -2.527  0.00  0.00    +0.277 C 
ENDBRANCH  17  18
ENDBRANCH   7  12
BRANCH  11  20
ATOM     20  C   UNL     1       0.574  -2.615  -0.397  0.00  0.00    +0.007 A 
ATOM     21  C   UNL     1       0.112  -2.507  -1.694  0.00  0.00    +0.008 A 
ATOM     22  C   UNL     1       0.888  -1.890  -2.658  0.00  0.00    +0.001 A 
ATOM     23  C   UNL     1       2.130  -1.381  -2.325  0.00  0.00    +0.004 A 
ATOM     24  C   UNL     1       2.597  -1.486  -1.030  0.00  0.00    +0.046 A 
ATOM     25  C   UNL     1       1.817  -2.100  -0.060  0.00  0.00    +0.124 A 
BRANCH  25  26
ATOM     26  O   UNL     1       2.272  -2.200   1.216  0.00  0.00    -0.495 OA
ATOM     27  C   UNL     1       3.561  -1.647   1.491  0.00  0.00    +0.277 C 
ENDBRANCH  25  26
ENDBRANCH  11  20
BRANCH   9  28
ATOM     28  N   UNL     1      -3.908  -2.466   0.653  0.00  0.00    -0.344 N 
ATOM     29  H   UNL     1      -3.980  -1.586   0.252  0.00  0.00    +0.144 HD
ATOM     30  H   UNL     1      -4.664  -2.845   1.129  0.00  0.00    +0.144 HD
ENDBRANCH   9  28
BRANCH   1  31
ATOM     31  C   UNL     1       0.732  -5.565   0.163  0.00  0.00    +0.339 C 
ATOM     32  O   UNL     1       0.610  -6.742  -0.128  0.00  0.00    -0.245 OA
BRANCH  31  33
ATOM     33  O   UNL     1       1.963  -5.042   0.358  0.00  0.00    -0.462 OA
BRANCH  33  35
ATOM     34  C   UNL     1       4.374  -5.161   0.464  0.00  0.00    +0.048 C 
ATOM     35  C   UNL     1       3.075  -5.927   0.207  0.00  0.00    +0.229 C 
ENDBRANCH  33  35
ENDBRANCH  31  33
ENDBRANCH   1  31
BRANCH  10  36
ATOM     36  C   UNL     1      -1.576  -1.158   1.099  0.00  0.00    +0.339 C 
ATOM     37  O   UNL     1      -2.625  -0.540   1.137  0.00  0.00    -0.245 OA
BRANCH  36  38
ATOM     38  O   UNL     1      -0.412  -0.530   1.374  0.00  0.00    -0.465 OA
ATOM     39  C   UNL     1      -0.486   0.859   1.702  0.00  0.00    +0.280 C 
ENDBRANCH  36  38
ENDBRANCH  10  36
TORSDOF 10
