REMARK  Name = ZINC33258655
REMARK  8 active torsions:
REMARK  status: ('A' for Active; 'I' for Inactive)
REMARK    1  A    between atoms: C_1  and  C_2
REMARK    2  A    between atoms: C_6  and  N_9
REMARK    3  A    between atoms: C_7  and  C_8
REMARK    4  A    between atoms: C_10  and  C_12
REMARK    5  A    between atoms: N_14  and  C_18
REMARK    6  A    between atoms: C_16  and  C_17
REMARK    7  A    between atoms: C_21  and  C_24
REMARK    8  A    between atoms: C_26  and  C_29
REMARK                            x       y       z     vdW  Elec       q    Type
REMARK                         _______ _______ _______ _____ _____    ______ ____
ROOT
ATOM      1  C   UNL     1      -6.568  -4.167   0.029  0.00  0.00    +0.078 A 
ATOM      2  C   UNL     1      -5.788  -3.027   0.019  0.00  0.00    +0.127 A 
ATOM      3  N   UNL     1      -4.502  -3.421  -0.005  0.00  0.00    -0.239 N 
ATOM      4  N   UNL     1      -4.467  -4.820  -0.016  0.00  0.00    -0.171 NA
ATOM      5  C   UNL     1      -5.690  -5.274   0.010  0.00  0.00    +0.072 A 
ATOM      6  C   UNL     1      -6.095  -6.726   0.013  0.00  0.00    +0.068 C 
ENDROOT
BRANCH   3   7
ATOM      7  C   UNL     1      -3.387  -2.575  -0.022  0.00  0.00    +0.065 A 
ATOM      8  C   UNL     1      -2.107  -3.114  -0.047  0.00  0.00    +0.028 A 
ATOM      9  C   UNL     1      -1.007  -2.282  -0.063  0.00  0.00    +0.014 A 
ATOM     10  C   UNL     1      -1.181  -0.899  -0.056  0.00  0.00    +0.023 A 
ATOM     11  C   UNL     1      -2.466  -0.360  -0.027  0.00  0.00    +0.014 A 
ATOM     12  C   UNL     1      -3.563  -1.196  -0.015  0.00  0.00    +0.028 A 
BRANCH  10  13
ATOM     13  C   UNL     1       0.000  -0.002  -0.073  0.00  0.00    +0.202 A 
ATOM     14  N   UNL     1      -0.018   1.350  -0.069  0.00  0.00    -0.191 NA
ATOM     15  C   UNL     1       1.238   1.720  -0.089  0.00  0.00    +0.231 A 
ATOM     16  O   UNL     1       1.976   0.605  -0.106  0.00  0.00    -0.337 OA
ATOM     17  N   UNL     1       1.255  -0.370  -0.096  0.00  0.00    -0.056 NA
BRANCH  15  18
ATOM     18  C   UNL     1       1.755   3.135  -0.095  0.00  0.00    +0.078 C 
ATOM     19  C   UNL     1       3.254   3.339  -0.323  0.00  0.00    +0.014 C 
ATOM     20  C   UNL     1       2.655   3.563   1.067  0.00  0.00    +0.014 C 
ENDBRANCH  15  18
ENDBRANCH  10  13
ENDBRANCH   3   7
BRANCH   1  22
ATOM     21  N   UNL     1      -8.755  -3.076   0.071  0.00  0.00    -0.281 N 
ATOM     22  C   UNL     1      -8.041  -4.219   0.055  0.00  0.00    +0.252 C 
ATOM     23  O   UNL     1      -8.612  -5.293   0.061  0.00  0.00    -0.270 OA
ATOM     24  H   UNL     1      -8.242  -2.107   0.157  0.00  0.00    +0.155 HD
BRANCH  21  30
ATOM     25  C   UNL     1     -13.126  -1.007   0.960  0.00  0.00    +0.044 C 
ATOM     26  C   UNL     1     -12.293  -2.133   0.401  0.00  0.00    -0.046 A 
ATOM     27  C   UNL     1     -12.910  -3.213  -0.203  0.00  0.00    +0.004 A 
ATOM     28  C   UNL     1     -12.150  -4.248  -0.716  0.00  0.00    +0.002 A 
ATOM     29  C   UNL     1     -10.772  -4.206  -0.627  0.00  0.00    +0.023 A 
ATOM     30  C   UNL     1     -10.150  -3.122  -0.021  0.00  0.00    +0.037 A 
ATOM     31  C   UNL     1     -10.917  -2.087   0.498  0.00  0.00    -0.026 A 
ATOM     32  C   UNL     1     -10.246  -0.911   1.162  0.00  0.00    +0.046 C 
ENDBRANCH  21  30
ENDBRANCH   1  22
TORSDOF 5
