REMARK  Name = ZINC39675871
REMARK  8 active torsions:
REMARK  status: ('A' for Active; 'I' for Inactive)
REMARK    1  A    between atoms: C_1  and  N_2
REMARK    2  A    between atoms: N_2  and  C_3
REMARK    3  A    between atoms: N_2  and  C_4
REMARK    4  A    between atoms: C_4  and  C_6
REMARK    5  A    between atoms: C_4  and  C_30
REMARK    6  A    between atoms: C_6  and  N_7
REMARK    7  A    between atoms: C_8  and  C_10
REMARK    8  A    between atoms: C_21  and  C_23
REMARK                            x       y       z     vdW  Elec       q    Type
REMARK                         _______ _______ _______ _____ _____    ______ ____
ROOT
ATOM      1  C   UNL     1      -0.429  -2.368   2.231  0.00  0.00    +0.100 C 
ATOM      2  C   UNL     1       0.810  -1.484   1.963  0.00  0.00    +0.121 C 
ATOM      3  N   UNL     1       1.958  -2.301   2.422  0.00  0.00    -0.300 N 
ATOM      4  C   UNL     1       1.624  -3.681   1.993  0.00  0.00    +0.115 C 
ATOM      5  C   UNL     1       0.109  -3.808   2.248  0.00  0.00    -0.004 C 
ATOM      6  C   UNL     1      -0.544  -4.630   1.141  0.00  0.00    -0.010 C 
ATOM      7  C   UNL     1      -0.037  -6.073   1.216  0.00  0.00    -0.082 C 
ATOM      8  N   UNL     1      -0.361  -6.640   2.531  0.00  0.00    +0.379 N 
ATOM      9  C   UNL     1       0.346  -5.901   3.583  0.00  0.00    -0.082 C 
ATOM     10  C   UNL     1      -0.145  -4.450   3.609  0.00  0.00    -0.010 C 
ATOM     11  C   UNL     1       3.058  -1.885   3.081  0.00  0.00    +0.219 C 
ATOM     12  O   UNL     1       3.146  -0.731   3.446  0.00  0.00    -0.275 OA
ATOM     13  H   UNL     1      -1.356  -6.577   2.687  0.00  0.00    -0.086 HD
ATOM     14  H   UNL     1      -0.081  -7.609   2.556  0.00  0.00    -0.086 HD
ENDROOT
BRANCH  11  15
ATOM     15  C   UNL     1       4.177  -2.852   3.365  0.00  0.00    +0.079 C 
ATOM     16  C   UNL     1       5.196  -2.200   4.309  0.00  0.00    +0.017 C 
ATOM     17  C   UNL     1       6.221  -3.258   4.721  0.00  0.00    +0.027 C 
ATOM     18  C   UNL     1       6.741  -3.974   3.508  0.00  0.00    -0.031 C 
ATOM     19  C   UNL     1       6.159  -3.958   2.352  0.00  0.00    -0.030 C 
ATOM     20  C   UNL     1       4.886  -3.217   2.059  0.00  0.00    +0.039 C 
ENDBRANCH  11  15
BRANCH   1  22
ATOM     21  N   UNL     1      -2.755  -2.353   1.387  0.00  0.00    -0.316 N 
ATOM     22  C   UNL     1      -1.441  -2.199   1.127  0.00  0.00    +0.218 C 
ATOM     23  O   UNL     1      -1.074  -1.925   0.004  0.00  0.00    -0.275 OA
ATOM     24  H   UNL     1      -3.048  -2.572   2.286  0.00  0.00    +0.149 HD
BRANCH  21  25
ATOM     25  C   UNL     1      -3.739  -2.189   0.315  0.00  0.00    +0.093 C 
BRANCH  25  26
ATOM     26  C   UNL     1      -5.131  -2.544   0.841  0.00  0.00    -0.021 C 
BRANCH  26  27
ATOM     27  C   UNL     1      -5.186  -4.014   1.165  0.00  0.00    -0.059 A 
ATOM     28  C   UNL     1      -5.365  -4.939   0.153  0.00  0.00    +0.002 A 
ATOM     29  C   UNL     1      -5.416  -6.288   0.451  0.00  0.00    +0.000 A 
ATOM     30  C   UNL     1      -5.287  -6.712   1.760  0.00  0.00    +0.000 A 
ATOM     31  C   UNL     1      -5.107  -5.788   2.772  0.00  0.00    +0.000 A 
ATOM     32  C   UNL     1      -5.052  -4.439   2.474  0.00  0.00    +0.002 A 
ENDBRANCH  26  27
BRANCH  26  34
ATOM     33  C   UNL     1      -7.474  -2.552   0.329  0.00  0.00    -0.096 C 
ATOM     34  N   UNL     1      -6.136  -2.230  -0.184  0.00  0.00    +0.382 N 
ATOM     35  C   UNL     1      -6.069  -0.800  -0.514  0.00  0.00    -0.096 C 
ATOM     36  H   UNL     1      -5.953  -2.776  -1.012  0.00  0.00    -0.082 HD
ENDBRANCH  26  34
ENDBRANCH  25  26
ENDBRANCH  21  25
ENDBRANCH   1  22
TORSDOF 6
