REMARK  Name = ZINC20563733
REMARK  11 active torsions:
REMARK  status: ('A' for Active; 'I' for Inactive)
REMARK    1  A    between atoms: C_1  and  C_2
REMARK    2  A    between atoms: C_2  and  C_3
REMARK    3  A    between atoms: C_3  and  C_5
REMARK    4  A    between atoms: C_3  and  N_17
REMARK    5  A    between atoms: N_7  and  C_8
REMARK    6  A    between atoms: C_8  and  C_9
REMARK    7  A    between atoms: C_9  and  C_10
REMARK    8  A    between atoms: C_22  and  C_24
REMARK    9  A    between atoms: C_25  and  C_35
REMARK   10  A    between atoms: N_26  and  C_28
REMARK   11  A    between atoms: C_31  and  C_34
REMARK                            x       y       z     vdW  Elec       q    Type
REMARK                         _______ _______ _______ _____ _____    ______ ____
ROOT
ATOM      1  N   UNL     1       3.153   3.148   0.094  0.00  0.00    -0.215 N 
ATOM      2  C   UNL     1       1.812   3.081  -0.035  0.00  0.00    +0.296 A 
ATOM      3  O   UNL     1       1.132   4.090   0.011  0.00  0.00    -0.264 OA
ATOM      4  C   UNL     1       1.188   1.767  -0.232  0.00  0.00    +0.161 A 
ATOM      5  C   UNL     1       2.083   0.595  -0.276  0.00  0.00    +0.051 A 
ATOM      6  C   UNL     1       3.519   0.816  -0.122  0.00  0.00    +0.070 A 
ATOM      7  N   UNL     1       3.971   2.022   0.048  0.00  0.00    -0.172 NA
ATOM      8  C   UNL     1       4.472  -0.351  -0.160  0.00  0.00    +0.068 C 
ATOM      9  C   UNL     1       1.243  -0.473  -0.467  0.00  0.00    +0.052 A 
ATOM     10  N   UNL     1      -0.011   0.023  -0.528  0.00  0.00    -0.236 N 
ATOM     11  N   UNL     1      -0.026   1.302  -0.393  0.00  0.00    -0.161 NA
ATOM     12  C   UNL     1       1.643  -1.921  -0.585  0.00  0.00    +0.066 C 
ENDROOT
BRANCH  10  13
ATOM     13  C   UNL     1      -1.157  -0.760  -0.717  0.00  0.00    +0.066 A 
ATOM     14  C   UNL     1      -1.107  -1.882  -1.533  0.00  0.00    +0.028 A 
ATOM     15  C   UNL     1      -2.237  -2.655  -1.713  0.00  0.00    +0.005 A 
ATOM     16  C   UNL     1      -3.421  -2.307  -1.089  0.00  0.00    -0.050 A 
ATOM     17  C   UNL     1      -3.476  -1.186  -0.281  0.00  0.00    +0.005 A 
ATOM     18  C   UNL     1      -2.348  -0.412  -0.093  0.00  0.00    +0.028 A 
ATOM     19  C   UNL     1      -4.654  -3.149  -1.292  0.00  0.00    +0.044 C 
ENDBRANCH  10  13
BRANCH   1  20
ATOM     20  C   UNL     1       3.775   4.460   0.291  0.00  0.00    +0.196 C 
BRANCH  20  21
ATOM     21  C   UNL     1       4.739   4.733  -0.834  0.00  0.00    +0.238 C 
ATOM     22  O   UNL     1       4.892   3.913  -1.714  0.00  0.00    -0.273 OA
ATOM     23  N   UNL     1       5.431   5.889  -0.863  0.00  0.00    -0.313 N 
ATOM     24  H   UNL     1       5.293   6.633  -0.065  0.00  0.00    +0.149 HD
BRANCH  23  25
ATOM     25  C   UNL     1       6.369   6.155  -1.957  0.00  0.00    +0.109 C 
BRANCH  25  26
ATOM     26  C   UNL     1       7.018   7.525  -1.752  0.00  0.00    +0.054 C 
BRANCH  26  27
ATOM     27  C   UNL     1       7.982   7.798  -2.877  0.00  0.00    -0.046 A 
ATOM     28  C   UNL     1       9.306   7.416  -2.761  0.00  0.00    +0.005 A 
ATOM     29  C   UNL     1      10.189   7.662  -3.795  0.00  0.00    +0.020 A 
ATOM     30  C   UNL     1       9.751   8.299  -4.943  0.00  0.00    +0.041 A 
ATOM     31  C   UNL     1       8.428   8.685  -5.056  0.00  0.00    +0.020 A 
ATOM     32  C   UNL     1       7.544   8.435  -4.024  0.00  0.00    +0.005 A 
ATOM     33 CL   UNL     1      10.862   8.613  -6.239  0.00  0.00    -0.084 Cl
ENDBRANCH  26  27
ENDBRANCH  25  26
ENDBRANCH  23  25
ENDBRANCH  20  21
BRANCH  20  35
ATOM     34  C   UNL     1       3.533   4.320   2.774  0.00  0.00    +0.006 C 
ATOM     35  C   UNL     1       4.529   4.473   1.623  0.00  0.00    +0.033 C 
ENDBRANCH  20  35
ENDBRANCH   1  20
TORSDOF 7
