REMARK  Name = ZINC09876204
REMARK  9 active torsions:
REMARK  status: ('A' for Active; 'I' for Inactive)
REMARK    1  A    between atoms: C_1  and  C_2
REMARK    2  A    between atoms: C_5  and  N_9
REMARK    3  A    between atoms: C_6  and  C_8
REMARK    4  A    between atoms: C_13  and  C_15
REMARK    5  A    between atoms: C_15  and  S_16
REMARK    6  A    between atoms: S_16  and  C_17
REMARK    7  A    between atoms: C_20  and  C_28
REMARK    8  A    between atoms: N_21  and  C_22
REMARK    9  A    between atoms: C_28  and  N_64
REMARK                            x       y       z     vdW  Elec       q    Type
REMARK                         _______ _______ _______ _____ _____    ______ ____
ROOT
ATOM      1  C   UNL     1       2.567   4.529   0.055  0.00  0.00    +0.197 A 
ATOM      2  N   UNL     1       3.678   3.829   0.055  0.00  0.00    -0.122 NA
ATOM      3  N   UNL     1       4.692   4.618   0.055  0.00  0.00    -0.135 NA
ATOM      4  C   UNL     1       4.296   5.859   0.065  0.00  0.00    +0.122 A 
ATOM      5  N   UNL     1       2.926   5.848   0.066  0.00  0.00    -0.276 N 
ENDROOT
BRANCH   5   6
ATOM      6  C   UNL     1       2.070   6.960   0.076  0.00  0.00    +0.050 A 
ATOM      7  C   UNL     1       2.051   7.833  -1.003  0.00  0.00    +0.026 A 
ATOM      8  C   UNL     1       1.204   8.924  -0.992  0.00  0.00    +0.002 A 
ATOM      9  C   UNL     1       0.382   9.152   0.097  0.00  0.00    +0.000 A 
ATOM     10  C   UNL     1       0.403   8.286   1.175  0.00  0.00    +0.002 A 
ATOM     11  C   UNL     1       1.244   7.191   1.167  0.00  0.00    +0.026 A 
ENDBRANCH   5   6
BRANCH   1  12
ATOM     12  S   UNL     1       0.925   3.889   0.050  0.00  0.00    -0.076 S 
BRANCH  12  13
ATOM     13  C   UNL     1       1.280   2.114   0.035  0.00  0.00    +0.173 C 
BRANCH  13  18
ATOM     14  N   UNL     1      -1.137  -2.041   0.002  0.00  0.00    -0.269 N 
ATOM     15  C   UNL     1      -1.155  -0.694   0.013  0.00  0.00    +0.310 C 
ATOM     16  O   UNL     1      -2.216  -0.100   0.018  0.00  0.00    -0.252 OA
ATOM     17  N   UNL     1       0.003  -0.004   0.018  0.00  0.00    -0.239 N 
ATOM     18  C   UNL     1      -0.015   1.343   0.030  0.00  0.00    +0.231 C 
ATOM     19  O   UNL     1      -1.073   1.935   0.030  0.00  0.00    -0.274 OA
ATOM     20  H   UNL     1      -0.295  -2.514  -0.085  0.00  0.00    +0.156 HD
ATOM     21  H   UNL     1       0.849  -0.478   0.014  0.00  0.00    +0.159 HD
BRANCH  14  26
ATOM     22  C   UNL     1      -5.989  -4.946   0.460  0.00  0.00    +0.044 C 
ATOM     23  C   UNL     1      -4.700  -4.175   0.339  0.00  0.00    -0.050 A 
ATOM     24  C   UNL     1      -4.614  -2.891   0.845  0.00  0.00    +0.005 A 
ATOM     25  C   UNL     1      -3.435  -2.181   0.735  0.00  0.00    +0.024 A 
ATOM     26  C   UNL     1      -2.334  -2.758   0.115  0.00  0.00    +0.038 A 
ATOM     27  C   UNL     1      -2.425  -4.045  -0.397  0.00  0.00    -0.029 A 
ATOM     28  C   UNL     1      -3.606  -4.752  -0.279  0.00  0.00    +0.008 A 
ATOM     29  C   UNL     1      -1.235  -4.673  -1.075  0.00  0.00    +0.045 C 
ENDBRANCH  14  26
ENDBRANCH  13  18
ENDBRANCH  12  13
ENDBRANCH   1  12
BRANCH   4  30
ATOM     30  C   UNL     1       5.180   7.079   0.076  0.00  0.00    -0.001 C 
BRANCH  30  36
ATOM     31  C   UNL     1       4.247   7.904   2.152  0.00  0.00    -0.078 C 
ATOM     32  C   UNL     1       4.556   8.157   3.629  0.00  0.00    -0.019 C 
ATOM     33  C   UNL     1       5.643   9.229   3.742  0.00  0.00    -0.004 C 
ATOM     34  C   UNL     1       6.886   8.767   2.977  0.00  0.00    -0.019 C 
ATOM     35  C   UNL     1       6.510   8.496   1.519  0.00  0.00    -0.078 C 
ATOM     36  N   UNL     1       5.478   7.439   1.477  0.00  0.00    +0.384 N 
ATOM     37  H   UNL     1       5.832   6.609   1.967  0.00  0.00    -0.081 HD
ENDBRANCH  30  36
ENDBRANCH   4  30
TORSDOF 7
