REMARK  Name = ZINC48182012
REMARK  8 active torsions:
REMARK  status: ('A' for Active; 'I' for Inactive)
REMARK    1  A    between atoms: C_1  and  C_2
REMARK    2  A    between atoms: C_4  and  C_25
REMARK    3  A    between atoms: C_7  and  N_8
REMARK    4  A    between atoms: N_11  and  C_12
REMARK    5  A    between atoms: C_12  and  C_13
REMARK    6  A    between atoms: C_13  and  C_15
REMARK    7  A    between atoms: C_13  and  N_20
REMARK    8  A    between atoms: N_27  and  C_28
REMARK                            x       y       z     vdW  Elec       q    Type
REMARK                         _______ _______ _______ _____ _____    ______ ____
ROOT
ATOM      1  N   UNL     1       0.308   0.000   2.451  0.00  0.00    -0.269 N 
ATOM      2  C   UNL     1       0.123  -0.679   3.600  0.00  0.00    +0.304 C 
ATOM      3  O   UNL     1       0.084  -1.894   3.588  0.00  0.00    -0.253 OA
ATOM      4  N   UNL     1      -0.019  -0.012   4.762  0.00  0.00    -0.300 N 
ATOM      5  H   UNL     1       0.409   0.965   2.469  0.00  0.00    +0.156 HD
ATOM      6  H   UNL     1       0.012   0.958   4.772  0.00  0.00    +0.150 HD
ENDROOT
BRANCH   1  13
ATOM      7  C   UNL     1      -0.773   1.283   0.158  0.00  0.00    +0.045 C 
ATOM      8  C   UNL     1      -0.163  -0.093   0.088  0.00  0.00    -0.028 A 
ATOM      9  C   UNL     1      -0.114  -0.763  -1.114  0.00  0.00    +0.018 A 
ATOM     10  C   UNL     1       0.451  -2.039  -1.178  0.00  0.00    +0.037 A 
ATOM     11  C   UNL     1       0.965  -2.631  -0.021  0.00  0.00    +0.015 A 
ATOM     12  C   UNL     1       0.913  -1.956   1.177  0.00  0.00    +0.024 A 
ATOM     13  C   UNL     1       0.354  -0.683   1.236  0.00  0.00    +0.038 A 
BRANCH  10  14
ATOM     14  C   UNL     1       0.505  -2.760  -2.465  0.00  0.00    +0.244 C 
ATOM     15  O   UNL     1       0.058  -2.244  -3.470  0.00  0.00    -0.270 OA
ATOM     16  N   UNL     1       1.051  -3.991  -2.525  0.00  0.00    -0.314 N 
ATOM     17  C   UNL     1       1.105  -4.707  -3.802  0.00  0.00    +0.128 C 
ATOM     18  H   UNL     1       1.408  -4.403  -1.722  0.00  0.00    +0.149 HD
ENDBRANCH  10  14
ENDBRANCH   1  13
BRANCH   4  19
ATOM     19  C   UNL     1      -0.220  -0.750   6.011  0.00  0.00    +0.095 C 
BRANCH  19  20
ATOM     20  C   UNL     1      -0.473   0.237   7.152  0.00  0.00    -0.013 C 
BRANCH  20  21
ATOM     21  N   UNL     1      -0.800  -0.505   8.378  0.00  0.00    +0.386 N 
ATOM     22  C   UNL     1      -1.227   0.434   9.446  0.00  0.00    -0.078 C 
ATOM     23  C   UNL     1      -2.042  -0.468  10.406  0.00  0.00    -0.020 C 
ATOM     24  C   UNL     1      -2.781  -1.422   9.440  0.00  0.00    -0.020 C 
ATOM     25  C   UNL     1      -1.955  -1.398   8.141  0.00  0.00    -0.078 C 
ATOM     26  H   UNL     1      -0.002  -1.041   8.684  0.00  0.00    -0.081 HD
ENDBRANCH  20  21
BRANCH  20  27
ATOM     27  C   UNL     1       0.763   1.067   7.382  0.00  0.00    -0.022 A 
ATOM     28  C   UNL     1       1.032   2.330   6.969  0.00  0.00    +0.009 A 
ATOM     29  C   UNL     1       2.247   2.900   7.301  0.00  0.00    +0.008 A 
ATOM     30  C   UNL     1       3.133   2.179   8.030  0.00  0.00    +0.045 A 
ATOM     31  S   UNL     1       2.250   0.646   8.275  0.00  0.00    -0.103 S 
ENDBRANCH  20  27
ENDBRANCH  19  20
ENDBRANCH   4  19
TORSDOF 6
