REMARK  Name = ZINC20566028
REMARK  9 active torsions:
REMARK  status: ('A' for Active; 'I' for Inactive)
REMARK    1  A    between atoms: C_1  and  C_2
REMARK    2  A    between atoms: C_2  and  C_3
REMARK    3  A    between atoms: C_2  and  C_4
REMARK    4  A    between atoms: C_4  and  C_5
REMARK    5  A    between atoms: N_13  and  C_16
REMARK    6  A    between atoms: C_16  and  C_17
REMARK    7  A    between atoms: C_17  and  C_18
REMARK    8  A    between atoms: C_18  and  O_19
REMARK    9  A    between atoms: O_19  and  C_20
REMARK                            x       y       z     vdW  Elec       q    Type
REMARK                         _______ _______ _______ _____ _____    ______ ____
ROOT
ATOM      1  C   UNL     1      -2.135  -0.131  -1.286  0.00  0.00    -0.057 C 
ATOM      2  C   UNL     1      -3.612  -0.580  -1.259  0.00  0.00    +0.073 C 
ATOM      3  C   UNL     1      -3.916  -1.037  -2.713  0.00  0.00    +0.088 C 
ATOM      4  C   UNL     1      -4.186  -2.518  -2.562  0.00  0.00    +0.225 C 
ATOM      5  O   UNL     1      -4.475  -3.272  -3.466  0.00  0.00    -0.275 OA
ATOM      6  N   UNL     1      -4.054  -2.865  -1.277  0.00  0.00    -0.242 N 
ATOM      7  C   UNL     1      -3.735  -1.847  -0.445  0.00  0.00    +0.224 C 
ATOM      8  O   UNL     1      -3.570  -1.929   0.753  0.00  0.00    -0.275 OA
ATOM      9  C   UNL     1      -2.602  -0.813  -3.471  0.00  0.00    +0.050 C 
ATOM     10  N   UNL     1      -1.536  -0.849  -2.442  0.00  0.00    +0.394 N 
ATOM     11  C   UNL     1      -2.619   0.483  -4.230  0.00  0.00    -0.027 A 
ATOM     12  C   UNL     1      -2.776   1.799  -3.856  0.00  0.00    +0.019 A 
ATOM     13  C   UNL     1      -2.744   2.800  -4.811  0.00  0.00    +0.018 A 
ATOM     14  C   UNL     1      -2.554   2.474  -6.143  0.00  0.00    +0.017 A 
ATOM     15  C   UNL     1      -2.394   1.157  -6.522  0.00  0.00    +0.024 A 
ATOM     16  C   UNL     1      -2.425   0.144  -5.566  0.00  0.00    +0.036 A 
ATOM     17  N   UNL     1      -2.288  -1.240  -5.697  0.00  0.00    -0.286 N 
ATOM     18  C   UNL     1      -2.379  -1.874  -4.513  0.00  0.00    +0.211 C 
ATOM     19  O   UNL     1      -2.296  -3.069  -4.323  0.00  0.00    -0.277 OA
ATOM     20 BR   UNL     1      -2.960   4.607  -4.300  0.00  0.00    -0.050 Br
ATOM     21  H   UNL     1      -0.714  -0.365  -2.771  0.00  0.00    -0.083 HD
ATOM     22  H   UNL     1      -2.145  -1.691  -6.544  0.00  0.00    +0.155 HD
ATOM     23  H   UNL     1      -1.310  -1.800  -2.189  0.00  0.00    -0.083 HD
ENDROOT
BRANCH   1  24
ATOM     24  C   UNL     1      -1.433  -0.534   0.013  0.00  0.00    -0.012 C 
BRANCH  24  26
ATOM     25  C   UNL     1      -0.019   1.526   0.010  0.00  0.00    +0.007 C 
ATOM     26  C   UNL     1       0.002  -0.004   0.002  0.00  0.00    -0.019 C 
ATOM     27  C   UNL     1       0.742  -0.511   1.242  0.00  0.00    +0.007 C 
ENDBRANCH  24  26
ENDBRANCH   1  24
BRANCH   6  28
ATOM     28  C   UNL     1      -4.249  -4.238  -0.803  0.00  0.00    +0.118 C 
BRANCH  28  29
ATOM     29  C   UNL     1      -2.917  -4.989  -0.855  0.00  0.00    +0.047 C 
BRANCH  29  30
ATOM     30  C   UNL     1      -3.120  -6.422  -0.361  0.00  0.00    +0.161 C 
BRANCH  30  31
ATOM     31  O   UNL     1      -1.876  -7.123  -0.409  0.00  0.00    -0.383 OA
ATOM     32  C   UNL     1      -1.955  -8.480   0.035  0.00  0.00    +0.193 C 
ENDBRANCH  30  31
ENDBRANCH  29  30
ENDBRANCH  28  29
ENDBRANCH   6  28
TORSDOF 6
