REMARK  Name = ZINC02364674
REMARK  5 active torsions:
REMARK  status: ('A' for Active; 'I' for Inactive)
REMARK    1  A    between atoms: C_4  and  N_7
REMARK    2  A    between atoms: N_7  and  C_8
REMARK    3  A    between atoms: C_16  and  C_21
REMARK    4  A    between atoms: C_21  and  N_60
REMARK    5  A    between atoms: N_24  and  C_27
REMARK                            x       y       z     vdW  Elec       q    Type
REMARK                         _______ _______ _______ _____ _____    ______ ____
ROOT
ATOM      1  N   UNL     1      -0.069   5.242   0.028  0.00  0.00    -0.238 N 
ATOM      2  C   UNL     1       1.158   5.856  -0.142  0.00  0.00    +0.231 A 
ATOM      3  N   UNL     1       1.226   7.175  -0.308  0.00  0.00    -0.201 NA
ATOM      4  C   UNL     1       2.398   7.764  -0.466  0.00  0.00    +0.120 A 
ATOM      5  N   UNL     1       3.507   7.045  -0.470  0.00  0.00    -0.202 NA
ATOM      6  C   UNL     1       3.447   5.725  -0.311  0.00  0.00    +0.217 A 
ATOM      7  N   UNL     1       2.271   5.130  -0.147  0.00  0.00    -0.181 NA
ATOM      8  N   UNL     1       4.606   4.975  -0.316  0.00  0.00    -0.327 N 
ATOM      9  H   UNL     1       4.561   4.013  -0.200  0.00  0.00    +0.145 HD
ATOM     10  H   UNL     1       5.465   5.410  -0.436  0.00  0.00    +0.145 HD
ENDROOT
BRANCH   1  14
ATOM     11  C   UNL     1      -0.271   1.128   0.659  0.00  0.00    +0.000 A 
ATOM     12  C   UNL     1      -0.625   2.000   1.673  0.00  0.00    +0.002 A 
ATOM     13  C   UNL     1      -0.554   3.364   1.469  0.00  0.00    +0.024 A 
ATOM     14  C   UNL     1      -0.136   3.860   0.240  0.00  0.00    +0.042 A 
ATOM     15  C   UNL     1       0.214   2.982  -0.777  0.00  0.00    +0.024 A 
ATOM     16  C   UNL     1       0.146   1.619  -0.565  0.00  0.00    +0.002 A 
ENDBRANCH   1  14
BRANCH   1  17
ATOM     17  C   UNL     1      -1.243   6.001  -0.011  0.00  0.00    +0.042 A 
ATOM     18  C   UNL     1      -2.136   5.848  -1.065  0.00  0.00    +0.024 A 
ATOM     19  C   UNL     1      -3.297   6.596  -1.098  0.00  0.00    +0.002 A 
ATOM     20  C   UNL     1      -3.565   7.504  -0.090  0.00  0.00    +0.000 A 
ATOM     21  C   UNL     1      -2.676   7.663   0.957  0.00  0.00    +0.002 A 
ATOM     22  C   UNL     1      -1.516   6.914   0.999  0.00  0.00    +0.024 A 
ENDBRANCH   1  17
BRANCH   4  23
ATOM     23  C   UNL     1       2.471   9.258  -0.647  0.00  0.00    -0.001 C 
BRANCH  23  29
ATOM     24  C   UNL     1       3.562   9.088  -2.802  0.00  0.00    -0.059 C 
ATOM     25  C   UNL     1       3.397   9.376  -4.296  0.00  0.00    +0.086 C 
ATOM     26  N   UNL     1       3.225  10.821  -4.498  0.00  0.00    -0.331 N 
ATOM     27  C   UNL     1       2.046  11.315  -3.773  0.00  0.00    +0.086 C 
ATOM     28  C   UNL     1       2.212  11.028  -2.279  0.00  0.00    -0.059 C 
ATOM     29  N   UNL     1       2.361   9.570  -2.088  0.00  0.00    +0.386 N 
ATOM     30  H   UNL     1       1.534   9.097  -2.470  0.00  0.00    -0.081 HD
BRANCH  26  31
ATOM     31  C   UNL     1       3.142  11.130  -5.860  0.00  0.00    +0.065 A 
ATOM     32  C   UNL     1       3.052  12.454  -6.268  0.00  0.00    +0.026 A 
ATOM     33  C   UNL     1       2.974  12.756  -7.614  0.00  0.00    +0.002 A 
ATOM     34  C   UNL     1       2.977  11.742  -8.554  0.00  0.00    +0.003 A 
ATOM     35  C   UNL     1       3.062  10.422  -8.152  0.00  0.00    +0.040 A 
ATOM     36  C   UNL     1       3.145  10.112  -6.807  0.00  0.00    +0.144 A 
ATOM     37  F   UNL     1       3.227   8.822  -6.414  0.00  0.00    -0.204 F 
ENDBRANCH  26  31
ENDBRANCH  23  29
ENDBRANCH   4  23
TORSDOF 5
