REMARK  Name = ZINC64888438
REMARK  9 active torsions:
REMARK  status: ('A' for Active; 'I' for Inactive)
REMARK    1  A    between atoms: C_1  and  C_2
REMARK    2  A    between atoms: C_2  and  N_3
REMARK    3  A    between atoms: C_6  and  C_18
REMARK    4  A    between atoms: N_8  and  C_11
REMARK    5  A    between atoms: C_20  and  C_23
REMARK    6  A    between atoms: C_23  and  C_24
REMARK    7  A    between atoms: C_24  and  C_25
REMARK    8  A    between atoms: N_27  and  C_28
REMARK    9  A    between atoms: C_28  and  C_29
REMARK                            x       y       z     vdW  Elec       q    Type
REMARK                         _______ _______ _______ _____ _____    ______ ____
ROOT
ATOM      1  C   UNL     1       3.870  -2.301   1.932  0.00  0.00    +0.228 A 
ATOM      2  N   UNL     1       4.441  -3.185   2.771  0.00  0.00    -0.190 NA
ATOM      3  C   UNL     1       5.573  -3.599   2.279  0.00  0.00    +0.228 A 
ATOM      4  O   UNL     1       5.772  -2.993   1.101  0.00  0.00    -0.338 OA
ATOM      5  N   UNL     1       4.648  -2.153   0.887  0.00  0.00    -0.054 NA
ENDROOT
BRANCH   1   9
ATOM      6  N   UNL     1       0.870  -0.059   1.381  0.00  0.00    -0.258 N 
ATOM      7  C   UNL     1       2.052  -0.667   1.152  0.00  0.00    +0.286 A 
ATOM      8  O   UNL     1       2.677  -0.437   0.133  0.00  0.00    -0.265 OA
ATOM      9  C   UNL     1       2.576  -1.613   2.151  0.00  0.00    +0.196 A 
ATOM     10  N   UNL     1       1.875  -1.838   3.240  0.00  0.00    -0.153 NA
ATOM     11  N   UNL     1       0.654  -1.180   3.428  0.00  0.00    -0.181 N 
ATOM     12  C   UNL     1       0.187  -0.313   2.512  0.00  0.00    +0.353 A 
ATOM     13  O   UNL     1      -0.874   0.246   2.708  0.00  0.00    -0.244 OA
BRANCH  11  14
ATOM     14  C   UNL     1      -0.088  -1.423   4.589  0.00  0.00    +0.071 A 
ATOM     15  C   UNL     1       0.527  -1.367   5.833  0.00  0.00    +0.029 A 
ATOM     16  C   UNL     1      -0.208  -1.608   6.977  0.00  0.00    +0.022 A 
ATOM     17  C   UNL     1      -1.556  -1.904   6.885  0.00  0.00    +0.041 A 
ATOM     18  C   UNL     1      -2.172  -1.960   5.647  0.00  0.00    +0.022 A 
ATOM     19  C   UNL     1      -1.443  -1.715   4.500  0.00  0.00    +0.029 A 
ATOM     20 CL   UNL     1      -2.478  -2.205   8.325  0.00  0.00    -0.084 Cl
ENDBRANCH  11  14
BRANCH   6  22
ATOM     21  C   UNL     1       0.836   2.295   0.718  0.00  0.00    +0.027 C 
ATOM     22  C   UNL     1       0.332   0.886   0.399  0.00  0.00    +0.127 C 
ENDBRANCH   6  22
ENDBRANCH   1   9
BRANCH   3  23
ATOM     23  C   UNL     1       6.504  -4.593   2.926  0.00  0.00    +0.108 C 
BRANCH  23  24
ATOM     24  C   UNL     1       6.133  -6.007   2.475  0.00  0.00    +0.105 C 
BRANCH  24  25
ATOM     25  C   UNL     1       7.064  -7.000   3.122  0.00  0.00    +0.214 C 
ATOM     26  O   UNL     1       7.937  -6.615   3.870  0.00  0.00    -0.276 OA
ATOM     27  N   UNL     1       6.925  -8.317   2.869  0.00  0.00    -0.311 N 
ATOM     28  H   UNL     1       6.226  -8.625   2.271  0.00  0.00    +0.149 HD
BRANCH  27  29
ATOM     29  C   UNL     1       7.829  -9.283   3.498  0.00  0.00    +0.142 C 
BRANCH  29  30
ATOM     30  C   UNL     1       7.464 -10.676   3.054  0.00  0.00    +0.005 A 
ATOM     31  C   UNL     1       6.707 -11.488   3.877  0.00  0.00    +0.008 A 
ATOM     32  C   UNL     1       6.372 -12.765   3.470  0.00  0.00    +0.000 A 
ATOM     33  C   UNL     1       6.794 -13.233   2.239  0.00  0.00    +0.003 A 
ATOM     34  C   UNL     1       7.551 -12.423   1.415  0.00  0.00    +0.038 A 
ATOM     35  C   UNL     1       7.883 -11.141   1.819  0.00  0.00    +0.128 A 
ATOM     36  F   UNL     1       8.619 -10.346   1.012  0.00  0.00    -0.205 F 
ENDBRANCH  29  30
ENDBRANCH  27  29
ENDBRANCH  24  25
ENDBRANCH  23  24
ENDBRANCH   3  23
TORSDOF 8
