REMARK  Name = ZINC37793426
REMARK  4 active torsions:
REMARK  status: ('A' for Active; 'I' for Inactive)
REMARK    1  A    between atoms: C_4  and  N_10
REMARK    2  A    between atoms: C_6  and  C_7
REMARK    3  A    between atoms: C_11  and  C_13
REMARK    4  A    between atoms: C_16  and  C_18
REMARK                            x       y       z     vdW  Elec       q    Type
REMARK                         _______ _______ _______ _____ _____    ______ ____
ROOT
ATOM      1  C   UNL     1      -0.062   1.326  -0.004  0.00  0.00    +0.014 A 
ATOM      2  C   UNL     1       1.114   2.047  -0.012  0.00  0.00    +0.022 A 
ATOM      3  C   UNL     1       2.333   1.392  -0.019  0.00  0.00    +0.062 A 
ATOM      4  C   UNL     1       2.379   0.001  -0.019  0.00  0.00    +0.053 A 
ATOM      5  C   UNL     1       1.203  -0.731  -0.011  0.00  0.00    +0.037 A 
ATOM      6  C   UNL     1      -0.025  -0.070  -0.003  0.00  0.00    +0.038 A 
ATOM      7 CL   UNL     1       3.808   2.307  -0.030  0.00  0.00    -0.082 Cl
ENDROOT
BRANCH   6   8
ATOM      8  C   UNL     1      -1.284  -0.844   0.005  0.00  0.00    +0.242 C 
ATOM      9  O   UNL     1      -1.250  -2.059   0.006  0.00  0.00    -0.270 OA
ATOM     10  N   UNL     1      -2.470  -0.203   0.012  0.00  0.00    -0.325 N 
ATOM     11  H   UNL     1      -2.497   0.767   0.012  0.00  0.00    +0.145 HD
ATOM     12  H   UNL     1      -3.296  -0.711   0.018  0.00  0.00    +0.145 HD
ENDBRANCH   6   8
BRANCH   4  13
ATOM     13  N   UNL     1       3.614  -0.658  -0.027  0.00  0.00    -0.284 N 
ATOM     14  C   UNL     1       3.761  -1.823   0.635  0.00  0.00    +0.221 C 
ATOM     15  O   UNL     1       2.804  -2.340   1.172  0.00  0.00    -0.275 OA
ATOM     16  H   UNL     1       4.364  -0.276  -0.509  0.00  0.00    +0.155 HD
BRANCH  14  17
ATOM     17  C   UNL     1       5.113  -2.484   0.707  0.00  0.00    +0.090 C 
ATOM     18  C   UNL     1       5.314  -3.569   1.766  0.00  0.00    +0.029 C 
ATOM     19  C   UNL     1       5.974  -2.198   1.939  0.00  0.00    +0.115 C 
BRANCH  19  20
ATOM     20  C   UNL     1       5.405  -1.278   2.988  0.00  0.00    +0.360 C 
ATOM     21  O   UNL     1       5.638  -1.480   4.167  0.00  0.00    -0.246 OA
ATOM     22  O   UNL     1       4.710  -0.332   2.657  0.00  0.00    -0.246 OA
ENDBRANCH  19  20
ENDBRANCH  14  17
ENDBRANCH   4  13
TORSDOF 4
