REMARK  Name = ZINC15024128
REMARK  4 active torsions:
REMARK  status: ('A' for Active; 'I' for Inactive)
REMARK    1  A    between atoms: C_6  and  C_7
REMARK    2  A    between atoms: N_9  and  C_10
REMARK    3  A    between atoms: N_13  and  C_16
REMARK    4  A    between atoms: N_21  and  C_24
REMARK                            x       y       z     vdW  Elec       q    Type
REMARK                         _______ _______ _______ _____ _____    ______ ____
ROOT
ATOM      1  C   UNL     1      -2.391  -2.958  -0.100  0.00  0.00    +0.076 C 
ATOM      2  C   UNL     1      -2.877  -3.074   1.347  0.00  0.00    +0.037 C 
ATOM      3  C   UNL     1      -4.181  -3.874   1.380  0.00  0.00    +0.087 C 
ATOM      4  N   UNL     1      -3.952  -5.209   0.813  0.00  0.00    -0.291 NA
ATOM      5  C   UNL     1      -3.530  -5.125  -0.591  0.00  0.00    +0.087 C 
ATOM      6  C   UNL     1      -2.207  -4.362  -0.682  0.00  0.00    +0.037 C 
ENDROOT
BRANCH   4   7
ATOM      7  C   UNL     1      -5.146  -6.053   0.955  0.00  0.00    +0.153 C 
ATOM      8  C   UNL     1      -4.837  -7.505   0.538  0.00  0.00    +0.125 C 
ATOM      9  C   UNL     1      -5.768  -7.745  -0.631  0.00  0.00    +0.228 C 
ATOM     10  O   UNL     1      -5.850  -8.776  -1.263  0.00  0.00    -0.275 OA
ATOM     11  N   UNL     1      -6.487  -6.638  -0.855  0.00  0.00    -0.209 N 
ATOM     12  C   UNL     1      -6.221  -5.622  -0.019  0.00  0.00    +0.244 C 
ATOM     13  O   UNL     1      -6.754  -4.533  -0.040  0.00  0.00    -0.273 OA
BRANCH  11  14
ATOM     14  C   UNL     1      -7.442  -6.548  -1.877  0.00  0.00    +0.047 A 
ATOM     15  C   UNL     1      -7.043  -6.580  -3.206  0.00  0.00    +0.044 A 
ATOM     16  C   UNL     1      -7.987  -6.492  -4.212  0.00  0.00    +0.044 A 
ATOM     17  C   UNL     1      -9.329  -6.371  -3.896  0.00  0.00    +0.040 A 
ATOM     18  C   UNL     1      -9.729  -6.339  -2.571  0.00  0.00    +0.044 A 
ATOM     19  C   UNL     1      -8.789  -6.433  -1.562  0.00  0.00    +0.044 A 
ATOM     20 CL   UNL     1     -11.413  -6.187  -2.178  0.00  0.00    -0.083 Cl
ATOM     21 CL   UNL     1      -7.489  -6.531  -5.875  0.00  0.00    -0.083 Cl
ENDBRANCH  11  14
ENDBRANCH   4   7
BRANCH   1  24
ATOM     22  C   UNL     1      -1.095  -0.896  -0.161  0.00  0.00    +0.244 C 
ATOM     23  O   UNL     1      -2.139  -0.274  -0.161  0.00  0.00    -0.270 OA
ATOM     24  N   UNL     1      -1.113  -2.243  -0.132  0.00  0.00    -0.308 N 
ATOM     25  H   UNL     1      -0.280  -2.739  -0.132  0.00  0.00    +0.149 HD
BRANCH  22  31
ATOM     26  C   UNL     1       0.216   1.221  -0.223  0.00  0.00    +0.016 A 
ATOM     27  C   UNL     1       1.421   1.889  -0.252  0.00  0.00    +0.039 A 
ATOM     28  C   UNL     1       2.611   1.177  -0.251  0.00  0.00    +0.123 A 
ATOM     29  C   UNL     1       2.595  -0.209  -0.222  0.00  0.00    +0.039 A 
ATOM     30  C   UNL     1       1.395  -0.887  -0.193  0.00  0.00    +0.016 A 
ATOM     31  C   UNL     1       0.194  -0.175  -0.193  0.00  0.00    +0.037 A 
ATOM     32  F   UNL     1       3.790   1.836  -0.280  0.00  0.00    -0.205 F 
ENDBRANCH  22  31
ENDBRANCH   1  24
TORSDOF 4
