REMARK  Name = ZINC11906268
REMARK  3 active torsions:
REMARK  status: ('A' for Active; 'I' for Inactive)
REMARK    1  A    between atoms: C_11  and  S_14
REMARK    2  A    between atoms: S_14  and  C_15
REMARK    3  A    between atoms: C_15  and  C_16
REMARK                            x       y       z     vdW  Elec       q    Type
REMARK                         _______ _______ _______ _____ _____    ______ ____
ROOT
ATOM      1  C   UNL     1      -0.013   1.076   0.008  0.00  0.00    +0.001 A 
ATOM      2  C   UNL     1       1.182   1.782   0.000  0.00  0.00    +0.002 A 
ATOM      3  C   UNL     1       1.182   3.161   0.008  0.00  0.00    +0.027 A 
ATOM      4  C   UNL     1      -0.021   3.855   0.023  0.00  0.00    +0.058 A 
ATOM      5  C   UNL     1      -1.232   3.142   0.031  0.00  0.00    -0.001 A 
ATOM      6  C   UNL     1      -1.217   1.744   0.017  0.00  0.00    +0.010 A 
ATOM      7  C   UNL     1      -2.498   3.882   0.049  0.00  0.00    +0.013 A 
ATOM      8  C   UNL     1      -2.471   5.233   0.054  0.00  0.00    +0.049 A 
ATOM      9  C   UNL     1      -1.237   5.925   0.045  0.00  0.00    +0.162 A 
ATOM     10  N   UNL     1      -0.043   5.239   0.030  0.00  0.00    -0.270 N 
ATOM     11  C   UNL     1       0.935   6.189   0.025  0.00  0.00    +0.197 A 
ATOM     12  N   UNL     1       0.340   7.361   0.036  0.00  0.00    -0.122 NA
ATOM     13  N   UNL     1      -0.937   7.211   0.048  0.00  0.00    -0.129 NA
ENDROOT
BRANCH  11  14
ATOM     14  S   UNL     1       2.673   5.900   0.006  0.00  0.00    -0.078 S 
BRANCH  14  15
ATOM     15  C   UNL     1       3.276   7.607   0.009  0.00  0.00    +0.151 C 
BRANCH  15  16
ATOM     16  C   UNL     1       4.783   7.607  -0.006  0.00  0.00    +0.118 A 
ATOM     17  N   UNL     1       5.551   7.613  -1.129  0.00  0.00    -0.341 N 
ATOM     18  H   UNL     1       5.221   7.617  -2.073  0.00  0.00    +0.167 HD
ATOM     19  C   UNL     1       6.871   7.612  -0.723  0.00  0.00    +0.066 A 
ATOM     20  C   UNL     1       8.088   7.616  -1.392  0.00  0.00    +0.028 A 
ATOM     21  C   UNL     1       9.263   7.614  -0.671  0.00  0.00    +0.002 A 
ATOM     22  C   UNL     1       9.236   7.608   0.717  0.00  0.00    +0.002 A 
ATOM     23  C   UNL     1       8.049   7.604   1.391  0.00  0.00    +0.030 A 
ATOM     24  C   UNL     1       6.845   7.606   0.681  0.00  0.00    +0.089 A 
ATOM     25  N   UNL     1       5.539   7.608   1.053  0.00  0.00    -0.232 NA
ENDBRANCH  15  16
ENDBRANCH  14  15
ENDBRANCH  11  14
TORSDOF 3
