REMARK  Name = ZINC63383743
REMARK  7 active torsions:
REMARK  status: ('A' for Active; 'I' for Inactive)
REMARK    1  A    between atoms: C_1  and  C_2
REMARK    2  A    between atoms: C_2  and  C_4
REMARK    3  A    between atoms: C_2  and  N_16
REMARK    4  A    between atoms: N_6  and  C_7
REMARK    5  A    between atoms: C_7  and  C_8
REMARK    6  A    between atoms: C_8  and  C_9
REMARK    7  A    between atoms: C_17  and  C_19
REMARK                            x       y       z     vdW  Elec       q    Type
REMARK                         _______ _______ _______ _____ _____    ______ ____
ROOT
ATOM      1  C   UNL     1       0.780  -1.133   3.576  0.00  0.00    +0.167 C 
ATOM      2  C   UNL     1       1.344  -2.541   3.303  0.00  0.00    +0.065 C 
ATOM      3  C   UNL     1       0.192  -3.509   3.404  0.00  0.00    -0.034 C 
ATOM      4  C   UNL     1      -0.242  -4.435   2.554  0.00  0.00    -0.001 A 
ATOM      5  C   UNL     1       0.294  -4.910   1.268  0.00  0.00    +0.010 A 
ATOM      6  C   UNL     1      -0.426  -5.877   0.640  0.00  0.00    +0.001 A 
ATOM      7  C   UNL     1      -1.610  -6.413   1.156  0.00  0.00    +0.002 A 
ATOM      8  C   UNL     1      -2.170  -6.041   2.334  0.00  0.00    +0.026 A 
ATOM      9  C   UNL     1      -1.500  -5.036   3.091  0.00  0.00    +0.043 A 
ATOM     10  N   UNL     1      -1.797  -4.513   4.243  0.00  0.00    -0.375 N 
ATOM     11  C   UNL     1      -0.745  -3.562   4.605  0.00  0.00    +0.131 C 
ATOM     12  C   UNL     1      -1.302  -2.145   4.783  0.00  0.00    +0.134 C 
ATOM     13  N   UNL     1      -0.151  -1.212   4.709  0.00  0.00    -0.276 N 
ATOM     14  C   UNL     1      -0.106  -0.483   5.839  0.00  0.00    +0.248 C 
ATOM     15  O   UNL     1       0.677   0.422   6.053  0.00  0.00    -0.270 OA
ATOM     16  C   UNL     1      -1.137  -0.938   6.774  0.00  0.00    +0.042 A 
ATOM     17  C   UNL     1      -1.896  -1.973   6.143  0.00  0.00    -0.013 A 
ATOM     18  C   UNL     1      -2.944  -2.607   6.773  0.00  0.00    +0.006 A 
ATOM     19  C   UNL     1      -3.247  -2.193   8.067  0.00  0.00    +0.000 A 
ATOM     20  C   UNL     1      -2.534  -1.193   8.697  0.00  0.00    +0.001 A 
ATOM     21  C   UNL     1      -1.439  -0.520   8.073  0.00  0.00    +0.013 A 
ATOM     22  H   UNL     1      -2.583  -4.719   4.773  0.00  0.00    +0.160 HD
ENDROOT
BRANCH   1  24
ATOM     23  N   UNL     1       0.711  -0.489   1.189  0.00  0.00    -0.303 N 
ATOM     24  C   UNL     1       0.051  -0.633   2.355  0.00  0.00    +0.234 C 
ATOM     25  O   UNL     1      -1.129  -0.361   2.423  0.00  0.00    -0.274 OA
ATOM     26  H   UNL     1       1.654  -0.707   1.135  0.00  0.00    +0.149 HD
BRANCH  23  28
ATOM     27  C   UNL     1      -0.019   1.526   0.010  0.00  0.00    +0.038 C 
ATOM     28  C   UNL     1       0.002  -0.004   0.002  0.00  0.00    +0.156 C 
BRANCH  28  29
ATOM     29  C   UNL     1       0.707  -0.490  -1.238  0.00  0.00    +0.233 C 
ATOM     30  O   UNL     1       1.704  -1.174  -1.140  0.00  0.00    -0.274 OA
ATOM     31  N   UNL     1       0.231  -0.164  -2.456  0.00  0.00    -0.313 N 
ATOM     32  H   UNL     1      -0.566   0.383  -2.534  0.00  0.00    +0.149 HD
BRANCH  31  33
ATOM     33  C   UNL     1       0.917  -0.637  -3.661  0.00  0.00    +0.109 C 
BRANCH  33  34
ATOM     34  C   UNL     1       0.177  -0.130  -4.901  0.00  0.00    +0.056 C 
BRANCH  34  35
ATOM     35  C   UNL     1       0.882  -0.616  -6.141  0.00  0.00    -0.011 A 
ATOM     36  C   UNL     1       1.814   0.190  -6.766  0.00  0.00    +0.006 A 
ATOM     37  C   UNL     1       2.461  -0.255  -7.904  0.00  0.00    +0.000 A 
ATOM     38  C   UNL     1       2.177  -1.508  -8.416  0.00  0.00    +0.003 A 
ATOM     39  C   UNL     1       1.246  -2.315  -7.792  0.00  0.00    +0.038 A 
ATOM     40  C   UNL     1       0.601  -1.872  -6.650  0.00  0.00    +0.127 A 
ATOM     41  F   UNL     1      -0.306  -2.663  -6.036  0.00  0.00    -0.205 F 
ENDBRANCH  34  35
ENDBRANCH  33  34
ENDBRANCH  31  33
ENDBRANCH  28  29
ENDBRANCH  23  28
ENDBRANCH   1  24
TORSDOF 6
