REMARK  Name = ZINC12829185
REMARK  6 active torsions:
REMARK  status: ('A' for Active; 'I' for Inactive)
REMARK    1  A    between atoms: C_1  and  S_2
REMARK    2  A    between atoms: S_2  and  C_5
REMARK    3  A    between atoms: C_5  and  C_6
REMARK    4  A    between atoms: C_6  and  C_7
REMARK    5  A    between atoms: C_7  and  C_9
REMARK    6  A    between atoms: C_7  and  N_22
REMARK                            x       y       z     vdW  Elec       q    Type
REMARK                         _______ _______ _______ _____ _____    ______ ____
ROOT
ATOM      1  C   UNL     1       1.121   3.582   0.011  0.00  0.00    +0.172 C 
ENDROOT
BRANCH   1   2
ATOM      2  C   UNL     1       1.141   2.075   0.002  0.00  0.00    +0.240 C 
ATOM      3  O   UNL     1       2.200   1.483  -0.011  0.00  0.00    -0.273 OA
ATOM      4  N   UNL     1      -0.017   1.386   0.010  0.00  0.00    -0.263 N 
ATOM      5  C   UNL     1       0.002  -0.004   0.002  0.00  0.00    +0.165 A 
ATOM      6  N   UNL     1       1.037  -0.819  -0.018  0.00  0.00    -0.229 NA
ATOM      7  C   UNL     1       0.898  -2.148  -0.026  0.00  0.00    +0.054 A 
ATOM      8  C   UNL     1      -0.370  -2.599  -0.002  0.00  0.00    +0.014 A 
ATOM      9  S   UNL     1      -1.335  -1.117   0.009  0.00  0.00    -0.057 S 
ATOM     10  C   UNL     1      -0.820  -4.036   0.058  0.00  0.00    +0.044 C 
ATOM     11  C   UNL     1      -0.432  -4.686  -1.284  0.00  0.00    +0.005 C 
ATOM     12  C   UNL     1       1.038  -5.030  -1.290  0.00  0.00    +0.001 C 
ATOM     13  C   UNL     1       2.003  -3.877  -1.392  0.00  0.00    +0.006 C 
ATOM     14  C   UNL     1       2.099  -3.094  -0.080  0.00  0.00    +0.056 C 
ATOM     15  H   UNL     1      -0.863   1.859   0.016  0.00  0.00    +0.157 HD
ENDBRANCH   1   2
BRANCH   1  16
ATOM     16  N   UNL     1       2.495   4.089   0.000  0.00  0.00    -0.222 N 
ATOM     17  C   UNL     1       3.394   3.833  -0.968  0.00  0.00    +0.254 C 
ATOM     18  O   UNL     1       3.197   3.155  -1.956  0.00  0.00    -0.270 OA
ATOM     19  C   UNL     1       4.660   4.516  -0.628  0.00  0.00    +0.049 A 
ATOM     20  C   UNL     1       5.901   4.612  -1.236  0.00  0.00    +0.014 A 
ATOM     21  C   UNL     1       6.907   5.351  -0.632  0.00  0.00    +0.001 A 
ATOM     22  C   UNL     1       6.679   5.994   0.570  0.00  0.00    +0.001 A 
ATOM     23  C   UNL     1       5.442   5.907   1.190  0.00  0.00    +0.014 A 
ATOM     24  C   UNL     1       4.427   5.172   0.598  0.00  0.00    +0.049 A 
ATOM     25  C   UNL     1       3.026   4.868   0.960  0.00  0.00    +0.254 C 
ATOM     26  O   UNL     1       2.451   5.256   1.957  0.00  0.00    -0.270 OA
ENDBRANCH   1  16
BRANCH   1  27
ATOM     27  C   UNL     1       0.381   4.089  -1.229  0.00  0.00    +0.055 C 
BRANCH  27  28
ATOM     28  C   UNL     1       0.251   5.612  -1.158  0.00  0.00    +0.168 C 
BRANCH  28  30
ATOM     29  C   UNL     1      -0.677   8.006  -2.359  0.00  0.00    +0.194 C 
ATOM     30  S   UNL     1      -0.626   6.213  -2.628  0.00  0.00    -0.034 S 
ATOM     31  O   UNL     1       0.178   5.952  -3.770  0.00  0.00    -0.175 OA
ATOM     32  O   UNL     1      -1.957   5.715  -2.592  0.00  0.00    -0.175 OA
ENDBRANCH  28  30
ENDBRANCH  27  28
ENDBRANCH   1  27
TORSDOF 5
