REMARK  Name = ZINC36029651
REMARK  10 active torsions:
REMARK  status: ('A' for Active; 'I' for Inactive)
REMARK    1  A    between atoms: C_1  and  C_2
REMARK    2  A    between atoms: C_2  and  C_3
REMARK    3  A    between atoms: C_3  and  C_5
REMARK    4  A    between atoms: C_3  and  C_6
REMARK    5  A    between atoms: N_10  and  C_25
REMARK    6  A    between atoms: C_18  and  C_20
REMARK    7  A    between atoms: C_25  and  C_27
REMARK    8  A    between atoms: C_25  and  C_28
REMARK    9  A    between atoms: C_28  and  C_29
REMARK   10  A    between atoms: C_29  and  C_30
REMARK                            x       y       z     vdW  Elec       q    Type
REMARK                         _______ _______ _______ _____ _____    ______ ____
ROOT
ATOM      1  C   UNL     1      -2.368  -1.531   0.479  0.00  0.00    +0.022 C 
ATOM      2  C   UNL     1      -1.337  -2.305  -0.314  0.00  0.00    +0.201 C 
ATOM      3  O   UNL     1      -0.134  -2.213  -0.193  0.00  0.00    -0.277 OA
ATOM      4  N   UNL     1      -1.983  -3.116  -1.179  0.00  0.00    -0.311 N 
ATOM      5  C   UNL     1      -3.429  -2.937  -1.029  0.00  0.00    +0.006 C 
ATOM      6  N   UNL     1      -3.637  -2.270   0.277  0.00  0.00    +0.401 N 
ATOM      7  C   UNL     1      -4.133  -4.293  -1.033  0.00  0.00    +0.025 C 
ATOM      8  C   UNL     1      -3.881  -4.992  -2.373  0.00  0.00    +0.108 C 
ATOM      9  N   UNL     1      -4.283  -4.090  -3.460  0.00  0.00    -0.297 N 
ATOM     10  C   UNL     1      -3.717  -2.734  -3.501  0.00  0.00    +0.108 C 
ATOM     11  C   UNL     1      -3.971  -2.054  -2.152  0.00  0.00    +0.025 C 
ATOM     12  C   UNL     1      -5.156  -4.497  -4.403  0.00  0.00    +0.253 C 
ATOM     13  O   UNL     1      -5.624  -3.693  -5.188  0.00  0.00    -0.269 OA
ATOM     14  H   UNL     1      -3.773  -2.951   1.008  0.00  0.00    -0.082 HD
ATOM     15  H   UNL     1      -4.418  -1.632   0.232  0.00  0.00    -0.082 HD
ENDROOT
BRANCH  12  16
ATOM     16  C   UNL     1      -5.540  -5.910  -4.484  0.00  0.00    +0.074 A 
ATOM     17  C   UNL     1      -6.519  -6.506  -5.264  0.00  0.00    +0.021 A 
ATOM     18  C   UNL     1      -6.649  -7.866  -5.123  0.00  0.00    +0.008 A 
ATOM     19  C   UNL     1      -5.837  -8.519  -4.256  0.00  0.00    +0.046 A 
ATOM     20  S   UNL     1      -4.865  -7.310  -3.611  0.00  0.00    -0.092 S 
ENDBRANCH  12  16
BRANCH   1  21
ATOM     21  C   UNL     1      -2.490  -0.103  -0.058  0.00  0.00    -0.020 C 
ATOM     22  C   UNL     1      -1.187   0.654   0.204  0.00  0.00    +0.006 C 
BRANCH  21  24
ATOM     23  C   UNL     1      -3.849   1.992   0.025  0.00  0.00    +0.004 C 
ATOM     24  C   UNL     1      -3.645   0.610   0.648  0.00  0.00    -0.001 C 
ENDBRANCH  21  24
ENDBRANCH   1  21
BRANCH   4  25
ATOM     25  C   UNL     1      -1.337  -4.033  -2.121  0.00  0.00    +0.072 C 
ATOM     26  C   UNL     1      -0.193  -3.309  -2.834  0.00  0.00    +0.028 C 
BRANCH  25  27
ATOM     27  C   UNL     1      -0.782  -5.239  -1.360  0.00  0.00    +0.027 C 
BRANCH  27  28
ATOM     28  C   UNL     1      -1.938  -6.033  -0.750  0.00  0.00    +0.037 C 
BRANCH  28  29
ATOM     29  C   UNL     1      -1.392  -7.221  -0.001  0.00  0.00    -0.047 A 
ATOM     30  C   UNL     1      -1.207  -8.425  -0.654  0.00  0.00    +0.003 A 
ATOM     31  C   UNL     1      -0.705  -9.514   0.033  0.00  0.00    +0.000 A 
ATOM     32  C   UNL     1      -0.388  -9.399   1.374  0.00  0.00    +0.000 A 
ATOM     33  C   UNL     1      -0.573  -8.195   2.027  0.00  0.00    +0.000 A 
ATOM     34  C   UNL     1      -1.070  -7.105   1.339  0.00  0.00    +0.003 A 
ENDBRANCH  28  29
ENDBRANCH  27  28
ENDBRANCH  25  27
ENDBRANCH   4  25
TORSDOF 7
