REMARK  Name = ZINC59577085
REMARK  10 active torsions:
REMARK  status: ('A' for Active; 'I' for Inactive)
REMARK    1  A    between atoms: C_1  and  C_2
REMARK    2  A    between atoms: C_2  and  N_3
REMARK    3  A    between atoms: N_3  and  C_4
REMARK    4  A    between atoms: C_4  and  C_5
REMARK    5  A    between atoms: C_12  and  C_14
REMARK    6  A    between atoms: N_16  and  C_17
REMARK    7  A    between atoms: C_19  and  S_25
REMARK    8  A    between atoms: C_21  and  C_24
REMARK    9  A    between atoms: C_22  and  C_23
REMARK   10  A    between atoms: S_25  and  N_28
REMARK                            x       y       z     vdW  Elec       q    Type
REMARK                         _______ _______ _______ _____ _____    ______ ____
ROOT
ATOM      1  C   UNL     1      -4.428  -1.694   6.923  0.00  0.00    +0.255 C 
ATOM      2  O   UNL     1      -5.565  -2.127   6.987  0.00  0.00    -0.269 OA
ATOM      3  N   UNL     1      -3.737  -1.446   8.053  0.00  0.00    -0.281 N 
ATOM      4  H   UNL     1      -2.807  -1.177   8.003  0.00  0.00    +0.155 HD
ENDROOT
BRANCH   1  12
ATOM      5  N   UNL     1      -1.393  -0.452   0.013  0.00  0.00    -0.310 N 
ATOM      6  C   UNL     1      -2.025  -0.708   1.213  0.00  0.00    +0.162 A 
ATOM      7  N   UNL     1      -1.571  -0.550   2.441  0.00  0.00    -0.218 NA
ATOM      8  C   UNL     1      -2.303  -0.842   3.508  0.00  0.00    +0.118 A 
ATOM      9  C   UNL     1      -3.604  -1.335   3.295  0.00  0.00    +0.049 A 
ATOM     10  S   UNL     1      -3.673  -1.330   1.505  0.00  0.00    -0.052 S 
ATOM     11  C   UNL     1      -4.368  -1.639   4.400  0.00  0.00    +0.038 A 
ATOM     12  C   UNL     1      -3.832  -1.452   5.659  0.00  0.00    +0.077 A 
ATOM     13  S   UNL     1      -2.203  -0.827   5.295  0.00  0.00    -0.063 S 
BRANCH   5  15
ATOM     14  C   UNL     1      -0.050   1.592   0.021  0.00  0.00    +0.024 C 
ATOM     15  C   UNL     1      -0.021   0.063   0.003  0.00  0.00    +0.103 C 
ENDBRANCH   5  15
BRANCH   5  16
ATOM     16  C   UNL     1      -2.093  -0.695  -1.250  0.00  0.00    +0.103 C 
ATOM     17  C   UNL     1      -1.831  -2.130  -1.711  0.00  0.00    +0.024 C 
ENDBRANCH   5  16
ENDBRANCH   1  12
BRANCH   3  18
ATOM     18  C   UNL     1      -4.362  -1.574   9.297  0.00  0.00    +0.039 A 
ATOM     19  C   UNL     1      -5.741  -1.444   9.401  0.00  0.00    +0.052 A 
ATOM     20  C   UNL     1      -6.355  -1.572  10.631  0.00  0.00    +0.107 A 
ATOM     21  C   UNL     1      -5.599  -1.830  11.759  0.00  0.00    +0.032 A 
ATOM     22  C   UNL     1      -4.226  -1.960  11.660  0.00  0.00    -0.044 A 
ATOM     23  C   UNL     1      -3.606  -1.839  10.432  0.00  0.00    -0.026 A 
ATOM     24  C   UNL     1      -2.110  -1.987  10.324  0.00  0.00    +0.046 C 
ATOM     25  C   UNL     1      -3.405  -2.242  12.893  0.00  0.00    +0.044 C 
BRANCH  20  26
ATOM     26  S   UNL     1      -8.104  -1.406  10.763  0.00  0.00    +0.056 S 
ATOM     27  O   UNL     1      -8.376  -1.028  12.105  0.00  0.00    -0.153 OA
ATOM     28  O   UNL     1      -8.524  -0.626   9.652  0.00  0.00    -0.153 OA
BRANCH  26  29
ATOM     29  N   UNL     1      -8.757  -2.914  10.555  0.00  0.00    -0.204 NA
ATOM     30  H   UNL     1      -8.177  -3.675  10.396  0.00  0.00    +0.144 HD
ATOM     31  H   UNL     1      -9.718  -3.036  10.593  0.00  0.00    +0.144 HD
ENDBRANCH  26  29
ENDBRANCH  20  26
ENDBRANCH   3  18
TORSDOF 6
