REMARK  Name = ZINC39237682
REMARK  10 active torsions:
REMARK  status: ('A' for Active; 'I' for Inactive)
REMARK    1  A    between atoms: C_1  and  C_2
REMARK    2  A    between atoms: C_4  and  C_15
REMARK    3  A    between atoms: C_5  and  C_14
REMARK    4  A    between atoms: N_7  and  C_8
REMARK    5  A    between atoms: N_16  and  N_17
REMARK    6  A    between atoms: C_18  and  C_20
REMARK    7  A    between atoms: C_20  and  C_37
REMARK    8  A    between atoms: C_23  and  C_28
REMARK    9  A    between atoms: C_25  and  C_26
REMARK   10  A    between atoms: C_25  and  C_27
REMARK                            x       y       z     vdW  Elec       q    Type
REMARK                         _______ _______ _______ _____ _____    ______ ____
ROOT
ATOM      1  N   UNL     1       2.610  -0.824  -5.174  0.00  0.00    -0.207 N 
ATOM      2  C   UNL     1       1.631  -1.471  -5.838  0.00  0.00    +0.239 C 
ATOM      3  O   UNL     1       1.032  -2.380  -5.302  0.00  0.00    -0.273 OA
ATOM      4  H   UNL     1       3.088  -0.098  -5.603  0.00  0.00    +0.177 HD
ENDROOT
BRANCH   2   5
ATOM      5  C   UNL     1       1.281  -1.066  -7.247  0.00  0.00    +0.052 C 
ATOM      6  C   UNL     1       0.072  -1.885  -7.762  0.00  0.00    +0.017 C 
ATOM      7  C   UNL     1       0.724  -3.223  -8.193  0.00  0.00    +0.013 C 
ATOM      8  C   UNL     1       2.071  -2.803  -8.816  0.00  0.00    +0.062 C 
ATOM      9  C   UNL     1       2.425  -1.432  -8.214  0.00  0.00    -0.012 C 
ATOM     10  C   UNL     1       2.529  -0.384  -9.324  0.00  0.00    +0.012 C 
ATOM     11  C   UNL     1       3.749  -1.520  -7.451  0.00  0.00    +0.012 C 
ATOM     12  C   UNL     1       0.983   0.433  -7.313  0.00  0.00    +0.021 C 
BRANCH   8  13
ATOM     13  C   UNL     1       3.136  -3.811  -8.469  0.00  0.00    +0.112 A 
ATOM     14  N   UNL     1       4.130  -4.140  -9.241  0.00  0.00    -0.232 NA
ATOM     15  C   UNL     1       4.899  -5.073  -8.622  0.00  0.00    +0.089 A 
ATOM     16  C   UNL     1       6.061  -5.759  -8.985  0.00  0.00    +0.030 A 
ATOM     17  C   UNL     1       6.615  -6.663  -8.123  0.00  0.00    +0.002 A 
ATOM     18  C   UNL     1       6.035  -6.910  -6.887  0.00  0.00    +0.002 A 
ATOM     19  C   UNL     1       4.888  -6.245  -6.508  0.00  0.00    +0.028 A 
ATOM     20  C   UNL     1       4.311  -5.323  -7.370  0.00  0.00    +0.066 A 
ATOM     21  N   UNL     1       3.201  -4.505  -7.301  0.00  0.00    -0.342 N 
ATOM     22  H   UNL     1       2.582  -4.439  -6.558  0.00  0.00    +0.167 HD
ENDBRANCH   8  13
ENDBRANCH   2   5
BRANCH   1  24
ATOM     23  C   UNL     1       3.880  -0.576  -3.224  0.00  0.00    +0.137 C 
ATOM     24  N   UNL     1       2.935  -1.201  -3.865  0.00  0.00    -0.188 NA
BRANCH  23  27
ATOM     25  C   UNL     1       6.665  -0.507  -1.624  0.00  0.00    +0.035 C 
ATOM     26  C   UNL     1       5.286  -0.348  -0.982  0.00  0.00    +0.124 C 
ATOM     27  C   UNL     1       4.220  -0.970  -1.857  0.00  0.00    +0.012 C 
ATOM     28  C   UNL     1       3.646  -1.949  -1.144  0.00  0.00    +0.025 C 
ATOM     29  N   UNL     1       4.201  -2.056   0.105  0.00  0.00    -0.267 N 
ATOM     30  N   UNL     1       5.216  -1.103   0.280  0.00  0.00    -0.246 N 
ATOM     31  C   UNL     1       2.528  -2.824  -1.652  0.00  0.00    +0.062 C 
ATOM     32  H   UNL     1       3.929  -2.701   0.776  0.00  0.00    +0.170 HD
BRANCH  30  33
ATOM     33  C   UNL     1       6.003  -0.910   1.419  0.00  0.00    +0.048 A 
ATOM     34  C   UNL     1       6.971   0.086   1.435  0.00  0.00    +0.025 A 
ATOM     35  C   UNL     1       7.746   0.274   2.562  0.00  0.00    +0.002 A 
ATOM     36  C   UNL     1       7.561  -0.528   3.673  0.00  0.00    +0.000 A 
ATOM     37  C   UNL     1       6.599  -1.521   3.660  0.00  0.00    +0.002 A 
ATOM     38  C   UNL     1       5.815  -1.711   2.538  0.00  0.00    +0.025 A 
ENDBRANCH  30  33
ENDBRANCH  23  27
ENDBRANCH   1  24
TORSDOF 5
