REMARK  Name = ZINC04798523
REMARK  3 active torsions:
REMARK  status: ('A' for Active; 'I' for Inactive)
REMARK    1  A    between atoms: C_9  and  O_24
REMARK    2  A    between atoms: C_10  and  N_11
REMARK    3  A    between atoms: N_12  and  C_13
REMARK                            x       y       z     vdW  Elec       q    Type
REMARK                         _______ _______ _______ _____ _____    ______ ____
ROOT
ATOM      1  N   UNL     1       4.887   0.035  -0.044  0.00  0.00    -0.145 NA
ATOM      2  N   UNL     1       6.005  -0.608  -0.058  0.00  0.00    -0.148 NA
ENDROOT
BRANCH   2   3
ATOM      3  C   UNL     1       7.186   0.077  -0.066  0.00  0.00    +0.105 A 
ATOM      4  C   UNL     1       7.178   1.485  -0.053  0.00  0.00    +0.031 A 
ATOM      5  C   UNL     1       8.339   2.187  -0.061  0.00  0.00    +0.011 A 
ATOM      6  C   UNL     1       9.573   1.510  -0.081  0.00  0.00    -0.016 A 
ATOM      7  C   UNL     1      10.787   2.217  -0.089  0.00  0.00    +0.008 A 
ATOM      8  C   UNL     1      11.965   1.536  -0.109  0.00  0.00    +0.001 A 
ATOM      9  C   UNL     1      11.989   0.143  -0.121  0.00  0.00    +0.001 A 
ATOM     10  C   UNL     1      10.834  -0.577  -0.115  0.00  0.00    +0.010 A 
ATOM     11  C   UNL     1       9.597   0.092  -0.094  0.00  0.00    +0.003 A 
ATOM     12  C   UNL     1       8.387  -0.620  -0.080  0.00  0.00    +0.076 A 
ATOM     13 CL   UNL     1       8.393  -2.356  -0.089  0.00  0.00    -0.081 Cl
ENDBRANCH   2   3
BRANCH   1  23
ATOM     14  C   UNL     1      -0.016   1.358   0.009  0.00  0.00    +0.001 A 
ATOM     15  C   UNL     1       1.167   2.091   0.002  0.00  0.00    +0.001 A 
ATOM     16  C   UNL     1       2.379   1.465  -0.013  0.00  0.00    +0.011 A 
ATOM     17  C   UNL     1       2.434   0.066  -0.021  0.00  0.00    +0.013 A 
ATOM     18  C   UNL     1       1.232  -0.682  -0.013  0.00  0.00    -0.016 A 
ATOM     19  C   UNL     1       0.002  -0.004   0.002  0.00  0.00    +0.008 A 
ATOM     20  C   UNL     1       1.290  -2.088  -0.021  0.00  0.00    +0.012 A 
ATOM     21  C   UNL     1       2.486  -2.735  -0.035  0.00  0.00    +0.048 A 
ATOM     22  C   UNL     1       3.696  -2.044  -0.043  0.00  0.00    +0.144 A 
ATOM     23  C   UNL     1       3.711  -0.646  -0.036  0.00  0.00    +0.135 A 
BRANCH  22  24
ATOM     24  O   UNL     1       4.865  -2.731  -0.057  0.00  0.00    -0.505 OA
ATOM     25  H   UNL     1       5.196  -2.926  -0.944  0.00  0.00    +0.292 HD
ENDBRANCH  22  24
ENDBRANCH   1  23
TORSDOF 3
