REMARK  Name = ZINC08649721
REMARK  5 active torsions:
REMARK  status: ('A' for Active; 'I' for Inactive)
REMARK    1  A    between atoms: C_1  and  C_2
REMARK    2  A    between atoms: C_5  and  C_22
REMARK    3  A    between atoms: C_6  and  C_10
REMARK    4  A    between atoms: C_10  and  C_11
REMARK    5  A    between atoms: C_20  and  O_21
REMARK                            x       y       z     vdW  Elec       q    Type
REMARK                         _______ _______ _______ _____ _____    ______ ____
ROOT
ATOM      1  C   UNL     1      -3.589   6.753   5.278  0.00  0.00    +0.086 C 
ATOM      2  C   UNL     1      -2.928   6.506   3.946  0.00  0.00    +0.107 A 
ATOM      3  N   UNL     1      -3.212   5.376   3.272  0.00  0.00    -0.234 NA
ATOM      4  H   UNL     1      -1.883   8.308   4.048  0.00  0.00    +0.170 HD
ATOM      5  C   UNL     1      -2.630   5.127   2.056  0.00  0.00    +0.082 A 
ATOM      6  C   UNL     1      -1.749   6.039   1.546  0.00  0.00    +0.047 A 
ATOM      7  C   UNL     1      -1.479   7.207   2.293  0.00  0.00    +0.256 A 
ATOM      8  O   UNL     1      -0.700   8.045   1.866  0.00  0.00    -0.267 OA
ATOM      9  N   UNL     1      -2.094   7.392   3.476  0.00  0.00    -0.311 N 
ENDROOT
BRANCH   5  10
ATOM     10  C   UNL     1      -2.950   3.893   1.308  0.00  0.00    +0.001 A 
ATOM     11  C   UNL     1      -3.316   3.963  -0.037  0.00  0.00    +0.010 A 
ATOM     12  C   UNL     1      -3.610   2.807  -0.731  0.00  0.00    +0.001 A 
ATOM     13  C   UNL     1      -3.552   1.581  -0.093  0.00  0.00    +0.000 A 
ATOM     14  C   UNL     1      -3.195   1.504   1.242  0.00  0.00    +0.001 A 
ATOM     15  C   UNL     1      -2.894   2.652   1.945  0.00  0.00    +0.010 A 
ENDBRANCH   5  10
BRANCH   6  16
ATOM     16  C   UNL     1      -1.081   5.804   0.215  0.00  0.00    +0.082 C 
BRANCH  16  17
ATOM     17  C   UNL     1       0.387   5.536   0.431  0.00  0.00    +0.006 A 
ATOM     18  C   UNL     1       0.826   4.248   0.780  0.00  0.00    -0.011 A 
ATOM     19  C   UNL     1      -0.082   3.186   0.936  0.00  0.00    +0.009 A 
ATOM     20  C   UNL     1       0.379   1.950   1.268  0.00  0.00    +0.001 A 
ATOM     21  C   UNL     1       1.739   1.721   1.469  0.00  0.00    +0.001 A 
ATOM     22  C   UNL     1       2.647   2.725   1.327  0.00  0.00    +0.008 A 
ATOM     23  C   UNL     1       2.210   4.014   0.978  0.00  0.00    -0.017 A 
ATOM     24  C   UNL     1       3.119   5.075   0.823  0.00  0.00    +0.012 A 
ATOM     25  C   UNL     1       2.662   6.311   0.484  0.00  0.00    +0.046 A 
ATOM     26  C   UNL     1       1.297   6.544   0.288  0.00  0.00    +0.121 A 
BRANCH  26  27
ATOM     27  O   UNL     1       0.871   7.789  -0.050  0.00  0.00    -0.506 OA
ATOM     28  H   UNL     1       1.599   8.606  -0.167  0.00  0.00    +0.292 HD
ENDBRANCH  26  27
ENDBRANCH  16  17
ENDBRANCH   6  16
TORSDOF 4
