REMARK  Name = ZINC08799036
REMARK  7 active torsions:
REMARK  status: ('A' for Active; 'I' for Inactive)
REMARK    1  A    between atoms: C_1  and  N_2
REMARK    2  A    between atoms: C_10  and  C_12
REMARK    3  A    between atoms: C_12  and  C_14
REMARK    4  A    between atoms: C_12  and  N_63
REMARK    5  A    between atoms: C_14  and  N_15
REMARK    6  A    between atoms: N_15  and  S_16
REMARK    7  A    between atoms: S_16  and  C_19
REMARK                            x       y       z     vdW  Elec       q    Type
REMARK                         _______ _______ _______ _____ _____    ______ ____
ROOT
ATOM      1  C   UNL     1       4.207   1.362  -3.675  0.00  0.00    -0.022 C 
ENDROOT
BRANCH   1  11
ATOM      2  C   UNL     1       3.051   6.619  -6.987  0.00  0.00    +0.129 C 
ATOM      3  N   UNL     1       4.390   6.019  -6.914  0.00  0.00    -0.333 N 
ATOM      4  C   UNL     1       5.390   7.014  -6.522  0.00  0.00    +0.105 C 
ATOM      5  C   UNL     1       6.759   6.327  -6.436  0.00  0.00    +0.024 C 
ATOM      6  C   UNL     1       6.727   5.360  -5.250  0.00  0.00    +0.038 C 
ATOM      7  C   UNL     1       5.466   4.536  -5.301  0.00  0.00    -0.026 A 
ATOM      8  C   UNL     1       4.388   4.892  -6.093  0.00  0.00    +0.033 A 
ATOM      9  C   UNL     1       3.243   4.094  -6.091  0.00  0.00    +0.023 A 
ATOM     10  C   UNL     1       3.185   2.959  -5.311  0.00  0.00    +0.004 A 
ATOM     11  C   UNL     1       4.266   2.605  -4.526  0.00  0.00    -0.059 A 
ATOM     12  C   UNL     1       5.399   3.395  -4.518  0.00  0.00    +0.007 A 
ENDBRANCH   1  11
BRANCH   1  17
ATOM     13  C   UNL     1       4.337   0.166  -5.792  0.00  0.00    -0.078 C 
ATOM     14  C   UNL     1       4.053  -1.290  -6.240  0.00  0.00    -0.020 C 
ATOM     15  C   UNL     1       4.155  -2.085  -4.918  0.00  0.00    -0.020 C 
ATOM     16  C   UNL     1       3.918  -1.047  -3.805  0.00  0.00    -0.078 C 
ATOM     17  N   UNL     1       3.668   0.226  -4.483  0.00  0.00    +0.385 N 
ATOM     18  H   UNL     1       2.658   0.357  -4.615  0.00  0.00    -0.081 HD
ENDBRANCH   1  17
BRANCH   1  19
ATOM     19  C   UNL     1       3.302   1.614  -2.467  0.00  0.00    +0.095 C 
BRANCH  19  20
ATOM     20  N   UNL     1       3.351   0.456  -1.571  0.00  0.00    -0.191 NA
ATOM     21  H   UNL     1       3.728  -0.382  -1.882  0.00  0.00    +0.148 HD
BRANCH  20  22
ATOM     22  S   UNL     1       2.764   0.578  -0.028  0.00  0.00    +0.058 S 
ATOM     23  O   UNL     1       3.327   1.758   0.529  0.00  0.00    -0.153 OA
ATOM     24  O   UNL     1       2.927  -0.700   0.572  0.00  0.00    -0.153 OA
BRANCH  22  25
ATOM     25  C   UNL     1       1.029   0.859  -0.151  0.00  0.00    +0.106 A 
ATOM     26  C   UNL     1       0.548   2.165  -0.221  0.00  0.00    +0.029 A 
ATOM     27  C   UNL     1      -0.786   2.417  -0.317  0.00  0.00    +0.010 A 
ATOM     28  C   UNL     1      -1.695   1.346  -0.348  0.00  0.00    -0.018 A 
ATOM     29  C   UNL     1      -3.080   1.566  -0.446  0.00  0.00    +0.008 A 
ATOM     30  C   UNL     1      -3.930   0.504  -0.472  0.00  0.00    +0.001 A 
ATOM     31  C   UNL     1      -3.450  -0.802  -0.404  0.00  0.00    +0.001 A 
ATOM     32  C   UNL     1      -2.116  -1.054  -0.308  0.00  0.00    +0.008 A 
ATOM     33  C   UNL     1      -1.206   0.017  -0.283  0.00  0.00    -0.016 A 
ATOM     34  C   UNL     1       0.178  -0.203  -0.178  0.00  0.00    +0.037 A 
ENDBRANCH  22  25
ENDBRANCH  20  22
ENDBRANCH  19  20
ENDBRANCH   1  19
TORSDOF 6
