REMARK  Name = ZINC51149472
REMARK  6 active torsions:
REMARK  status: ('A' for Active; 'I' for Inactive)
REMARK    1  A    between atoms: C_3  and  O_11
REMARK    2  A    between atoms: C_6  and  C_7
REMARK    3  A    between atoms: O_11  and  C_12
REMARK    4  A    between atoms: C_12  and  C_13
REMARK    5  A    between atoms: C_14  and  N_18
REMARK    6  A    between atoms: N_18  and  N_19
REMARK                            x       y       z     vdW  Elec       q    Type
REMARK                         _______ _______ _______ _____ _____    ______ ____
ROOT
ATOM      1  O   UNL     1       3.548   2.104  -0.021  0.00  0.00    -0.486 OA
ENDROOT
BRANCH   1   4
ATOM      2  C   UNL     1      -0.017   1.378   0.010  0.00  0.00    +0.016 A 
ATOM      3  C   UNL     1       1.169   2.087   0.002  0.00  0.00    +0.046 A 
ATOM      4  C   UNL     1       2.380   1.409  -0.013  0.00  0.00    +0.121 A 
ATOM      5  C   UNL     1       2.396   0.022  -0.021  0.00  0.00    +0.046 A 
ATOM      6  C   UNL     1       1.207  -0.681  -0.013  0.00  0.00    +0.016 A 
ATOM      7  C   UNL     1       0.002  -0.004   0.002  0.00  0.00    +0.055 A 
BRANCH   7   8
ATOM      8  C   UNL     1      -1.293  -0.774   0.011  0.00  0.00    +0.417 C 
ATOM      9  F   UNL     1      -1.707  -1.005  -1.306  0.00  0.00    -0.166 F 
ATOM     10  F   UNL     1      -1.104  -1.998   0.662  0.00  0.00    -0.166 F 
ATOM     11  F   UNL     1      -2.271  -0.034   0.684  0.00  0.00    -0.166 F 
ENDBRANCH   7   8
ENDBRANCH   1   4
BRANCH   1  12
ATOM     12  C   UNL     1       4.756   1.341  -0.036  0.00  0.00    +0.288 C 
BRANCH  12  13
ATOM     13  C   UNL     1       5.940   2.274  -0.043  0.00  0.00    +0.131 A 
ATOM     14  C   UNL     1       6.491   2.730  -1.207  0.00  0.00    +0.126 A 
ATOM     15  S   UNL     1       7.740   3.704  -0.642  0.00  0.00    +0.053 S 
ATOM     16  N   UNL     1       7.510   3.492   1.004  0.00  0.00    -0.108 NA
ATOM     17  N   UNL     1       6.495   2.698   1.070  0.00  0.00    -0.141 NA
BRANCH  14  18
ATOM     18  N   UNL     1       6.117   2.458  -2.520  0.00  0.00    -0.274 N 
ATOM     19  H   UNL     1       5.367   1.870  -2.699  0.00  0.00    +0.167 HD
BRANCH  18  20
ATOM     20  N   UNL     1       6.806   3.020  -3.557  0.00  0.00    -0.256 NA
ATOM     21  H   UNL     1       7.788   2.799  -3.500  0.00  0.00    +0.140 HD
ATOM     22  H   UNL     1       6.421   2.733  -4.445  0.00  0.00    +0.140 HD
ENDBRANCH  18  20
ENDBRANCH  14  18
ENDBRANCH  12  13
ENDBRANCH   1  12
TORSDOF 6
