REMARK  Name = ZINC39709346
REMARK  9 active torsions:
REMARK  status: ('A' for Active; 'I' for Inactive)
REMARK    1  A    between atoms: C_1  and  C_2
REMARK    2  A    between atoms: C_2  and  C_3
REMARK    3  A    between atoms: C_8  and  C_12
REMARK    4  A    between atoms: C_12  and  C_14
REMARK    5  A    between atoms: C_14  and  S_15
REMARK    6  A    between atoms: S_15  and  C_16
REMARK    7  A    between atoms: C_20  and  C_27
REMARK    8  A    between atoms: N_22  and  C_23
REMARK    9  A    between atoms: C_23  and  C_24
REMARK                            x       y       z     vdW  Elec       q    Type
REMARK                         _______ _______ _______ _____ _____    ______ ____
ROOT
ATOM      1  C   UNL     1       9.656  -1.729  -3.671  0.00  0.00    +0.078 C 
ATOM      2  N   UNL     1       9.868  -0.482  -2.891  0.00  0.00    -0.262 NA
ATOM      3  N   UNL     1      10.754  -0.918  -1.800  0.00  0.00    -0.267 NA
ATOM      4  C   UNL     1      10.268  -2.272  -1.449  0.00  0.00    +0.050 C 
ATOM      5  N   UNL     1       9.570  -2.793  -2.645  0.00  0.00    +0.417 N 
ATOM      6  H   UNL     1      10.312   0.227  -3.455  0.00  0.00    +0.140 HD
ATOM      7  H   UNL     1      11.715  -0.947  -2.105  0.00  0.00    +0.139 HD
ATOM      8  H   UNL     1       8.604  -2.985  -2.425  0.00  0.00    -0.074 HD
ENDROOT
BRANCH   4   9
ATOM      9  C   UNL     1      11.432  -3.165  -1.102  0.00  0.00    -0.046 A 
ATOM     10  C   UNL     1      12.570  -3.152  -1.887  0.00  0.00    +0.005 A 
ATOM     11  C   UNL     1      13.637  -3.971  -1.570  0.00  0.00    +0.020 A 
ATOM     12  C   UNL     1      13.567  -4.802  -0.466  0.00  0.00    +0.041 A 
ATOM     13  C   UNL     1      12.428  -4.814   0.319  0.00  0.00    +0.020 A 
ATOM     14  C   UNL     1      11.363  -3.991   0.004  0.00  0.00    +0.005 A 
ATOM     15 CL   UNL     1      14.907  -5.831  -0.067  0.00  0.00    -0.084 Cl
ENDBRANCH   4   9
BRANCH   1  16
ATOM     16  S   UNL     1       8.111  -1.632  -4.617  0.00  0.00    -0.152 S 
BRANCH  16  17
ATOM     17  C   UNL     1       6.846  -1.311  -3.358  0.00  0.00    +0.148 C 
BRANCH  17  18
ATOM     18  C   UNL     1       5.495  -1.206  -4.018  0.00  0.00    +0.171 C 
ATOM     19  O   UNL     1       5.396  -1.335  -5.222  0.00  0.00    -0.291 OA
BRANCH  18  25
ATOM     20  C   UNL     1       0.725  -0.413  -2.766  0.00  0.00    -0.024 A 
ATOM     21  C   UNL     1       0.265  -0.501  -4.033  0.00  0.00    +0.005 A 
ATOM     22  C   UNL     1       1.121  -0.745  -5.119  0.00  0.00    +0.001 A 
ATOM     23  C   UNL     1       2.455  -0.907  -4.970  0.00  0.00    +0.010 A 
ATOM     24  C   UNL     1       3.042  -0.834  -3.685  0.00  0.00    +0.006 A 
ATOM     25  C   UNL     1       4.346  -0.958  -3.238  0.00  0.00    +0.024 C 
ATOM     26  C   UNL     1       4.280  -0.772  -1.738  0.00  0.00    +0.152 C 
ATOM     27  N   UNL     1       2.868  -0.543  -1.419  0.00  0.00    -0.380 N 
ATOM     28  C   UNL     1       2.167  -0.572  -2.516  0.00  0.00    +0.046 A 
ATOM     29  H   UNL     1       2.511  -0.390  -0.529  0.00  0.00    +0.160 HD
BRANCH  20  31
ATOM     30  C   UNL     1      -0.264   1.350  -1.331  0.00  0.00    +0.009 C 
ATOM     31  C   UNL     1      -0.224  -0.150  -1.625  0.00  0.00    +0.034 C 
ENDBRANCH  20  31
ENDBRANCH  18  25
ENDBRANCH  17  18
ENDBRANCH  16  17
ENDBRANCH   1  16
BRANCH   5  32
ATOM     32  C   UNL     1      10.231  -4.013  -3.127  0.00  0.00    +0.055 C 
BRANCH  32  33
ATOM     33  C   UNL     1       9.425  -4.611  -4.251  0.00  0.00    +0.340 C 
ATOM     34  O   UNL     1       8.395  -4.070  -4.617  0.00  0.00    -0.249 OA
ATOM     35  O   UNL     1       9.803  -5.635  -4.795  0.00  0.00    -0.249 OA
ENDBRANCH  32  33
ENDBRANCH   5  32
TORSDOF 8
