REMARK  Name = ZINC33051548
REMARK  9 active torsions:
REMARK  status: ('A' for Active; 'I' for Inactive)
REMARK    1  A    between atoms: C_1  and  C_2
REMARK    2  A    between atoms: C_5  and  C_8
REMARK    3  A    between atoms: C_8  and  N_9
REMARK    4  A    between atoms: C_15  and  C_41
REMARK    5  A    between atoms: N_17  and  C_35
REMARK    6  A    between atoms: C_24  and  C_26
REMARK    7  A    between atoms: C_29  and  C_32
REMARK    8  A    between atoms: C_32  and  C_33
REMARK    9  A    between atoms: C_32  and  C_34
REMARK                            x       y       z     vdW  Elec       q    Type
REMARK                         _______ _______ _______ _____ _____    ______ ____
ROOT
ATOM      1  N   UNL     1       3.199   4.477   3.269  0.00  0.00    -0.295 N 
ATOM      2  C   UNL     1       2.559   4.835   2.138  0.00  0.00    +0.304 C 
ATOM      3  O   UNL     1       2.435   6.011   1.855  0.00  0.00    -0.253 OA
ATOM      4  N   UNL     1       2.057   3.889   1.320  0.00  0.00    -0.269 N 
ATOM      5  C   UNL     1       2.184   2.443   1.623  0.00  0.00    +0.151 C 
ATOM      6  C   UNL     1       2.468   1.644   0.385  0.00  0.00    +0.035 A 
ATOM      7  C   UNL     1       3.630   0.969   0.023  0.00  0.00    +0.067 A 
ATOM      8  N   UNL     1       3.408   0.337  -1.105  0.00  0.00    -0.169 NA
ATOM      9  N   UNL     1       2.083   0.589  -1.502  0.00  0.00    -0.215 N 
ATOM     10  C   UNL     1       1.539   1.415  -0.590  0.00  0.00    +0.146 A 
ATOM     11  N   UNL     1       0.279   2.020  -0.529  0.00  0.00    -0.303 N 
ATOM     12  C   UNL     1      -0.955   1.509  -0.745  0.00  0.00    +0.093 A 
ATOM     13  C   UNL     1      -1.859   2.479  -0.476  0.00  0.00    +0.020 A 
ATOM     14  C   UNL     1      -1.143   3.634  -0.092  0.00  0.00    +0.025 A 
ATOM     15  C   UNL     1       0.165   3.338  -0.162  0.00  0.00    +0.050 A 
ATOM     16  C   UNL     1       1.347   4.233   0.066  0.00  0.00    +0.155 C 
ATOM     17  C   UNL     1       4.924   0.966   0.795  0.00  0.00    +0.068 C 
ATOM     18  H   UNL     1       3.311   3.413   3.524  0.00  0.00    +0.151 HD
ENDROOT
BRANCH  16  19
ATOM     19  C   UNL     1       2.300   4.096  -1.093  0.00  0.00    -0.021 A 
ATOM     20  C   UNL     1       3.664   4.087  -0.869  0.00  0.00    +0.006 A 
ATOM     21  C   UNL     1       4.538   3.956  -1.932  0.00  0.00    +0.004 A 
ATOM     22  C   UNL     1       4.048   3.843  -3.220  0.00  0.00    -0.045 A 
ATOM     23  C   UNL     1       2.684   3.857  -3.444  0.00  0.00    +0.004 A 
ATOM     24  C   UNL     1       1.810   3.983  -2.381  0.00  0.00    +0.006 A 
BRANCH  22  25
ATOM     25  C   UNL     1       5.001   3.705  -4.379  0.00  0.00    +0.013 C 
ATOM     26  C   UNL     1       5.915   4.931  -4.437  0.00  0.00    +0.012 C 
ATOM     27  C   UNL     1       5.849   2.445  -4.195  0.00  0.00    +0.012 C 
ENDBRANCH  22  25
ENDBRANCH  16  19
BRANCH   9  28
ATOM     28  C   UNL     1       1.446   0.073  -2.639  0.00  0.00    +0.068 A 
ATOM     29  C   UNL     1       1.647  -1.250  -3.010  0.00  0.00    +0.028 A 
ATOM     30  C   UNL     1       1.014  -1.756  -4.128  0.00  0.00    +0.002 A 
ATOM     31  C   UNL     1       0.190  -0.943  -4.885  0.00  0.00    +0.000 A 
ATOM     32  C   UNL     1      -0.008   0.376  -4.522  0.00  0.00    +0.002 A 
ATOM     33  C   UNL     1       0.618   0.886  -3.401  0.00  0.00    +0.028 A 
ENDBRANCH   9  28
BRANCH   1  34
ATOM     34  C   UNL     1       3.745   5.506   4.158  0.00  0.00    +0.141 C 
BRANCH  34  39
ATOM     35  C   UNL     1       6.277   2.983   8.698  0.00  0.00    +0.044 C 
ATOM     36  C   UNL     1       5.616   3.641   7.514  0.00  0.00    -0.050 A 
ATOM     37  C   UNL     1       6.350   3.908   6.374  0.00  0.00    +0.003 A 
ATOM     38  C   UNL     1       5.745   4.512   5.287  0.00  0.00    +0.005 A 
ATOM     39  C   UNL     1       4.405   4.848   5.342  0.00  0.00    -0.030 A 
ATOM     40  C   UNL     1       3.672   4.585   6.484  0.00  0.00    +0.005 A 
ATOM     41  C   UNL     1       4.277   3.978   7.569  0.00  0.00    +0.003 A 
ENDBRANCH  34  39
ENDBRANCH   1  34
TORSDOF 5
