REMARK  Name = ZINC06894651
REMARK  4 active torsions:
REMARK  status: ('A' for Active; 'I' for Inactive)
REMARK    1  A    between atoms: C_1  and  C_2
REMARK    2  A    between atoms: C_2  and  C_4
REMARK    3  A    between atoms: C_8  and  N_10
REMARK    4  A    between atoms: C_11  and  C_13
REMARK                            x       y       z     vdW  Elec       q    Type
REMARK                         _______ _______ _______ _____ _____    ______ ____
ROOT
ATOM      1  C   UNL     1      -2.782   0.488   2.132  0.00  0.00    +0.076 C 
ATOM      2  C   UNL     1      -1.243   0.492   2.033  0.00  0.00    -0.003 C 
ATOM      3  C   UNL     1      -0.883   1.722   1.191  0.00  0.00    -0.066 C 
ATOM      4  C   UNL     1      -0.170   1.298  -0.101  0.00  0.00    -0.017 C 
ATOM      5  C   UNL     1      -1.063   1.827  -1.247  0.00  0.00    -0.020 C 
ATOM      6  C   UNL     1      -2.453   1.942  -0.576  0.00  0.00    -0.077 C 
ATOM      7  C   UNL     1      -3.191   1.906   1.718  0.00  0.00    +0.052 C 
ATOM      8  C   UNL     1      -4.544   1.913   1.062  0.00  0.00    -0.027 A 
ATOM      9  C   UNL     1      -5.056   1.299  -0.059  0.00  0.00    +0.004 A 
ATOM     10  C   UNL     1      -6.376   1.504  -0.420  0.00  0.00    +0.000 A 
ATOM     11  C   UNL     1      -7.178   2.328   0.348  0.00  0.00    +0.002 A 
ATOM     12  C   UNL     1      -6.670   2.946   1.471  0.00  0.00    +0.023 A 
ATOM     13  C   UNL     1      -5.342   2.744   1.842  0.00  0.00    +0.036 A 
ATOM     14  N   UNL     1      -4.607   3.249   2.917  0.00  0.00    -0.286 N 
ATOM     15  C   UNL     1      -3.337   2.804   2.917  0.00  0.00    +0.212 C 
ATOM     16  O   UNL     1      -2.476   3.074   3.728  0.00  0.00    -0.277 OA
ATOM     17  H   UNL     1      -4.971   3.850   3.586  0.00  0.00    +0.155 HD
ATOM     18  N   UNL     1      -2.133   2.359   0.803  0.00  0.00    +0.394 N 
ATOM     19  H   UNL     1      -2.042   3.381   0.850  0.00  0.00    -0.079 HD
ENDROOT
BRANCH   1  21
ATOM     20  N   UNL     1      -4.603  -1.026   1.415  0.00  0.00    -0.285 N 
ATOM     21  C   UNL     1      -3.371  -0.528   1.187  0.00  0.00    +0.220 C 
ATOM     22  O   UNL     1      -2.737  -0.897   0.221  0.00  0.00    -0.275 OA
ATOM     23  H   UNL     1      -5.139  -0.677   2.144  0.00  0.00    +0.155 HD
BRANCH  20  28
ATOM     24  C   UNL     1      -6.963  -3.130  -0.484  0.00  0.00    +0.019 A 
ATOM     25  C   UNL     1      -6.087  -4.080  -1.019  0.00  0.00    +0.011 A 
ATOM     26  C   UNL     1      -4.738  -4.007  -0.743  0.00  0.00    +0.002 A 
ATOM     27  C   UNL     1      -4.246  -2.995   0.063  0.00  0.00    +0.023 A 
ATOM     28  C   UNL     1      -5.107  -2.046   0.600  0.00  0.00    +0.034 A 
ATOM     29  C   UNL     1      -6.465  -2.112   0.333  0.00  0.00    +0.034 A 
BRANCH  24  31
ATOM     30  C   UNL     1      -8.937  -4.308  -1.655  0.00  0.00    +0.091 C 
ATOM     31  C   UNL     1      -8.403  -3.205  -0.777  0.00  0.00    +0.160 C 
ATOM     32  O   UNL     1      -9.160  -2.380  -0.312  0.00  0.00    -0.292 OA
ENDBRANCH  24  31
ENDBRANCH  20  28
ENDBRANCH   1  21
TORSDOF 3
