REMARK  Name = ZINC41464071
REMARK  4 active torsions:
REMARK  status: ('A' for Active; 'I' for Inactive)
REMARK    1  A    between atoms: C_1  and  C_2
REMARK    2  A    between atoms: C_4  and  C_22
REMARK    3  A    between atoms: C_8  and  C_18
REMARK    4  A    between atoms: C_18  and  C_19
REMARK                            x       y       z     vdW  Elec       q    Type
REMARK                         _______ _______ _______ _____ _____    ______ ____
ROOT
ATOM      1  C   UNL     1      -0.081   1.139  -0.316  0.00  0.00    +0.044 C 
ATOM      2  C   UNL     1       0.135  -0.350  -0.219  0.00  0.00    -0.050 A 
ATOM      3  C   UNL     1       0.362  -1.092  -1.363  0.00  0.00    +0.010 A 
ATOM      4  C   UNL     1       0.563  -2.454  -1.272  0.00  0.00    -0.008 A 
ATOM      5  C   UNL     1       0.535  -3.085  -0.033  0.00  0.00    +0.128 A 
ATOM      6  C   UNL     1       0.303  -2.341   1.111  0.00  0.00    -0.002 A 
ATOM      7  C   UNL     1       0.112  -0.972   1.014  0.00  0.00    +0.011 A 
ATOM      8  C   UNL     1       0.250  -2.986   2.472  0.00  0.00    +0.035 C 
ATOM      9  C   UNL     1       0.909  -4.367   2.415  0.00  0.00    +0.056 C 
ATOM     10  C   UNL     1       0.350  -5.119   1.202  0.00  0.00    +0.111 C 
ATOM     11  O   UNL     1       0.743  -4.427   0.017  0.00  0.00    -0.485 OA
ATOM     12  C   UNL     1      -1.175  -5.168   1.288  0.00  0.00    +0.048 C 
ATOM     13  C   UNL     1      -1.730  -5.918   0.075  0.00  0.00    +0.004 C 
ATOM     14  C   UNL     1      -1.171  -7.342   0.056  0.00  0.00    +0.000 C 
ATOM     15  C   UNL     1       0.355  -7.290  -0.033  0.00  0.00    +0.004 C 
ATOM     16  C   UNL     1       0.911  -6.541   1.179  0.00  0.00    +0.048 C 
ATOM     17  C   UNL     1       0.811  -3.261  -2.521  0.00  0.00    +0.047 C 
ENDROOT
BRANCH   8  18
ATOM     18  C   UNL     1       0.996  -2.109   3.480  0.00  0.00    +0.104 C 
BRANCH  18  19
ATOM     19  C   UNL     1       0.819  -2.675   4.865  0.00  0.00    +0.211 C 
ATOM     20  O   UNL     1       0.073  -3.614   5.046  0.00  0.00    -0.276 OA
ATOM     21  N   UNL     1       1.490  -2.138   5.904  0.00  0.00    -0.329 N 
ATOM     22  H   UNL     1       2.086  -1.387   5.759  0.00  0.00    +0.145 HD
ATOM     23  H   UNL     1       1.376  -2.502   6.795  0.00  0.00    +0.145 HD
ENDBRANCH  18  19
ENDBRANCH   8  18
TORSDOF 2
