REMARK  Name = ZINC37317792
REMARK  7 active torsions:
REMARK  status: ('A' for Active; 'I' for Inactive)
REMARK    1  A    between atoms: C_1  and  O_2
REMARK    2  A    between atoms: O_2  and  C_3
REMARK    3  A    between atoms: C_9  and  N_11
REMARK    4  A    between atoms: N_11  and  C_12
REMARK    5  A    between atoms: C_15  and  C_18
REMARK    6  A    between atoms: C_18  and  S_19
REMARK    7  A    between atoms: S_19  and  N_22
REMARK                            x       y       z     vdW  Elec       q    Type
REMARK                         _______ _______ _______ _____ _____    ______ ____
ROOT
ATOM      1  C   UNL     1       0.328  -3.865  -0.749  0.00  0.00    +0.027 A 
ATOM      2  C   UNL     1       0.047  -4.051  -2.097  0.00  0.00    +0.023 A 
ATOM      3  C   UNL     1       0.661  -5.072  -2.794  0.00  0.00    +0.007 A 
ATOM      4  C   UNL     1       1.554  -5.910  -2.153  0.00  0.00    -0.025 A 
ATOM      5  C   UNL     1       1.836  -5.728  -0.811  0.00  0.00    +0.007 A 
ATOM      6  C   UNL     1       1.230  -4.705  -0.109  0.00  0.00    +0.023 A 
ENDROOT
BRANCH   1   7
ATOM      7  N   UNL     1      -0.290  -2.832  -0.041  0.00  0.00    -0.339 N 
ATOM      8  H   UNL     1      -0.090  -2.701   0.899  0.00  0.00    +0.146 HD
BRANCH   7  14
ATOM      9  C   UNL     1      -1.295  -0.603   0.011  0.00  0.00    +0.138 C 
ATOM     10  C   UNL     1      -1.745  -0.825   1.457  0.00  0.00    +0.033 C 
ATOM     11  C   UNL     1      -3.134  -1.466   1.467  0.00  0.00    +0.003 C 
ATOM     12  C   UNL     1      -3.080  -2.810   0.738  0.00  0.00    +0.002 C 
ATOM     13  C   UNL     1      -2.631  -2.588  -0.708  0.00  0.00    +0.025 C 
ATOM     14  C   UNL     1      -1.242  -1.947  -0.718  0.00  0.00    +0.099 C 
BRANCH   9  16
ATOM     15  C   UNL     1      -0.017   1.425   0.010  0.00  0.00    +0.194 C 
ATOM     16  O   UNL     1       0.002  -0.004   0.002  0.00  0.00    -0.378 OA
ENDBRANCH   9  16
ENDBRANCH   7  14
ENDBRANCH   1   7
BRANCH   4  17
ATOM     17  C   UNL     1       2.221  -7.025  -2.917  0.00  0.00    +0.219 C 
BRANCH  17  18
ATOM     18  S   UNL     1       3.773  -6.420  -3.637  0.00  0.00    +0.031 S 
ATOM     19  O   UNL     1       3.501  -5.463  -4.652  0.00  0.00    -0.158 OA
ATOM     20  O   UNL     1       4.712  -6.139  -2.608  0.00  0.00    -0.158 OA
BRANCH  18  21
ATOM     21  N   UNL     1       4.404  -7.722  -4.442  0.00  0.00    -0.208 NA
ATOM     22  H   UNL     1       4.953  -7.586  -5.230  0.00  0.00    +0.144 HD
ATOM     23  H   UNL     1       4.225  -8.622  -4.125  0.00  0.00    +0.144 HD
ENDBRANCH  18  21
ENDBRANCH  17  18
ENDBRANCH   4  17
TORSDOF 6
