REMARK  Name = ZINC35486941
REMARK  11 active torsions:
REMARK  status: ('A' for Active; 'I' for Inactive)
REMARK    1  A    between atoms: C_1  and  C_2
REMARK    2  A    between atoms: C_2  and  O_3
REMARK    3  A    between atoms: O_3  and  C_4
REMARK    4  A    between atoms: C_6  and  C_11
REMARK    5  A    between atoms: C_9  and  O_10
REMARK    6  A    between atoms: N_26  and  C_27
REMARK    7  A    between atoms: C_27  and  C_28
REMARK    8  A    between atoms: C_28  and  C_29
REMARK    9  A    between atoms: C_29  and  N_30
REMARK   10  A    between atoms: N_30  and  C_31
REMARK   11  A    between atoms: N_30  and  C_32
REMARK                            x       y       z     vdW  Elec       q    Type
REMARK                         _______ _______ _______ _____ _____    ______ ____
ROOT
ATOM      1  C   UNL     1       0.654  -4.954  -0.018  0.00  0.00    +0.145 C 
ATOM      2  C   UNL     1       0.892  -5.511   1.347  0.00  0.00    +0.072 A 
ATOM      3  C   UNL     1       1.194  -4.850   2.621  0.00  0.00    +0.199 A 
ATOM      4  O   UNL     1       1.126  -3.644   2.779  0.00  0.00    -0.287 OA
ATOM      5  C   UNL     1       1.590  -5.790   3.700  0.00  0.00    +0.065 A 
ATOM      6  C   UNL     1       2.097  -5.308   4.906  0.00  0.00    +0.030 A 
ATOM      7  C   UNL     1       2.465  -6.195   5.893  0.00  0.00    +0.019 A 
ATOM      8  C   UNL     1       2.329  -7.562   5.686  0.00  0.00    +0.019 A 
ATOM      9  C   UNL     1       1.829  -8.049   4.500  0.00  0.00    +0.048 A 
ATOM     10  C   UNL     1       1.447  -7.171   3.486  0.00  0.00    +0.140 A 
ATOM     11  O   UNL     1       0.948  -7.676   2.334  0.00  0.00    -0.450 OA
ATOM     12  C   UNL     1       0.791  -6.870   1.266  0.00  0.00    +0.199 A 
ATOM     13  C   UNL     1       0.496  -7.229  -0.132  0.00  0.00    +0.283 C 
ATOM     14  O   UNL     1       0.347  -8.363  -0.543  0.00  0.00    -0.267 OA
ATOM     15  N   UNL     1       0.413  -6.115  -0.891  0.00  0.00    -0.284 N 
ATOM     16 BR   UNL     1       3.154  -5.552   7.533  0.00  0.00    -0.050 Br
ENDROOT
BRANCH   1  19
ATOM     17  C   UNL     1      -1.498  -1.849   0.006  0.00  0.00    +0.162 A 
ATOM     18  C   UNL     1      -0.389  -2.680  -0.003  0.00  0.00    +0.055 A 
ATOM     19  C   UNL     1      -0.553  -4.052  -0.008  0.00  0.00    -0.019 A 
ATOM     20  C   UNL     1      -1.823  -4.600  -0.005  0.00  0.00    +0.009 A 
ATOM     21  C   UNL     1      -2.934  -3.777   0.004  0.00  0.00    +0.049 A 
ATOM     22  C   UNL     1      -2.776  -2.400   0.016  0.00  0.00    +0.158 A 
BRANCH  22  23
ATOM     23  O   UNL     1      -3.868  -1.589   0.030  0.00  0.00    -0.503 OA
ATOM     24  H   UNL     1      -4.192  -1.350  -0.849  0.00  0.00    +0.292 HD
ENDBRANCH  22  23
BRANCH  17  25
ATOM     25  O   UNL     1      -1.339  -0.499   0.012  0.00  0.00    -0.489 OA
BRANCH  25  27
ATOM     26  C   UNL     1      -0.019   1.526   0.010  0.00  0.00    +0.048 C 
ATOM     27  C   UNL     1       0.002  -0.004   0.002  0.00  0.00    +0.226 C 
ENDBRANCH  25  27
ENDBRANCH  17  25
ENDBRANCH   1  19
BRANCH  15  28
ATOM     28  C   UNL     1       0.134  -6.068  -2.328  0.00  0.00    +0.107 C 
BRANCH  28  29
ATOM     29  C   UNL     1       1.449  -6.136  -3.106  0.00  0.00    +0.000 C 
BRANCH  29  30
ATOM     30  C   UNL     1       1.157  -6.087  -4.607  0.00  0.00    -0.078 C 
BRANCH  30  31
ATOM     31  N   UNL     1       2.420  -6.152  -5.354  0.00  0.00    +0.376 N 
ATOM     32  C   UNL     1       3.058  -7.455  -5.125  0.00  0.00    -0.097 C 
ATOM     33  C   UNL     1       2.149  -5.986  -6.789  0.00  0.00    -0.097 C 
ATOM     34  H   UNL     1       3.035  -5.417  -5.040  0.00  0.00    -0.083 HD
ENDBRANCH  30  31
ENDBRANCH  29  30
ENDBRANCH  28  29
ENDBRANCH  15  28
TORSDOF 8
