REMARK  Name = ZINC43262823
REMARK  9 active torsions:
REMARK  status: ('A' for Active; 'I' for Inactive)
REMARK    1  A    between atoms: C_1  and  C_2
REMARK    2  A    between atoms: C_2  and  C_4
REMARK    3  A    between atoms: C_2  and  N_22
REMARK    4  A    between atoms: C_4  and  C_6
REMARK    5  A    between atoms: C_4  and  N_12
REMARK    6  A    between atoms: N_12  and  C_13
REMARK    7  A    between atoms: N_12  and  C_16
REMARK    8  A    between atoms: C_13  and  C_14
REMARK    9  A    between atoms: C_14  and  O_15
REMARK                            x       y       z     vdW  Elec       q    Type
REMARK                         _______ _______ _______ _____ _____    ______ ____
ROOT
ATOM      1  C   UNL     1       0.533  -0.469   1.123  0.00  0.00    -0.014 C 
ENDROOT
BRANCH   1   2
ATOM      2  C   UNL     1       2.038  -0.433   1.184  0.00  0.00    -0.021 A 
ATOM      3  C   UNL     1       2.922  -0.053   0.229  0.00  0.00    +0.011 A 
ATOM      4  C   UNL     1       4.275  -0.103   0.510  0.00  0.00    +0.023 A 
ATOM      5  C   UNL     1       4.677  -0.530   1.733  0.00  0.00    +0.055 A 
ATOM      6  S   UNL     1       3.120  -0.872   2.535  0.00  0.00    -0.088 S 
ATOM      7 BR   UNL     1       6.432  -0.710   2.414  0.00  0.00    -0.043 Br
ENDBRANCH   1   2
BRANCH   1   9
ATOM      8  C   UNL     1      -1.463  -1.971   1.153  0.00  0.00    +0.022 C 
ATOM      9  C   UNL     1       0.046  -1.894   1.393  0.00  0.00    +0.039 C 
BRANCH   9  10
ATOM     10  N   UNL     1       0.733  -2.826   0.489  0.00  0.00    -0.329 NA
ATOM     11  H   UNL     1       0.496  -2.638  -0.474  0.00  0.00    +0.118 HD
ATOM     12  H   UNL     1       1.732  -2.794   0.628  0.00  0.00    +0.118 HD
ENDBRANCH   9  10
ENDBRANCH   1   9
BRANCH   1  13
ATOM     13  N   UNL     1      -0.020   0.438   2.137  0.00  0.00    +0.389 N 
ATOM     14  H   UNL     1      -0.962   0.155   2.363  0.00  0.00    -0.080 HD
BRANCH  13  15
ATOM     15  C   UNL     1       0.811   0.384   3.347  0.00  0.00    -0.068 C 
ATOM     16  C   UNL     1       0.869  -1.055   3.863  0.00  0.00    -0.015 C 
ATOM     17  C   UNL     1       1.734  -1.111   5.124  0.00  0.00    -0.002 C 
ATOM     18  C   UNL     1       1.128  -0.207   6.199  0.00  0.00    -0.000 C 
ATOM     19  C   UNL     1       1.071   1.232   5.683  0.00  0.00    -0.002 C 
ATOM     20  C   UNL     1       0.205   1.288   4.423  0.00  0.00    -0.015 C 
ENDBRANCH  13  15
BRANCH  13  21
ATOM     21  C   UNL     1      -0.033   1.810   1.612  0.00  0.00    -0.049 C 
BRANCH  21  22
ATOM     22  C   UNL     1      -1.040   1.907   0.465  0.00  0.00    +0.137 C 
BRANCH  22  23
ATOM     23  O   UNL     1      -2.355   1.653   0.963  0.00  0.00    -0.397 OA
ATOM     24  H   UNL     1      -3.047   1.698   0.288  0.00  0.00    +0.209 HD
ENDBRANCH  22  23
ENDBRANCH  21  22
ENDBRANCH  13  21
ENDBRANCH   1  13
TORSDOF 8
