REMARK  Name = ZINC26509127
REMARK  6 active torsions:
REMARK  status: ('A' for Active; 'I' for Inactive)
REMARK    1  A    between atoms: C_1  and  C_2
REMARK    2  A    between atoms: C_4  and  C_21
REMARK    3  A    between atoms: C_9  and  C_11
REMARK    4  A    between atoms: C_13  and  N_20
REMARK    5  A    between atoms: C_14  and  O_18
REMARK    6  A    between atoms: O_18  and  C_19
REMARK                            x       y       z     vdW  Elec       q    Type
REMARK                         _______ _______ _______ _____ _____    ______ ____
ROOT
ATOM      1  C   UNL     1      -0.017   1.393   0.010  0.00  0.00    +0.040 A 
ATOM      2  C   UNL     1       0.002  -0.004   0.002  0.00  0.00    +0.039 A 
ATOM      3  C   UNL     1       1.211  -0.676  -0.013  0.00  0.00    +0.069 A 
ATOM      4  C   UNL     1       2.408   0.041  -0.021  0.00  0.00    +0.155 A 
ATOM      5  C   UNL     1       2.387   1.429  -0.013  0.00  0.00    +0.062 A 
ATOM      6  C   UNL     1       1.184   2.104   0.002  0.00  0.00    +0.032 A 
ATOM      7 BR   UNL     1       4.012   2.396  -0.023  0.00  0.00    -0.046 Br
ENDROOT
BRANCH   1  16
ATOM      8  C   UNL     1      -7.040   3.661   0.055  0.00  0.00    +0.044 C 
ATOM      9  C   UNL     1      -5.533   3.681   0.048  0.00  0.00    -0.048 A 
ATOM     10  C   UNL     1      -4.860   4.894   0.051  0.00  0.00    +0.010 A 
ATOM     11  C   UNL     1      -3.481   4.929   0.045  0.00  0.00    -0.006 A 
ATOM     12  C   UNL     1      -2.759   3.746   0.035  0.00  0.00    +0.159 A 
ATOM     13  C   UNL     1      -3.436   2.515   0.032  0.00  0.00    +0.110 A 
ATOM     14  C   UNL     1      -4.833   2.495   0.038  0.00  0.00    +0.035 A 
ATOM     15  N   UNL     1      -2.485   1.546   0.017  0.00  0.00    -0.209 NA
ATOM     16  C   UNL     1      -1.305   2.115   0.020  0.00  0.00    +0.228 A 
ATOM     17  O   UNL     1      -1.439   3.455   0.028  0.00  0.00    -0.435 OA
ATOM     18  C   UNL     1      -2.760   6.253   0.049  0.00  0.00    +0.047 C 
ENDBRANCH   1  16
BRANCH   3  19
ATOM     19  N   UNL     1       1.234  -2.076  -0.021  0.00  0.00    -0.355 N 
ATOM     20  H   UNL     1       2.196  -2.610  -0.033  0.00  0.00    +0.142 HD
ATOM     21  H   UNL     1       0.291  -2.642  -0.016  0.00  0.00    +0.142 HD
ENDBRANCH   3  19
BRANCH   4  22
ATOM     22  O   UNL     1       3.595  -0.620  -0.036  0.00  0.00    -0.492 OA
ATOM     23  C   UNL     1       4.149  -0.928  -1.317  0.00  0.00    +0.277 C 
ENDBRANCH   4  22
TORSDOF 3
