REMARK  Name = ZINC13241919
REMARK  9 active torsions:
REMARK  status: ('A' for Active; 'I' for Inactive)
REMARK    1  A    between atoms: C_1  and  C_2
REMARK    2  A    between atoms: C_2  and  N_3
REMARK    3  A    between atoms: C_4  and  C_22
REMARK    4  A    between atoms: C_7  and  S_8
REMARK    5  A    between atoms: S_8  and  C_9
REMARK    6  A    between atoms: C_9  and  C_10
REMARK    7  A    between atoms: N_12  and  C_13
REMARK    8  A    between atoms: C_14  and  C_21
REMARK    9  A    between atoms: C_18  and  C_19
REMARK                            x       y       z     vdW  Elec       q    Type
REMARK                         _______ _______ _______ _____ _____    ______ ____
ROOT
ATOM      1  C   UNL     1      -5.010  -3.968  -0.138  0.00  0.00    +0.173 C 
ENDROOT
BRANCH   1   2
ATOM      2  C   UNL     1      -6.477  -4.309  -0.173  0.00  0.00    +0.228 C 
ATOM      3  O   UNL     1      -7.247  -3.612  -0.798  0.00  0.00    -0.275 OA
ATOM      4  N   UNL     1      -6.934  -5.389   0.491  0.00  0.00    -0.284 N 
ATOM      5  H   UNL     1      -6.312  -5.978   0.947  0.00  0.00    +0.155 HD
BRANCH   4   6
ATOM      6  C   UNL     1      -8.300  -5.661   0.523  0.00  0.00    +0.051 A 
ATOM      7  C   UNL     1      -9.193  -4.693   0.962  0.00  0.00    -0.028 A 
ATOM      8  C   UNL     1     -10.547  -4.963   0.988  0.00  0.00    +0.005 A 
ATOM      9  C   UNL     1     -11.023  -6.201   0.589  0.00  0.00    +0.001 A 
ATOM     10  C   UNL     1     -10.151  -7.176   0.155  0.00  0.00    +0.017 A 
ATOM     11  C   UNL     1      -8.779  -6.916   0.118  0.00  0.00    +0.085 A 
ATOM     12  C   UNL     1      -8.686  -3.345   1.404  0.00  0.00    +0.046 C 
BRANCH  11  13
ATOM     13  C   UNL     1      -7.840  -7.954  -0.345  0.00  0.00    +0.388 C 
ATOM     14  O   UNL     1      -6.642  -7.760  -0.285  0.00  0.00    -0.241 OA
ATOM     15  O   UNL     1      -8.310  -9.118  -0.834  0.00  0.00    -0.241 OA
ENDBRANCH  11  13
ENDBRANCH   4   6
ENDBRANCH   1   2
BRANCH   1  16
ATOM     16  S   UNL     1      -4.714  -2.475  -1.117  0.00  0.00    -0.077 S 
BRANCH  16  21
ATOM     17  N   UNL     1      -2.180  -1.334  -1.440  0.00  0.00    -0.300 N 
ATOM     18  C   UNL     1      -0.902  -1.616  -1.009  0.00  0.00    +0.200 A 
ATOM     19  N   UNL     1      -0.975  -2.705  -0.276  0.00  0.00    -0.125 NA
ATOM     20  N   UNL     1      -2.193  -3.110  -0.212  0.00  0.00    -0.122 NA
ATOM     21  C   UNL     1      -2.972  -2.313  -0.908  0.00  0.00    +0.192 A 
BRANCH  18  22
ATOM     22  C   UNL     1       0.315  -0.848  -1.317  0.00  0.00    +0.172 A 
ATOM     23  C   UNL     1       1.511  -0.952  -0.673  0.00  0.00    +0.053 A 
ATOM     24  C   UNL     1       2.386  -0.039  -1.292  0.00  0.00    +0.042 A 
ATOM     25  C   UNL     1       1.691   0.573  -2.272  0.00  0.00    +0.196 A 
ATOM     26  O   UNL     1       0.440   0.082  -2.284  0.00  0.00    -0.460 OA
ENDBRANCH  18  22
BRANCH  17  28
ATOM     27  C   UNL     1      -2.532  -0.641  -3.759  0.00  0.00    +0.027 C 
ATOM     28  C   UNL     1      -2.602  -0.218  -2.290  0.00  0.00    +0.122 C 
ENDBRANCH  17  28
ENDBRANCH  16  21
ENDBRANCH   1  16
TORSDOF 7
