REMARK  Name = ZINC09595751
REMARK  8 active torsions:
REMARK  status: ('A' for Active; 'I' for Inactive)
REMARK    1  A    between atoms: C_1  and  C_2
REMARK    2  A    between atoms: C_2  and  C_4
REMARK    3  A    between atoms: C_2  and  N_63
REMARK    4  A    between atoms: N_6  and  C_7
REMARK    5  A    between atoms: C_8  and  C_17
REMARK    6  A    between atoms: C_21  and  C_24
REMARK    7  A    between atoms: N_26  and  C_27
REMARK    8  A    between atoms: C_32  and  O_33
REMARK                            x       y       z     vdW  Elec       q    Type
REMARK                         _______ _______ _______ _____ _____    ______ ____
ROOT
ATOM      1  C   UNL     1      -3.894  -1.895  -0.912  0.00  0.00    -0.077 C 
ATOM      2  C   UNL     1      -2.546  -1.606  -0.247  0.00  0.00    -0.006 C 
ATOM      3  C   UNL     1      -1.659  -0.828  -1.223  0.00  0.00    +0.072 C 
ATOM      4  C   UNL     1      -2.374   0.462  -1.633  0.00  0.00    -0.006 C 
ATOM      5  C   UNL     1      -3.727   0.113  -2.257  0.00  0.00    -0.077 C 
ATOM      6  N   UNL     1      -4.542  -0.613  -1.260  0.00  0.00    +0.387 N 
ATOM      7  H   UNL     1      -4.622  -0.039  -0.413  0.00  0.00    -0.081 HD
ENDROOT
BRANCH   3   8
ATOM      8  C   UNL     1      -0.352  -0.488  -0.553  0.00  0.00    +0.220 C 
ATOM      9  O   UNL     1      -0.150  -0.834   0.592  0.00  0.00    -0.275 OA
ATOM     10  N   UNL     1       0.591   0.200  -1.226  0.00  0.00    -0.282 N 
ATOM     11  H   UNL     1       0.399   0.549  -2.111  0.00  0.00    +0.155 HD
BRANCH  10  12
ATOM     12  C   UNL     1       1.848   0.417  -0.646  0.00  0.00    +0.075 A 
ATOM     13  C   UNL     1       2.276  -0.382   0.404  0.00  0.00    +0.027 A 
ATOM     14  C   UNL     1       3.516  -0.166   0.975  0.00  0.00    +0.002 A 
ATOM     15  C   UNL     1       4.333   0.845   0.501  0.00  0.00    +0.004 A 
ATOM     16  C   UNL     1       3.912   1.645  -0.544  0.00  0.00    +0.047 A 
ATOM     17  C   UNL     1       2.673   1.432  -1.126  0.00  0.00    +0.138 A 
BRANCH  17  18
ATOM     18  O   UNL     1       2.261   2.214  -2.159  0.00  0.00    -0.505 OA
ATOM     19  H   UNL     1       1.779   3.006  -1.884  0.00  0.00    +0.292 HD
ENDBRANCH  17  18
ENDBRANCH  10  12
ENDBRANCH   3   8
BRANCH   6  21
ATOM     20  C   UNL     1      -6.457   0.445  -2.364  0.00  0.00    -0.004 C 
ATOM     21  C   UNL     1      -5.895  -0.862  -1.800  0.00  0.00    +0.016 C 
BRANCH  21  22
ATOM     22  C   UNL     1      -5.848  -1.901  -2.890  0.00  0.00    +0.204 C 
ATOM     23  O   UNL     1      -4.853  -2.018  -3.573  0.00  0.00    -0.277 OA
ATOM     24  N   UNL     1      -6.912  -2.700  -3.106  0.00  0.00    -0.280 N 
ATOM     25  H   UNL     1      -7.708  -2.606  -2.560  0.00  0.00    +0.155 HD
BRANCH  24  26
ATOM     26  C   UNL     1      -6.868  -3.657  -4.111  0.00  0.00    +0.090 A 
ATOM     27  C   UNL     1      -7.849  -4.561  -4.481  0.00  0.00    +0.084 A 
ATOM     28  C   UNL     1      -7.555  -5.469  -5.581  0.00  0.00    -0.018 A 
ATOM     29  C   UNL     1      -6.325  -5.328  -6.121  0.00  0.00    -0.004 A 
ATOM     30  S   UNL     1      -5.576  -4.005  -5.210  0.00  0.00    -0.077 S 
ATOM     31  C   UNL     1      -5.722  -6.114  -7.244  0.00  0.00    +0.043 C 
ATOM     32  C   UNL     1      -6.717  -6.171  -8.411  0.00  0.00    +0.005 C 
ATOM     33  C   UNL     1      -7.609  -7.395  -8.227  0.00  0.00    +0.001 C 
ATOM     34  C   UNL     1      -7.835  -7.662  -6.740  0.00  0.00    +0.005 C 
ATOM     35  C   UNL     1      -8.564  -6.489  -6.093  0.00  0.00    +0.037 C 
BRANCH  27  36
ATOM     36  C   UNL     1      -9.112  -4.602  -3.806  0.00  0.00    +0.102 C 
ATOM     37  N   UNL     1     -10.113  -4.634  -3.270  0.00  0.00    -0.191 NA
ENDBRANCH  27  36
ENDBRANCH  24  26
ENDBRANCH  21  22
ENDBRANCH   6  21
TORSDOF 7
