REMARK  Name = ZINC12872228
REMARK  12 active torsions:
REMARK  status: ('A' for Active; 'I' for Inactive)
REMARK    1  A    between atoms: C_1  and  C_2
REMARK    2  A    between atoms: C_2  and  C_3
REMARK    3  A    between atoms: C_3  and  C_4
REMARK    4  A    between atoms: C_3  and  C_5
REMARK    5  A    between atoms: C_3  and  N_6
REMARK    6  A    between atoms: C_7  and  C_9
REMARK    7  A    between atoms: C_9  and  C_11
REMARK    8  A    between atoms: C_9  and  N_17
REMARK    9  A    between atoms: N_17  and  C_18
REMARK   10  A    between atoms: C_18  and  C_19
REMARK   11  A    between atoms: C_22  and  C_25
REMARK   12  A    between atoms: C_26  and  C_28
REMARK                            x       y       z     vdW  Elec       q    Type
REMARK                         _______ _______ _______ _____ _____    ______ ____
ROOT
ATOM      1  C   UNL     1      -1.761   2.171  -0.102  0.00  0.00    +0.193 C 
ENDROOT
BRANCH   1   2
ATOM      2  C   UNL     1      -1.723   2.912   1.209  0.00  0.00    -0.018 A 
ATOM      3  C   UNL     1      -1.706   2.210   2.400  0.00  0.00    +0.006 A 
ATOM      4  C   UNL     1      -1.667   2.890   3.603  0.00  0.00    +0.000 A 
ATOM      5  C   UNL     1      -1.654   4.272   3.615  0.00  0.00    +0.000 A 
ATOM      6  C   UNL     1      -1.676   4.975   2.425  0.00  0.00    +0.000 A 
ATOM      7  C   UNL     1      -1.711   4.295   1.222  0.00  0.00    +0.006 A 
ENDBRANCH   1   2
BRANCH   1   9
ATOM      8  N   UNL     1      -0.291   2.737  -2.010  0.00  0.00    -0.308 N 
ATOM      9  C   UNL     1      -0.407   2.246  -0.761  0.00  0.00    +0.239 C 
ATOM     10  O   UNL     1       0.578   1.859  -0.168  0.00  0.00    -0.273 OA
ATOM     11  H   UNL     1      -1.079   3.047  -2.485  0.00  0.00    +0.149 HD
BRANCH   8  12
ATOM     12  C   UNL     1       1.024   2.804  -2.652  0.00  0.00    +0.029 C 
ATOM     13  C   UNL     1       1.954   3.689  -1.820  0.00  0.00    +0.031 C 
ATOM     14  C   UNL     1       1.614   1.396  -2.753  0.00  0.00    +0.031 C 
BRANCH  12  16
ATOM     15  C   UNL     1       2.250   3.466  -4.726  0.00  0.00    +0.006 C 
ATOM     16  C   UNL     1       0.877   3.397  -4.055  0.00  0.00    +0.022 C 
ENDBRANCH  12  16
ENDBRANCH   8  12
ENDBRANCH   1   9
BRANCH   1  17
ATOM     17  N   UNL     1      -2.110   0.769   0.139  0.00  0.00    -0.276 N 
ATOM     18  C   UNL     1      -3.394   0.422   0.353  0.00  0.00    +0.268 C 
ATOM     19  O   UNL     1      -3.698  -0.751   0.457  0.00  0.00    -0.268 OA
BRANCH  18  20
ATOM     20  C   UNL     1      -4.431   1.464   0.462  0.00  0.00    +0.156 A 
ATOM     21  C   UNL     1      -5.776   1.185   0.660  0.00  0.00    +0.101 A 
ATOM     22  S   UNL     1      -6.443   2.784   0.699  0.00  0.00    +0.029 S 
ATOM     23  N   UNL     1      -5.123   3.620   0.476  0.00  0.00    -0.110 NA
ATOM     24  N   UNL     1      -4.174   2.763   0.373  0.00  0.00    -0.136 NA
ENDBRANCH  18  20
BRANCH  17  25
ATOM     25  C   UNL     1      -1.063  -0.256   0.147  0.00  0.00    +0.144 C 
BRANCH  25  26
ATOM     26  C   UNL     1      -0.633  -0.523   1.567  0.00  0.00    -0.030 A 
ATOM     27  C   UNL     1       0.395   0.211   2.128  0.00  0.00    +0.005 A 
ATOM     28  C   UNL     1       0.787  -0.031   3.431  0.00  0.00    +0.003 A 
ATOM     29  C   UNL     1       0.156  -1.014   4.171  0.00  0.00    -0.050 A 
ATOM     30  C   UNL     1      -0.870  -1.751   3.608  0.00  0.00    +0.003 A 
ATOM     31  C   UNL     1      -1.264  -1.506   2.306  0.00  0.00    +0.005 A 
ATOM     32  C   UNL     1       0.585  -1.281   5.590  0.00  0.00    +0.044 C 
ENDBRANCH  25  26
ENDBRANCH  17  25
ENDBRANCH   1  17
TORSDOF 8
