REMARK  Name = ZINC37519779
REMARK  7 active torsions:
REMARK  status: ('A' for Active; 'I' for Inactive)
REMARK    1  A    between atoms: C_5  and  O_7
REMARK    2  A    between atoms: O_7  and  C_8
REMARK    3  A    between atoms: C_8  and  C_9
REMARK    4  A    between atoms: C_9  and  C_11
REMARK    5  A    between atoms: N_17  and  C_22
REMARK    6  A    between atoms: C_22  and  C_23
REMARK    7  A    between atoms: N_25  and  C_26
REMARK                            x       y       z     vdW  Elec       q    Type
REMARK                         _______ _______ _______ _____ _____    ______ ____
ROOT
ATOM      1  C   UNL     1      -0.961  -5.111  -0.017  0.00  0.00    +0.023 A 
ATOM      2  C   UNL     1      -2.264  -4.597  -0.007  0.00  0.00    +0.015 A 
ATOM      3  C   UNL     1      -3.343  -5.453  -0.001  0.00  0.00    +0.048 A 
ATOM      4  C   UNL     1      -3.143  -6.826  -0.005  0.00  0.00    +0.143 A 
ATOM      5  C   UNL     1      -1.845  -7.346  -0.016  0.00  0.00    +0.079 A 
ATOM      6  C   UNL     1      -0.758  -6.497  -0.027  0.00  0.00    +0.038 A 
ATOM      7  N   UNL     1      -1.665  -8.738  -0.020  0.00  0.00    -0.257 N 
ATOM      8  C   UNL     1      -2.713  -9.532  -0.331  0.00  0.00    +0.258 C 
ATOM      9  O   UNL     1      -2.589 -10.738  -0.311  0.00  0.00    -0.271 OA
ATOM     10  C   UNL     1      -4.037  -8.913  -0.701  0.00  0.00    +0.325 C 
ATOM     11  O   UNL     1      -4.202  -7.677  -0.001  0.00  0.00    -0.481 OA
ENDROOT
BRANCH   1  12
ATOM     12  C   UNL     1       0.190  -4.199  -0.023  0.00  0.00    +0.200 C 
ATOM     13  O   UNL     1       1.318  -4.645  -0.037  0.00  0.00    -0.288 OA
BRANCH  12  14
ATOM     14  C   UNL     1      -0.030  -2.708  -0.013  0.00  0.00    +0.308 C 
BRANCH  14  15
ATOM     15  O   UNL     1       1.233  -2.040  -0.022  0.00  0.00    -0.481 OA
BRANCH  15  20
ATOM     16  C   UNL     1      -0.017   1.378   0.010  0.00  0.00    +0.004 A 
ATOM     17  C   UNL     1       1.170   2.087   0.002  0.00  0.00    +0.003 A 
ATOM     18  C   UNL     1       2.379   1.417  -0.013  0.00  0.00    +0.042 A 
ATOM     19  C   UNL     1       2.404   0.034  -0.022  0.00  0.00    +0.165 A 
ATOM     20  C   UNL     1       1.212  -0.680  -0.014  0.00  0.00    +0.156 A 
ATOM     21  C   UNL     1       0.002  -0.004   0.002  0.00  0.00    +0.048 A 
ATOM     22  F   UNL     1       3.585  -0.622  -0.038  0.00  0.00    -0.202 F 
ENDBRANCH  15  20
ENDBRANCH  14  15
ENDBRANCH  12  14
ENDBRANCH   1  12
BRANCH   7  23
ATOM     23  C   UNL     1      -0.362  -9.320   0.308  0.00  0.00    +0.209 C 
BRANCH  23  24
ATOM     24  C   UNL     1      -0.282  -9.571   1.792  0.00  0.00    +0.231 C 
ATOM     25  O   UNL     1      -1.222  -9.291   2.505  0.00  0.00    -0.274 OA
ATOM     26  N   UNL     1       0.834 -10.107   2.325  0.00  0.00    -0.311 N 
ATOM     27  H   UNL     1       1.585 -10.330   1.754  0.00  0.00    +0.149 HD
BRANCH  26  28
ATOM     28  C   UNL     1       0.911 -10.351   3.768  0.00  0.00    +0.073 C 
ATOM     29  C   UNL     1       1.362  -9.072   4.478  0.00  0.00    +0.022 C 
ATOM     30  C   UNL     1       1.443  -9.327   5.984  0.00  0.00    +0.002 C 
ATOM     31  C   UNL     1       2.450 -10.445   6.259  0.00  0.00    +0.000 C 
ATOM     32  C   UNL     1       2.000 -11.723   5.549  0.00  0.00    +0.002 C 
ATOM     33  C   UNL     1       1.919 -11.469   4.042  0.00  0.00    +0.022 C 
ENDBRANCH  26  28
ENDBRANCH  23  24
ENDBRANCH   7  23
TORSDOF 7
