REMARK  Name = ZINC32878836
REMARK  3 active torsions:
REMARK  status: ('A' for Active; 'I' for Inactive)
REMARK    1  A    between atoms: N_13  and  C_17
REMARK    2  A    between atoms: C_17  and  C_18
REMARK    3  A    between atoms: C_31  and  C_33
REMARK                            x       y       z     vdW  Elec       q    Type
REMARK                         _______ _______ _______ _____ _____    ______ ____
ROOT
ATOM      1  C   UNL     1       0.268   5.987  -0.968  0.00  0.00    +0.238 C 
ATOM      2  O   UNL     1       0.238   7.198  -0.902  0.00  0.00    -0.273 OA
ATOM      3  N   UNL     1      -0.068   5.244   0.105  0.00  0.00    -0.256 N 
ATOM      4  C   UNL     1      -0.038   3.844   0.042  0.00  0.00    +0.058 A 
ATOM      5  C   UNL     1       1.168   3.164   0.017  0.00  0.00    +0.025 A 
ATOM      6  C   UNL     1       1.177   1.781   0.000  0.00  0.00    +0.002 A 
ATOM      7  C   UNL     1      -0.013   1.076   0.008  0.00  0.00    +0.002 A 
ATOM      8  C   UNL     1      -1.221   1.748   0.017  0.00  0.00    +0.025 A 
ATOM      9  C   UNL     1      -1.239   3.133   0.032  0.00  0.00    +0.055 A 
ATOM     10  N   UNL     1      -2.450   3.834   0.005  0.00  0.00    -0.284 N 
ATOM     11  C   UNL     1      -2.675   4.842   0.875  0.00  0.00    +0.219 C 
ATOM     12  O   UNL     1      -3.691   5.499   0.787  0.00  0.00    -0.275 OA
ATOM     13  C   UNL     1      -1.673   5.154   1.954  0.00  0.00    +0.128 C 
ATOM     14  C   UNL     1      -0.470   5.886   1.359  0.00  0.00    +0.194 C 
ATOM     15  H   UNL     1      -3.225   3.565  -0.728  0.00  0.00    +0.155 HD
ENDROOT
BRANCH  14  16
ATOM     16  C   UNL     1       0.696   5.838   2.349  0.00  0.00    +0.409 C 
ATOM     17  F   UNL     1       1.038   4.505   2.602  0.00  0.00    -0.169 F 
ATOM     18  F   UNL     1       1.798   6.507   1.805  0.00  0.00    -0.169 F 
ATOM     19  F   UNL     1       0.318   6.457   3.545  0.00  0.00    -0.169 F 
ENDBRANCH  14  16
BRANCH   1  20
ATOM     20  C   UNL     1       0.679   5.313  -2.252  0.00  0.00    +0.214 C 
BRANCH  20  33
ATOM     21  C   UNL     1      -0.598  10.902  -3.304  0.00  0.00    +0.001 A 
ATOM     22  C   UNL     1      -0.741  11.767  -4.374  0.00  0.00    +0.004 A 
ATOM     23  C   UNL     1      -0.369  11.364  -5.640  0.00  0.00    +0.046 A 
ATOM     24  C   UNL     1       0.150  10.090  -5.845  0.00  0.00    +0.126 A 
ATOM     25  C   UNL     1       0.295   9.226  -4.771  0.00  0.00    +0.027 A 
ATOM     26  C   UNL     1      -0.081   9.637  -3.503  0.00  0.00    +0.010 A 
ATOM     27  C   UNL     1       0.858   7.845  -4.956  0.00  0.00    +0.144 C 
ATOM     28  C   UNL     1       0.825   7.439  -6.426  0.00  0.00    +0.081 C 
ATOM     29  C   UNL     1       1.373   8.604  -7.262  0.00  0.00    +0.232 C 
ATOM     30  O   UNL     1       0.499   9.723  -7.106  0.00  0.00    -0.492 OA
ATOM     31  C   UNL     1       0.091   6.845  -4.121  0.00  0.00    +0.252 C 
ATOM     32  O   UNL     1      -1.085   6.565  -4.207  0.00  0.00    -0.272 OA
ATOM     33  N   UNL     1       0.992   6.330  -3.259  0.00  0.00    -0.215 N 
ATOM     34  C   UNL     1       2.208   6.859  -3.442  0.00  0.00    +0.310 C 
ATOM     35  O   UNL     1       3.185   6.550  -2.788  0.00  0.00    -0.252 OA
ATOM     36  N   UNL     1       2.227   7.772  -4.432  0.00  0.00    -0.281 N 
ATOM     37  H   UNL     1       3.016   8.404  -4.865  0.00  0.00    +0.152 HD
ENDBRANCH  20  33
ENDBRANCH   1  20
TORSDOF 3
