REMARK  Name = ZINC24146173
REMARK  8 active torsions:
REMARK  status: ('A' for Active; 'I' for Inactive)
REMARK    1  A    between atoms: C_1  and  C_2
REMARK    2  A    between atoms: C_2  and  C_3
REMARK    3  A    between atoms: C_2  and  C_4
REMARK    4  A    between atoms: C_7  and  C_10
REMARK    5  A    between atoms: C_10  and  C_33
REMARK    6  A    between atoms: N_13  and  C_17
REMARK    7  A    between atoms: C_17  and  C_18
REMARK    8  A    between atoms: N_23  and  C_26
REMARK                            x       y       z     vdW  Elec       q    Type
REMARK                         _______ _______ _______ _____ _____    ______ ____
ROOT
ATOM      1  C   UNL     1      -2.357  -3.487  -3.947  0.00  0.00    +0.135 C 
ATOM      2  C   UNL     1      -1.137  -2.974  -3.208  0.00  0.00    +0.251 C 
ATOM      3  O   UNL     1      -0.021  -2.820  -3.655  0.00  0.00    -0.272 OA
ATOM      4  N   UNL     1      -1.552  -2.723  -1.951  0.00  0.00    -0.215 N 
ATOM      5  C   UNL     1      -2.849  -3.008  -1.793  0.00  0.00    +0.310 C 
ATOM      6  O   UNL     1      -3.450  -2.868  -0.745  0.00  0.00    -0.252 OA
ATOM      7  N   UNL     1      -3.417  -3.464  -2.925  0.00  0.00    -0.281 N 
ATOM      8  C   UNL     1      -2.709  -2.561  -5.113  0.00  0.00    +0.047 C 
ATOM      9  H   UNL     1      -4.436  -3.787  -3.182  0.00  0.00    +0.152 HD
ENDROOT
BRANCH   1  13
ATOM     10  C   UNL     1      -1.702  -7.471  -5.343  0.00  0.00    -0.045 A 
ATOM     11  C   UNL     1      -2.979  -7.054  -5.017  0.00  0.00    +0.004 A 
ATOM     12  C   UNL     1      -3.191  -5.765  -4.565  0.00  0.00    +0.006 A 
ATOM     13  C   UNL     1      -2.126  -4.893  -4.440  0.00  0.00    -0.015 A 
ATOM     14  C   UNL     1      -0.850  -5.308  -4.771  0.00  0.00    +0.006 A 
ATOM     15  C   UNL     1      -0.637  -6.598  -5.218  0.00  0.00    +0.004 A 
BRANCH  10  17
ATOM     16  C   UNL     1      -0.863  -8.831  -7.240  0.00  0.00    +0.012 C 
ATOM     17  C   UNL     1      -1.471  -8.876  -5.837  0.00  0.00    +0.013 C 
ATOM     18  C   UNL     1      -0.512  -9.598  -4.888  0.00  0.00    +0.012 C 
ENDBRANCH  10  17
ENDBRANCH   1  13
BRANCH   4  19
ATOM     19  C   UNL     1      -0.687  -2.207  -0.886  0.00  0.00    +0.213 C 
BRANCH  19  20
ATOM     20  C   UNL     1      -0.722  -0.701  -0.896  0.00  0.00    +0.234 C 
ATOM     21  O   UNL     1      -1.403  -0.115  -1.712  0.00  0.00    -0.274 OA
ATOM     22  N   UNL     1       0.002  -0.004   0.002  0.00  0.00    -0.297 N 
ATOM     23  C   UNL     1      -0.018   1.467   0.010  0.00  0.00    +0.126 C 
ATOM     24  C   UNL     1       1.428   1.973  -0.001  0.00  0.00    +0.124 C 
ATOM     25  N   UNL     1       2.168   1.356   1.108  0.00  0.00    -0.327 N 
ATOM     26  C   UNL     1       2.246  -0.103   0.950  0.00  0.00    +0.124 C 
ATOM     27  C   UNL     1       0.833  -0.694   1.000  0.00  0.00    +0.126 C 
BRANCH  25  28
ATOM     28  C   UNL     1       3.443   1.914   1.231  0.00  0.00    +0.031 A 
ATOM     29  C   UNL     1       3.589   3.287   1.390  0.00  0.00    +0.023 A 
ATOM     30  C   UNL     1       4.850   3.836   1.512  0.00  0.00    +0.003 A 
ATOM     31  C   UNL     1       5.967   3.022   1.477  0.00  0.00    +0.020 A 
ATOM     32  C   UNL     1       5.826   1.655   1.319  0.00  0.00    +0.043 A 
ATOM     33  C   UNL     1       4.566   1.098   1.201  0.00  0.00    +0.043 A 
ATOM     34 CL   UNL     1       7.231   0.637   1.276  0.00  0.00    -0.083 Cl
ENDBRANCH  25  28
ENDBRANCH  19  20
ENDBRANCH   4  19
TORSDOF 5
