REMARK  Name = ZINC39850284
REMARK  8 active torsions:
REMARK  status: ('A' for Active; 'I' for Inactive)
REMARK    1  A    between atoms: C_2  and  C_3
REMARK    2  A    between atoms: C_3  and  O_4
REMARK    3  A    between atoms: O_4  and  C_5
REMARK    4  A    between atoms: C_9  and  C_11
REMARK    5  A    between atoms: C_13  and  C_25
REMARK    6  A    between atoms: C_15  and  C_20
REMARK    7  A    between atoms: C_15  and  O_24
REMARK    8  A    between atoms: C_25  and  C_27
REMARK                            x       y       z     vdW  Elec       q    Type
REMARK                         _______ _______ _______ _____ _____    ______ ____
ROOT
ATOM      1  C   UNL     1      -3.475  -5.425  -2.749  0.00  0.00    +0.120 C 
ATOM      2  C   UNL     1      -2.858  -6.711  -2.189  0.00  0.00    +0.144 C 
ATOM      3  C   UNL     1      -3.870  -7.367  -1.244  0.00  0.00    +0.243 C 
ATOM      4  N   UNL     1      -5.128  -7.581  -1.962  0.00  0.00    -0.264 N 
ATOM      5  C   UNL     1      -5.503  -6.776  -2.967  0.00  0.00    +0.302 C 
ATOM      6  O   UNL     1      -6.563  -6.991  -3.522  0.00  0.00    -0.253 OA
ATOM      7  N   UNL     1      -4.755  -5.743  -3.386  0.00  0.00    -0.292 N 
ATOM      8  H   UNL     1      -5.703  -8.319  -1.704  0.00  0.00    +0.153 HD
ATOM      9  H   UNL     1      -5.067  -5.197  -4.124  0.00  0.00    +0.151 HD
ENDROOT
BRANCH   1  14
ATOM     10  C   UNL     1      -2.829  -3.006   0.081  0.00  0.00    +0.121 A 
ATOM     11  C   UNL     1      -4.122  -2.644   0.432  0.00  0.00    +0.045 A 
ATOM     12  C   UNL     1      -5.198  -3.183  -0.246  0.00  0.00    +0.004 A 
ATOM     13  C   UNL     1      -4.987  -4.082  -1.275  0.00  0.00    +0.006 A 
ATOM     14  C   UNL     1      -3.701  -4.445  -1.627  0.00  0.00    -0.023 A 
ATOM     15  C   UNL     1      -2.621  -3.904  -0.956  0.00  0.00    +0.051 A 
BRANCH  10  16
ATOM     16  O   UNL     1      -1.769  -2.477   0.746  0.00  0.00    -0.488 OA
BRANCH  16  17
ATOM     17  C   UNL     1      -2.059  -1.558   1.802  0.00  0.00    +0.256 C 
BRANCH  17  19
ATOM     18  C   UNL     1      -0.601   0.193   2.678  0.00  0.00    +0.007 C 
ATOM     19  C   UNL     1      -0.770  -1.080   2.420  0.00  0.00    +0.006 C 
ENDBRANCH  17  19
ENDBRANCH  16  17
ENDBRANCH  10  16
ENDBRANCH   1  14
BRANCH   3  20
ATOM     20  C   UNL     1      -3.322  -8.711  -0.761  0.00  0.00    +0.436 C 
ATOM     21  F   UNL     1      -2.044  -8.528  -0.222  0.00  0.00    -0.166 F 
ATOM     22  F   UNL     1      -4.171  -9.236   0.219  0.00  0.00    -0.166 F 
ATOM     23  F   UNL     1      -3.250  -9.600  -1.839  0.00  0.00    -0.166 F 
ENDBRANCH   3  20
BRANCH   3  24
ATOM     24  O   UNL     1      -4.099  -6.513  -0.122  0.00  0.00    -0.364 OA
ATOM     25  H   UNL     1      -4.731  -6.866   0.519  0.00  0.00    +0.212 HD
ENDBRANCH   3  24
BRANCH   2  26
ATOM     26  C   UNL     1      -2.533  -7.652  -3.321  0.00  0.00    +0.173 C 
ATOM     27  O   UNL     1      -3.422  -8.264  -3.874  0.00  0.00    -0.292 OA
BRANCH  26  28
ATOM     28  C   UNL     1      -1.139  -7.827  -3.755  0.00  0.00    +0.018 A 
ATOM     29  C   UNL     1      -0.125  -7.041  -3.196  0.00  0.00    +0.013 A 
ATOM     30  C   UNL     1       1.179  -7.211  -3.607  0.00  0.00    +0.020 A 
ATOM     31  C   UNL     1       1.488  -8.157  -4.572  0.00  0.00    +0.041 A 
ATOM     32  C   UNL     1       0.489  -8.939  -5.130  0.00  0.00    +0.020 A 
ATOM     33  C   UNL     1      -0.819  -8.784  -4.724  0.00  0.00    +0.013 A 
ATOM     34 CL   UNL     1       3.134  -8.363  -5.084  0.00  0.00    -0.084 Cl
ENDBRANCH  26  28
ENDBRANCH   2  26
TORSDOF 8
