REMARK  Name = ZINC35747430
REMARK  14 active torsions:
REMARK  status: ('A' for Active; 'I' for Inactive)
REMARK    1  A    between atoms: C_1  and  C_2
REMARK    2  A    between atoms: C_2  and  C_3
REMARK    3  A    between atoms: C_2  and  N_4
REMARK    4  A    between atoms: N_4  and  C_5
REMARK    5  A    between atoms: N_4  and  C_25
REMARK    6  A    between atoms: C_5  and  C_6
REMARK    7  A    between atoms: C_12  and  C_17
REMARK    8  A    between atoms: C_20  and  O_23
REMARK    9  A    between atoms: O_23  and  C_24
REMARK   10  A    between atoms: C_25  and  C_26
REMARK   11  A    between atoms: C_26  and  C_28
REMARK   12  A    between atoms: C_26  and  O_37
REMARK   13  A    between atoms: C_28  and  O_29
REMARK   14  A    between atoms: O_29  and  C_30
REMARK                            x       y       z     vdW  Elec       q    Type
REMARK                         _______ _______ _______ _____ _____    ______ ____
ROOT
ATOM      1  C   UNL     1       1.669   0.032  -1.633  0.00  0.00    -0.003 C 
ENDROOT
BRANCH   1   2
ATOM      2  C   UNL     1       1.435   1.455  -2.072  0.00  0.00    +0.094 A 
ATOM      3  N   UNL     1       2.499   2.273  -2.278  0.00  0.00    -0.312 N 
ATOM      4  H   UNL     1       3.396   1.930  -2.140  0.00  0.00    +0.170 HD
ATOM      5  C   UNL     1       2.334   3.549  -2.671  0.00  0.00    +0.260 A 
ATOM      6  O   UNL     1       3.299   4.271  -2.853  0.00  0.00    -0.267 OA
ATOM      7  C   UNL     1       1.007   4.047  -2.873  0.00  0.00    +0.080 A 
ATOM      8  C   UNL     1       0.573   5.374  -3.292  0.00  0.00    +0.004 A 
ATOM      9  C   UNL     1      -0.754   5.617  -3.416  0.00  0.00    +0.056 A 
ATOM     10  S   UNL     1      -1.502   4.060  -2.973  0.00  0.00    -0.076 S 
ATOM     11  C   UNL     1      -0.030   3.129  -2.635  0.00  0.00    +0.116 A 
ATOM     12  N   UNL     1       0.213   1.878  -2.252  0.00  0.00    -0.229 NA
BRANCH   8  13
ATOM     13  C   UNL     1       1.565   6.439  -3.575  0.00  0.00    -0.016 A 
ATOM     14  C   UNL     1       2.577   6.713  -2.657  0.00  0.00    +0.012 A 
ATOM     15  C   UNL     1       3.499   7.704  -2.924  0.00  0.00    +0.046 A 
ATOM     16  C   UNL     1       3.419   8.427  -4.106  0.00  0.00    +0.120 A 
ATOM     17  C   UNL     1       2.413   8.156  -5.023  0.00  0.00    +0.046 A 
ATOM     18  C   UNL     1       1.491   7.163  -4.764  0.00  0.00    +0.012 A 
BRANCH  16  19
ATOM     19  O   UNL     1       4.329   9.403  -4.366  0.00  0.00    -0.495 OA
ATOM     20  C   UNL     1       4.189  10.108  -5.601  0.00  0.00    +0.277 C 
ENDBRANCH  16  19
ENDBRANCH   8  13
ENDBRANCH   1   2
BRANCH   1  21
ATOM     21  N   UNL     1       0.383  -0.596  -1.303  0.00  0.00    +0.388 N 
ATOM     22  H   UNL     1      -0.325  -0.271  -1.944  0.00  0.00    -0.081 HD
BRANCH  21  24
ATOM     23  C   UNL     1       1.010  -0.839   1.052  0.00  0.00    -0.014 C 
ATOM     24  C   UNL     1       0.002  -0.239   0.070  0.00  0.00    -0.074 C 
ATOM     25  C   UNL     1      -0.008   1.284   0.217  0.00  0.00    -0.014 C 
ENDBRANCH  21  24
BRANCH  21  26
ATOM     26  C   UNL     1       0.508  -2.056  -1.412  0.00  0.00    -0.043 C 
BRANCH  26  27
ATOM     27  C   UNL     1      -0.872  -2.699  -1.266  0.00  0.00    +0.135 C 
BRANCH  27  28
ATOM     28  O   UNL     1      -1.325  -2.554   0.082  0.00  0.00    -0.390 OA
ATOM     29  H   UNL     1      -0.717  -2.914   0.742  0.00  0.00    +0.210 HD
ENDBRANCH  27  28
BRANCH  27  30
ATOM     30  C   UNL     1      -0.782  -4.185  -1.616  0.00  0.00    +0.258 C 
BRANCH  30  31
ATOM     31  O   UNL     1      -2.090  -4.760  -1.593  0.00  0.00    -0.489 OA
BRANCH  31  32
ATOM     32  C   UNL     1      -2.188  -6.085  -1.884  0.00  0.00    +0.121 A 
ATOM     33  C   UNL     1      -1.047  -6.816  -2.180  0.00  0.00    +0.047 A 
ATOM     34  C   UNL     1      -1.148  -8.162  -2.476  0.00  0.00    +0.023 A 
ATOM     35  C   UNL     1      -2.386  -8.780  -2.477  0.00  0.00    +0.041 A 
ATOM     36  C   UNL     1      -3.525  -8.052  -2.182  0.00  0.00    +0.023 A 
ATOM     37  C   UNL     1      -3.427  -6.707  -1.879  0.00  0.00    +0.047 A 
ATOM     38 CL   UNL     1      -2.510 -10.471  -2.849  0.00  0.00    -0.084 Cl
ENDBRANCH  31  32
ENDBRANCH  30  31
ENDBRANCH  27  30
ENDBRANCH  26  27
ENDBRANCH  21  26
ENDBRANCH   1  21
TORSDOF 11
