REMARK  Name = ZINC42014820
REMARK  5 active torsions:
REMARK  status: ('A' for Active; 'I' for Inactive)
REMARK    1  A    between atoms: C_1  and  C_2
REMARK    2  A    between atoms: C_5  and  C_21
REMARK    3  A    between atoms: C_6  and  N_8
REMARK    4  A    between atoms: C_9  and  C_13
REMARK    5  A    between atoms: C_17  and  N_19
REMARK                            x       y       z     vdW  Elec       q    Type
REMARK                         _______ _______ _______ _____ _____    ______ ____
ROOT
ATOM      1  N   UNL     1      -0.183  -2.795   2.336  0.00  0.00    -0.192 N 
ATOM      2  C   UNL     1       0.103  -2.211   3.535  0.00  0.00    +0.187 A 
ATOM      3  N   UNL     1       0.572  -3.159   4.320  0.00  0.00    -0.108 NA
ATOM      4  N   UNL     1       0.599  -4.284   3.700  0.00  0.00    -0.022 NA
ATOM      5  N   UNL     1       0.153  -4.150   2.499  0.00  0.00    -0.039 NA
ENDROOT
BRANCH   1  11
ATOM      6  C   UNL     1      -3.711  -0.106   0.211  0.00  0.00    +0.044 C 
ATOM      7  C   UNL     1      -2.413  -0.869   0.133  0.00  0.00    -0.048 A 
ATOM      8  C   UNL     1      -1.737  -0.961  -1.070  0.00  0.00    +0.004 A 
ATOM      9  C   UNL     1      -0.546  -1.660  -1.145  0.00  0.00    +0.006 A 
ATOM     10  C   UNL     1      -0.029  -2.269  -0.018  0.00  0.00    -0.025 A 
ATOM     11  C   UNL     1      -0.705  -2.178   1.191  0.00  0.00    +0.073 A 
ATOM     12  C   UNL     1      -1.898  -1.471   1.264  0.00  0.00    +0.031 A 
ATOM     13  C   UNL     1       1.268  -3.031  -0.101  0.00  0.00    +0.046 C 
ENDBRANCH   1  11
BRANCH   2  14
ATOM     14  C   UNL     1      -0.078  -0.786   3.887  0.00  0.00    +0.023 A 
ATOM     15  C   UNL     1       0.000   0.195   2.897  0.00  0.00    +0.013 A 
ATOM     16  C   UNL     1      -0.169   1.524   3.228  0.00  0.00    +0.018 A 
ATOM     17  C   UNL     1      -0.418   1.889   4.538  0.00  0.00    +0.039 A 
ATOM     18  C   UNL     1      -0.498   0.919   5.531  0.00  0.00    +0.039 A 
ATOM     19  C   UNL     1      -0.334  -0.419   5.208  0.00  0.00    +0.035 A 
ATOM     20 BR   UNL     1      -0.649   3.713   4.981  0.00  0.00    -0.048 Br
BRANCH  18  21
ATOM     21  N   UNL     1      -0.749   1.293   6.854  0.00  0.00    -0.357 N 
ATOM     22  H   UNL     1      -0.867   2.228   7.080  0.00  0.00    +0.142 HD
ATOM     23  H   UNL     1      -0.804   0.616   7.547  0.00  0.00    +0.142 HD
ENDBRANCH  18  21
ENDBRANCH   2  14
TORSDOF 3
