REMARK  Name = ZINC04356017
REMARK  8 active torsions:
REMARK  status: ('A' for Active; 'I' for Inactive)
REMARK    1  A    between atoms: C_1  and  C_2
REMARK    2  A    between atoms: C_2  and  C_3
REMARK    3  A    between atoms: C_4  and  C_16
REMARK    4  A    between atoms: C_5  and  O_15
REMARK    5  A    between atoms: N_6  and  C_8
REMARK    6  A    between atoms: C_11  and  C_14
REMARK    7  A    between atoms: N_20  and  C_24
REMARK    8  A    between atoms: C_24  and  C_25
REMARK                            x       y       z     vdW  Elec       q    Type
REMARK                         _______ _______ _______ _____ _____    ______ ____
ROOT
ATOM      1  C   UNL     1       2.752  -1.330  -4.153  0.00  0.00    +0.043 C 
ATOM      2  C   UNL     1       2.899  -0.326  -3.247  0.00  0.00    +0.099 C 
ATOM      3  C   UNL     1       2.420  -0.302  -1.911  0.00  0.00    +0.269 C 
ATOM      4  O   UNL     1       1.794  -1.185  -1.351  0.00  0.00    -0.268 OA
ATOM      5  N   UNL     1       2.785   0.881  -1.380  0.00  0.00    -0.216 N 
ATOM      6  C   UNL     1       3.467   1.593  -2.292  0.00  0.00    +0.313 C 
ATOM      7  O   UNL     1       3.933   2.701  -2.107  0.00  0.00    -0.252 OA
ATOM      8  N   UNL     1       3.560   0.898  -3.441  0.00  0.00    -0.265 N 
ATOM      9  H   UNL     1       4.003   1.189  -4.254  0.00  0.00    +0.157 HD
ENDROOT
BRANCH   1  11
ATOM     10  C   UNL     1       4.138  -2.134  -6.166  0.00  0.00    +0.074 A 
ATOM     11  C   UNL     1       3.318  -1.193  -5.497  0.00  0.00    +0.061 A 
ATOM     12  C   UNL     1       3.156  -0.110  -6.357  0.00  0.00    +0.223 A 
ATOM     13  N   UNL     1       3.842  -0.394  -7.486  0.00  0.00    -0.200 N 
ATOM     14  N   UNL     1       4.435  -1.653  -7.340  0.00  0.00    -0.168 NA
BRANCH  13  15
ATOM     15  C   UNL     1       3.942   0.432  -8.613  0.00  0.00    +0.069 A 
ATOM     16  C   UNL     1       2.862   1.215  -9.000  0.00  0.00    +0.028 A 
ATOM     17  C   UNL     1       2.965   2.033 -10.108  0.00  0.00    +0.005 A 
ATOM     18  C   UNL     1       4.139   2.064 -10.839  0.00  0.00    -0.050 A 
ATOM     19  C   UNL     1       5.214   1.282 -10.460  0.00  0.00    +0.005 A 
ATOM     20  C   UNL     1       5.119   0.466  -9.350  0.00  0.00    +0.028 A 
ATOM     21  C   UNL     1       4.246   2.952 -12.052  0.00  0.00    +0.044 C 
ENDBRANCH  13  15
BRANCH  10  23
ATOM     22  C   UNL     1       3.566  -4.540  -5.988  0.00  0.00    +0.010 C 
ATOM     23  C   UNL     1       4.587  -3.463  -5.616  0.00  0.00    +0.054 C 
ENDBRANCH  10  23
BRANCH  12  24
ATOM     24  O   UNL     1       2.446   1.016  -6.109  0.00  0.00    -0.492 OA
ATOM     25  H   UNL     1       2.960   1.722  -5.695  0.00  0.00    +0.294 HD
ENDBRANCH  12  24
ENDBRANCH   1  11
BRANCH   5  26
ATOM     26  C   UNL     1       2.488   1.321  -0.015  0.00  0.00    +0.156 C 
BRANCH  26  27
ATOM     27  C   UNL     1       1.173   2.056   0.002  0.00  0.00    +0.006 A 
ATOM     28  C   UNL     1       1.153   3.438   0.009  0.00  0.00    +0.008 A 
ATOM     29  C   UNL     1      -0.054   4.112   0.023  0.00  0.00    +0.000 A 
ATOM     30  C   UNL     1      -1.242   3.405   0.031  0.00  0.00    +0.003 A 
ATOM     31  C   UNL     1      -1.224   2.023   0.019  0.00  0.00    +0.038 A 
ATOM     32  C   UNL     1      -0.016   1.347   0.009  0.00  0.00    +0.128 A 
ATOM     33  F   UNL     1       0.002  -0.004   0.002  0.00  0.00    -0.205 F 
ENDBRANCH  26  27
ENDBRANCH   5  26
TORSDOF 6
