REMARK  Name = ZINC36673651
REMARK  2 active torsions:
REMARK  status: ('A' for Active; 'I' for Inactive)
REMARK    1  A    between atoms: C_1  and  N_2
REMARK    2  A    between atoms: C_3  and  C_5
REMARK                            x       y       z     vdW  Elec       q    Type
REMARK                         _______ _______ _______ _____ _____    ______ ____
ROOT
ATOM      1  C   UNL     1      -1.136  -2.170   0.001  0.00  0.00    +0.068 C 
ATOM      2  C   UNL     1      -2.272  -2.844   0.004  0.00  0.00    -0.042 C 
ATOM      3  C   UNL     1      -2.131  -4.341  -0.318  0.00  0.00    +0.079 C 
ATOM      4  S   UNL     1      -0.337  -4.606  -0.114  0.00  0.00    -0.098 S 
ATOM      5  C   UNL     1       0.157  -2.891  -0.015  0.00  0.00    +0.101 C 
ATOM      6  N   UNL     1       1.363  -2.395   0.032  0.00  0.00    -0.292 NA
ATOM      7  C   UNL     1      -2.955  -4.979   0.811  0.00  0.00    +0.019 C 
ATOM      8  C   UNL     1      -4.216  -4.073   0.836  0.00  0.00    +0.006 C 
ATOM      9  C   UNL     1      -3.777  -2.726   0.219  0.00  0.00    +0.033 C 
ATOM     10  H   UNL     1       2.131  -2.987   0.013  0.00  0.00    +0.187 HD
ENDROOT
BRANCH   1  13
ATOM     11  C   UNL     1      -0.018   1.461   0.010  0.00  0.00    +0.128 C 
ATOM     12  N   UNL     1       0.002  -0.004   0.002  0.00  0.00    -0.314 N 
ATOM     13  C   UNL     1      -1.156  -0.694   0.009  0.00  0.00    +0.246 C 
ATOM     14  O   UNL     1      -2.217  -0.100   0.023  0.00  0.00    -0.270 OA
ATOM     15  H   UNL     1       0.849  -0.478  -0.009  0.00  0.00    +0.149 HD
ENDBRANCH   1  13
TORSDOF 1
