REMARK  Name = ZINC03472018
REMARK  6 active torsions:
REMARK  status: ('A' for Active; 'I' for Inactive)
REMARK    1  A    between atoms: C_1  and  C_2
REMARK    2  A    between atoms: C_4  and  C_17
REMARK    3  A    between atoms: C_5  and  C_9
REMARK    4  A    between atoms: C_6  and  C_8
REMARK    5  A    between atoms: N_10  and  N_11
REMARK    6  A    between atoms: C_12  and  C_14
REMARK                            x       y       z     vdW  Elec       q    Type
REMARK                         _______ _______ _______ _____ _____    ______ ____
ROOT
ATOM      1  C   UNL     1      -1.067  -0.965  -0.534  0.00  0.00    +0.138 C 
ATOM      2  N   UNL     1      -0.911  -2.249  -0.653  0.00  0.00    -0.187 NA
ENDROOT
BRANCH   1   7
ATOM      3  C   UNL     1       3.474   2.399   0.526  0.00  0.00    +0.044 C 
ATOM      4  C   UNL     1       2.284   1.518   0.249  0.00  0.00    -0.050 A 
ATOM      5  C   UNL     1       1.048   2.088   0.002  0.00  0.00    +0.007 A 
ATOM      6  C   UNL     1      -0.046   1.287  -0.253  0.00  0.00    -0.041 A 
ATOM      7  C   UNL     1       0.097  -0.103  -0.263  0.00  0.00    +0.000 A 
ATOM      8  C   UNL     1       1.349  -0.671  -0.013  0.00  0.00    -0.041 A 
ATOM      9  C   UNL     1       2.433   0.142   0.241  0.00  0.00    +0.007 A 
ATOM     10  C   UNL     1       1.513  -2.169  -0.021  0.00  0.00    +0.044 C 
ATOM     11  C   UNL     1      -1.391   1.910  -0.528  0.00  0.00    +0.044 C 
ENDBRANCH   1   7
BRANCH   2  12
ATOM     12  N   UNL     1      -2.017  -3.069  -0.911  0.00  0.00    -0.199 N 
ATOM     13  C   UNL     1      -1.855  -4.401  -1.035  0.00  0.00    +0.318 C 
ATOM     14  O   UNL     1      -0.749  -4.891  -0.922  0.00  0.00    -0.263 OA
ATOM     15  H   UNL     1      -2.900  -2.678  -1.002  0.00  0.00    +0.178 HD
BRANCH  13  16
ATOM     16  C   UNL     1      -3.033  -5.274  -1.310  0.00  0.00    +0.298 C 
ATOM     17  O   UNL     1      -4.138  -4.785  -1.422  0.00  0.00    -0.265 OA
ATOM     18  N   UNL     1      -2.871  -6.606  -1.433  0.00  0.00    -0.322 N 
ATOM     19  H   UNL     1      -1.988  -6.998  -1.343  0.00  0.00    +0.145 HD
ATOM     20  H   UNL     1      -3.637  -7.174  -1.612  0.00  0.00    +0.145 HD
ENDBRANCH  13  16
ENDBRANCH   2  12
TORSDOF 3
