REMARK  Name = ZINC21893476
REMARK  5 active torsions:
REMARK  status: ('A' for Active; 'I' for Inactive)
REMARK    1  A    between atoms: C_1  and  C_2
REMARK    2  A    between atoms: C_2  and  C_3
REMARK    3  A    between atoms: C_3  and  N_4
REMARK    4  A    between atoms: C_20  and  C_22
REMARK    5  A    between atoms: C_26  and  C_28
REMARK                            x       y       z     vdW  Elec       q    Type
REMARK                         _______ _______ _______ _____ _____    ______ ____
ROOT
ATOM      1  N   UNL     1      -1.184   2.034  -0.020  0.00  0.00    -0.299 N 
ATOM      2  C   UNL     1      -0.021   1.355   0.009  0.00  0.00    +0.303 C 
ATOM      3  O   UNL     1      -0.027   0.139   0.022  0.00  0.00    -0.253 OA
ATOM      4  N   UNL     1       1.150   2.023   0.028  0.00  0.00    -0.269 N 
ATOM      5  C   UNL     1       2.438   1.310  -0.041  0.00  0.00    +0.147 C 
ATOM      6  C   UNL     1       3.451   1.898   0.902  0.00  0.00    -0.006 A 
ATOM      7  C   UNL     1       3.779   1.258   2.079  0.00  0.00    +0.007 A 
ATOM      8  C   UNL     1       4.747   1.793   2.909  0.00  0.00    +0.000 A 
ATOM      9  C   UNL     1       5.393   2.966   2.563  0.00  0.00    +0.002 A 
ATOM     10  C   UNL     1       5.056   3.622   1.394  0.00  0.00    +0.026 A 
ATOM     11  C   UNL     1       4.070   3.100   0.575  0.00  0.00    +0.051 A 
ATOM     12  N   UNL     1       3.614   3.804  -0.550  0.00  0.00    -0.318 N 
ATOM     13  C   UNL     1       4.330   4.381  -1.549  0.00  0.00    +0.091 A 
ATOM     14  C   UNL     1       3.459   4.948  -2.413  0.00  0.00    +0.020 A 
ATOM     15  C   UNL     1       2.157   4.707  -1.925  0.00  0.00    +0.025 A 
ATOM     16  C   UNL     1       2.280   4.006  -0.787  0.00  0.00    +0.049 A 
ATOM     17  C   UNL     1       1.188   3.497   0.113  0.00  0.00    +0.155 C 
ATOM     18  H   UNL     1      -1.183   3.132   0.056  0.00  0.00    +0.150 HD
ENDROOT
BRANCH  17  19
ATOM     19  C   UNL     1       1.474   3.914   1.532  0.00  0.00    -0.021 A 
ATOM     20  C   UNL     1       2.147   5.096   1.783  0.00  0.00    +0.006 A 
ATOM     21  C   UNL     1       2.408   5.479   3.085  0.00  0.00    +0.001 A 
ATOM     22  C   UNL     1       1.996   4.681   4.137  0.00  0.00    +0.003 A 
ATOM     23  C   UNL     1       1.323   3.500   3.886  0.00  0.00    -0.050 A 
ATOM     24  C   UNL     1       1.057   3.120   2.584  0.00  0.00    +0.009 A 
ATOM     25  C   UNL     1       0.874   2.631   5.032  0.00  0.00    +0.044 C 
ENDBRANCH  17  19
BRANCH   1  26
ATOM     26  C   UNL     1      -2.451   1.312  -0.153  0.00  0.00    +0.105 C 
BRANCH  26  28
ATOM     27  C   UNL     1      -4.934   1.556  -0.298  0.00  0.00    +0.005 C 
ATOM     28  C   UNL     1      -3.610   2.311  -0.160  0.00  0.00    +0.015 C 
ENDBRANCH  26  28
ENDBRANCH   1  26
TORSDOF 3
