REMARK  Name = ZINC06025029
REMARK  8 active torsions:
REMARK  status: ('A' for Active; 'I' for Inactive)
REMARK    1  A    between atoms: C_1  and  C_2
REMARK    2  A    between atoms: C_9  and  N_13
REMARK    3  A    between atoms: C_10  and  C_11
REMARK    4  A    between atoms: C_14  and  C_16
REMARK    5  A    between atoms: C_16  and  N_53
REMARK    6  A    between atoms: C_17  and  N_53
REMARK    7  A    between atoms: C_18  and  C_19
REMARK    8  A    between atoms: C_18  and  N_53
REMARK                            x       y       z     vdW  Elec       q    Type
REMARK                         _______ _______ _______ _____ _____    ______ ____
ROOT
ATOM      1  C   UNL     1       2.598  -7.509  -3.440  0.00  0.00    +0.019 C 
ENDROOT
BRANCH   1   3
ATOM      2  N   UNL     1       1.932  -5.847  -1.734  0.00  0.00    -0.281 N 
ATOM      3  C   UNL     1       2.229  -6.109  -3.022  0.00  0.00    +0.201 C 
ATOM      4  O   UNL     1       2.201  -5.218  -3.844  0.00  0.00    -0.278 OA
ATOM      5  H   UNL     1       1.955  -6.559  -1.076  0.00  0.00    +0.155 HD
BRANCH   2  13
ATOM      6  C   UNL     1      -0.019   1.526   0.010  0.00  0.00    +0.008 C 
ATOM      7  C   UNL     1       0.002  -0.004   0.002  0.00  0.00    -0.009 C 
ATOM      8  C   UNL     1       0.742  -0.514   1.242  0.00  0.00    +0.008 C 
ATOM      9  C   UNL     1       0.556  -2.027   1.373  0.00  0.00    +0.037 C 
ATOM     10  C   UNL     1       0.941  -2.684   0.054  0.00  0.00    -0.018 A 
ATOM     11  C   UNL     1       1.008  -1.965  -1.089  0.00  0.00    -0.004 A 
ATOM     12  S   UNL     1       1.485  -3.134  -2.331  0.00  0.00    -0.077 S 
ATOM     13  C   UNL     1       1.593  -4.557  -1.349  0.00  0.00    +0.090 A 
ATOM     14  C   UNL     1       1.258  -4.095  -0.084  0.00  0.00    +0.084 A 
ATOM     15  C   UNL     1       0.736  -0.502  -1.252  0.00  0.00    +0.046 C 
BRANCH  14  16
ATOM     16  C   UNL     1       1.226  -4.977   1.044  0.00  0.00    +0.102 C 
ATOM     17  N   UNL     1       1.200  -5.676   1.938  0.00  0.00    -0.191 NA
ENDBRANCH  14  16
ENDBRANCH   2  13
ENDBRANCH   1   3
BRANCH   1  19
ATOM     18  C   UNL     1       1.661  -7.245  -5.657  0.00  0.00    -0.095 C 
ATOM     19  N   UNL     1       2.894  -7.512  -4.888  0.00  0.00    +0.388 N 
ATOM     20  H   UNL     1       3.579  -6.774  -5.089  0.00  0.00    -0.081 HD
BRANCH  19  21
ATOM     21  C   UNL     1       3.464  -8.817  -5.284  0.00  0.00    -0.003 C 
BRANCH  21  22
ATOM     22  C   UNL     1       3.959  -8.720  -6.704  0.00  0.00    +0.095 A 
ATOM     23  N   UNL     1       5.253  -8.417  -6.909  0.00  0.00    -0.344 N 
ATOM     24  H   UNL     1       5.838  -8.268  -6.150  0.00  0.00    +0.167 HD
ATOM     25  C   UNL     1       5.755  -8.317  -8.191  0.00  0.00    +0.053 A 
ATOM     26  C   UNL     1       7.085  -8.006  -8.438  0.00  0.00    +0.026 A 
ATOM     27  C   UNL     1       7.536  -7.918  -9.738  0.00  0.00    +0.002 A 
ATOM     28  C   UNL     1       6.674  -8.138 -10.803  0.00  0.00    +0.001 A 
ATOM     29  C   UNL     1       5.350  -8.447 -10.579  0.00  0.00    +0.015 A 
ATOM     30  C   UNL     1       4.880  -8.539  -9.271  0.00  0.00    +0.065 A 
ATOM     31  C   UNL     1       3.477  -8.866  -8.965  0.00  0.00    +0.281 A 
ATOM     32  O   UNL     1       2.671  -9.069  -9.857  0.00  0.00    -0.265 OA
ATOM     33  N   UNL     1       3.111  -8.940  -7.671  0.00  0.00    -0.197 NA
ENDBRANCH  21  22
ENDBRANCH  19  21
ENDBRANCH   1  19
TORSDOF 6
