REMARK  Name = ZINC08839804
REMARK  7 active torsions:
REMARK  status: ('A' for Active; 'I' for Inactive)
REMARK    1  A    between atoms: C_1  and  O_2
REMARK    2  A    between atoms: O_2  and  C_3
REMARK    3  A    between atoms: C_6  and  N_9
REMARK    4  A    between atoms: C_11  and  C_16
REMARK    5  A    between atoms: C_16  and  N_17
REMARK    6  A    between atoms: N_20  and  C_21
REMARK    7  A    between atoms: C_21  and  C_22
REMARK                            x       y       z     vdW  Elec       q    Type
REMARK                         _______ _______ _______ _____ _____    ______ ____
ROOT
ATOM      1  N   UNL     1      -3.610   6.660   2.928  0.00  0.00    -0.296 N 
ATOM      2  C   UNL     1      -3.123   6.637   1.671  0.00  0.00    +0.300 C 
ATOM      3  O   UNL     1      -3.741   7.170   0.770  0.00  0.00    -0.253 OA
ATOM      4  N   UNL     1      -1.952   6.022   1.414  0.00  0.00    -0.295 N 
ATOM      5  H   UNL     1      -3.118   6.235   3.647  0.00  0.00    +0.150 HD
ATOM      6  H   UNL     1      -1.459   5.596   2.133  0.00  0.00    +0.151 HD
ENDROOT
BRANCH   1   7
ATOM      7  C   UNL     1      -4.884   7.329   3.207  0.00  0.00    +0.152 C 
BRANCH   7  10
ATOM      8  N   UNL     1      -7.388   6.819   5.535  0.00  0.00    -0.234 N 
ATOM      9  C   UNL     1      -6.542   7.906   5.019  0.00  0.00    +0.163 C 
ATOM     10  C   UNL     1      -5.205   7.210   4.698  0.00  0.00    +0.213 C 
ATOM     11  O   UNL     1      -5.436   5.819   5.062  0.00  0.00    -0.444 OA
ATOM     12  C   UNL     1      -6.684   5.679   5.523  0.00  0.00    +0.408 C 
ATOM     13  O   UNL     1      -7.137   4.616   5.898  0.00  0.00    -0.226 OA
BRANCH   8  17
ATOM     14  C   UNL     1     -11.334   7.219   6.822  0.00  0.00    +0.120 A 
ATOM     15  C   UNL     1     -10.715   5.979   6.860  0.00  0.00    +0.047 A 
ATOM     16  C   UNL     1      -9.408   5.845   6.434  0.00  0.00    +0.027 A 
ATOM     17  C   UNL     1      -8.714   6.954   5.968  0.00  0.00    +0.040 A 
ATOM     18  C   UNL     1      -9.333   8.196   5.935  0.00  0.00    +0.027 A 
ATOM     19  C   UNL     1     -10.641   8.327   6.356  0.00  0.00    +0.047 A 
BRANCH  14  21
ATOM     20  C   UNL     1     -13.196   8.656   7.175  0.00  0.00    +0.277 C 
ATOM     21  O   UNL     1     -12.621   7.350   7.242  0.00  0.00    -0.495 OA
ENDBRANCH  14  21
ENDBRANCH   8  17
ENDBRANCH   7  10
ENDBRANCH   1   7
BRANCH   4  22
ATOM     22  C   UNL     1      -1.422   5.996   0.048  0.00  0.00    +0.141 C 
BRANCH  22  23
ATOM     23  C   UNL     1      -0.111   5.253   0.032  0.00  0.00    -0.023 A 
ATOM     24  C   UNL     1       1.064   5.940   0.023  0.00  0.00    +0.006 A 
ATOM     25  C   UNL     1       2.286   5.271   0.008  0.00  0.00    +0.001 A 
ATOM     26  C   UNL     1       2.340   3.910   0.000  0.00  0.00    +0.008 A 
ATOM     27  C   UNL     1       1.147   3.167   0.008  0.00  0.00    -0.018 A 
ATOM     28  C   UNL     1      -0.096   3.849   0.024  0.00  0.00    -0.013 A 
ATOM     29  C   UNL     1      -1.289   3.105   0.031  0.00  0.00    +0.009 A 
ATOM     30  C   UNL     1      -1.235   1.746   0.018  0.00  0.00    +0.001 A 
ATOM     31  C   UNL     1      -0.013   1.076   0.008  0.00  0.00    +0.001 A 
ATOM     32  C   UNL     1       1.163   1.762   0.000  0.00  0.00    +0.008 A 
ENDBRANCH  22  23
ENDBRANCH   4  22
TORSDOF 6
