REMARK  Name = ZINC20706061
REMARK  7 active torsions:
REMARK  status: ('A' for Active; 'I' for Inactive)
REMARK    1  A    between atoms: C_1  and  C_2
REMARK    2  A    between atoms: C_2  and  C_3
REMARK    3  A    between atoms: C_2  and  C_4
REMARK    4  A    between atoms: C_2  and  N_5
REMARK    5  A    between atoms: C_6  and  C_8
REMARK    6  A    between atoms: C_15  and  C_24
REMARK    7  A    between atoms: C_26  and  N_31
REMARK                            x       y       z     vdW  Elec       q    Type
REMARK                         _______ _______ _______ _____ _____    ______ ____
ROOT
ATOM      1  C   UNL     1       3.528   6.314   0.016  0.00  0.00    +0.058 A 
ATOM      2  C   UNL     1       4.600   6.391  -0.871  0.00  0.00    +0.015 A 
ATOM      3  C   UNL     1       4.422   6.067  -2.198  0.00  0.00    +0.001 A 
ATOM      4  C   UNL     1       3.177   5.658  -2.647  0.00  0.00    +0.006 A 
ATOM      5  C   UNL     1       2.108   5.568  -1.783  0.00  0.00    -0.019 A 
ATOM      6  C   UNL     1       2.256   5.904  -0.434  0.00  0.00    +0.044 A 
ATOM      7  N   UNL     1       1.230   5.864   0.495  0.00  0.00    -0.336 N 
ATOM      8  C   UNL     1      -0.068   5.348   0.032  0.00  0.00    +0.106 C 
ATOM      9  C   UNL     1      -0.278   5.870  -1.375  0.00  0.00    +0.029 C 
ATOM     10  C   UNL     1       0.778   5.109  -2.237  0.00  0.00    +0.049 C 
ATOM     11  C   UNL     1       0.279   5.329  -3.616  0.00  0.00    -0.023 C 
ATOM     12  C   UNL     1      -1.041   5.470  -3.570  0.00  0.00    -0.030 C 
ATOM     13  C   UNL     1      -1.524   5.389  -2.120  0.00  0.00    +0.033 C 
ATOM     14  H   UNL     1       1.350   6.194   1.538  0.00  0.00    +0.147 HD
ENDROOT
BRANCH   8  15
ATOM     15  C   UNL     1      -0.048   3.841   0.023  0.00  0.00    -0.007 A 
ATOM     16  C   UNL     1       1.157   3.165   0.007  0.00  0.00    +0.039 A 
ATOM     17  C   UNL     1       1.175   1.783   0.000  0.00  0.00    +0.127 A 
ATOM     18  C   UNL     1      -0.013   1.076   0.008  0.00  0.00    +0.034 A 
ATOM     19  C   UNL     1      -1.219   1.750   0.017  0.00  0.00    +0.022 A 
ATOM     20  C   UNL     1      -1.237   3.134   0.031  0.00  0.00    +0.046 A 
ATOM     21 CL   UNL     1      -2.752   3.982   0.051  0.00  0.00    -0.083 Cl
BRANCH  17  22
ATOM     22  N   UNL     1       2.467   1.060  -0.016  0.00  0.00    +0.056 N 
ATOM     23  O   UNL     1       2.483  -0.158  -0.022  0.00  0.00    -0.126 OA
ATOM     24  O   UNL     1       3.513   1.683  -0.022  0.00  0.00    -0.126 OA
ENDBRANCH  17  22
ENDBRANCH   8  15
BRANCH   1  26
ATOM     25  N   UNL     1       4.939   7.057   1.869  0.00  0.00    -0.307 N 
ATOM     26  C   UNL     1       3.725   6.664   1.435  0.00  0.00    +0.246 C 
ATOM     27  O   UNL     1       2.793   6.598   2.212  0.00  0.00    -0.270 OA
ATOM     28  H   UNL     1       5.782   7.116   1.166  0.00  0.00    +0.150 HD
BRANCH  25  30
ATOM     29  C   UNL     1       4.803   6.194   4.154  0.00  0.00    +0.031 C 
ATOM     30  C   UNL     1       5.135   7.404   3.279  0.00  0.00    +0.026 C 
ATOM     31  C   UNL     1       6.592   7.813   3.506  0.00  0.00    +0.031 C 
ATOM     32  C   UNL     1       4.215   8.569   3.650  0.00  0.00    +0.031 C 
ENDBRANCH  25  30
ENDBRANCH   1  26
TORSDOF 4
