REMARK  Name = ZINC08603576
REMARK  7 active torsions:
REMARK  status: ('A' for Active; 'I' for Inactive)
REMARK    1  A    between atoms: C_1  and  N_2
REMARK    2  A    between atoms: C_6  and  S_12
REMARK    3  A    between atoms: S_12  and  N_15
REMARK    4  A    between atoms: C_19  and  C_22
REMARK    5  A    between atoms: N_24  and  C_25
REMARK    6  A    between atoms: C_25  and  C_26
REMARK    7  A    between atoms: C_26  and  C_27
REMARK                            x       y       z     vdW  Elec       q    Type
REMARK                         _______ _______ _______ _____ _____    ______ ____
ROOT
ATOM      1  N   UNL     1      -4.322  -4.700  -1.582  0.00  0.00    -0.176 NA
ATOM      2  C   UNL     1      -5.435  -4.053  -2.290  0.00  0.00    +0.109 C 
ATOM      3  C   UNL     1      -4.901  -3.428  -3.583  0.00  0.00    +0.018 C 
ATOM      4  C   UNL     1      -4.174  -4.498  -4.400  0.00  0.00    +0.015 C 
ATOM      5  C   UNL     1      -2.987  -5.036  -3.597  0.00  0.00    +0.091 C 
ATOM      6  C   UNL     1      -3.496  -5.675  -2.307  0.00  0.00    +0.122 C 
ENDROOT
BRANCH   5   7
ATOM      7  C   UNL     1      -2.252  -6.066  -4.415  0.00  0.00    +0.217 C 
ATOM      8  O   UNL     1      -2.145  -7.203  -4.006  0.00  0.00    -0.275 OA
ATOM      9  N   UNL     1      -1.713  -5.724  -5.603  0.00  0.00    -0.315 N 
ATOM     10  H   UNL     1      -1.799  -4.816  -5.930  0.00  0.00    +0.149 HD
BRANCH   9  11
ATOM     11  C   UNL     1      -0.998  -6.726  -6.398  0.00  0.00    +0.109 C 
BRANCH  11  12
ATOM     12  C   UNL     1      -0.490  -6.083  -7.690  0.00  0.00    +0.054 C 
BRANCH  12  13
ATOM     13  C   UNL     1       0.245  -7.113  -8.508  0.00  0.00    -0.046 A 
ATOM     14  C   UNL     1       1.604  -7.295  -8.331  0.00  0.00    +0.005 A 
ATOM     15  C   UNL     1       2.279  -8.239  -9.081  0.00  0.00    +0.020 A 
ATOM     16  C   UNL     1       1.594  -9.002 -10.010  0.00  0.00    +0.041 A 
ATOM     17  C   UNL     1       0.234  -8.820 -10.187  0.00  0.00    +0.020 A 
ATOM     18  C   UNL     1      -0.441  -7.879  -9.432  0.00  0.00    +0.005 A 
ATOM     19 CL   UNL     1       2.441 -10.188 -10.953  0.00  0.00    -0.084 Cl
ENDBRANCH  12  13
ENDBRANCH  11  12
ENDBRANCH   9  11
ENDBRANCH   5   7
BRANCH   1  20
ATOM     20  S   UNL     1      -4.000  -4.331  -0.000  0.00  0.00    +0.061 S 
ATOM     21  O   UNL     1      -3.300  -5.443   0.541  0.00  0.00    -0.153 OA
ATOM     22  O   UNL     1      -5.214  -3.849   0.559  0.00  0.00    -0.153 OA
BRANCH  20  28
ATOM     23  C   UNL     1      -0.018   1.461   0.010  0.00  0.00    +0.156 C 
ATOM     24  N   UNL     1       0.002  -0.004   0.002  0.00  0.00    -0.277 N 
ATOM     25  C   UNL     1      -1.111  -0.844   0.003  0.00  0.00    +0.090 A 
ATOM     26  C   UNL     1      -2.478  -0.613   0.010  0.00  0.00    +0.031 A 
ATOM     27  C   UNL     1      -3.355  -1.680   0.009  0.00  0.00    +0.031 A 
ATOM     28  C   UNL     1      -2.873  -2.977   0.000  0.00  0.00    +0.109 A 
ATOM     29  C   UNL     1      -1.513  -3.215  -0.008  0.00  0.00    +0.077 A 
ATOM     30  C   UNL     1      -0.625  -2.151  -0.007  0.00  0.00    +0.159 A 
ATOM     31  O   UNL     1       0.729  -2.076  -0.013  0.00  0.00    -0.407 OA
ATOM     32  C   UNL     1       1.100  -0.786  -0.013  0.00  0.00    +0.421 A 
ATOM     33  O   UNL     1       2.248  -0.385  -0.022  0.00  0.00    -0.223 OA
ENDBRANCH  20  28
ENDBRANCH   1  20
TORSDOF 6
