REMARK  Name = ZINC59460088
REMARK  4 active torsions:
REMARK  status: ('A' for Active; 'I' for Inactive)
REMARK    1  A    between atoms: C_1  and  O_2
REMARK    2  A    between atoms: O_2  and  C_3
REMARK    3  A    between atoms: C_3  and  C_5
REMARK    4  A    between atoms: C_9  and  N_10
REMARK                            x       y       z     vdW  Elec       q    Type
REMARK                         _______ _______ _______ _____ _____    ______ ____
ROOT
ATOM      1  C   UNL     1       0.686  -2.056   1.108  0.00  0.00    +0.095 A 
ATOM      2  C   UNL     1       1.764  -2.743   0.519  0.00  0.00    -0.021 A 
ATOM      3  C   UNL     1       1.741  -4.099   0.592  0.00  0.00    -0.004 A 
ATOM      4  S   UNL     1       0.243  -4.472   1.475  0.00  0.00    -0.073 S 
ATOM      5  C   UNL     1      -0.326  -2.801   1.731  0.00  0.00    +0.116 A 
ATOM      6  C   UNL     1       2.936  -4.721  -0.075  0.00  0.00    +0.043 C 
ATOM      7  C   UNL     1       3.514  -3.598  -0.963  0.00  0.00    +0.010 C 
ATOM      8  C   UNL     1       3.038  -2.332  -0.226  0.00  0.00    +0.037 C 
ENDROOT
BRANCH   5   9
ATOM      9  N   UNL     1      -1.431  -2.370   2.355  0.00  0.00    -0.234 NA
ATOM     10  C   UNL     1      -2.523  -2.119   1.663  0.00  0.00    +0.136 C 
ATOM     11  C   UNL     1      -2.753  -2.368   0.225  0.00  0.00    +0.027 A 
ATOM     12  C   UNL     1      -1.962  -2.904  -0.789  0.00  0.00    +0.012 A 
ATOM     13  C   UNL     1      -2.469  -3.011  -2.068  0.00  0.00    +0.001 A 
ATOM     14  C   UNL     1      -3.759  -2.587  -2.341  0.00  0.00    +0.002 A 
ATOM     15  C   UNL     1      -4.551  -2.055  -1.344  0.00  0.00    +0.024 A 
ATOM     16  C   UNL     1      -4.060  -1.939  -0.049  0.00  0.00    +0.043 A 
ATOM     17  N   UNL     1      -4.638  -1.448   1.117  0.00  0.00    -0.280 N 
ATOM     18  C   UNL     1      -3.790  -1.533   2.157  0.00  0.00    +0.267 C 
ATOM     19  O   UNL     1      -4.021  -1.186   3.299  0.00  0.00    -0.268 OA
ATOM     20  H   UNL     1      -5.539  -1.095   1.174  0.00  0.00    +0.155 HD
ENDBRANCH   5   9
BRANCH   1  21
ATOM     21  C   UNL     1       0.624  -0.587   1.075  0.00  0.00    +0.342 C 
ATOM     22  O   UNL     1       1.127   0.063   1.970  0.00  0.00    -0.245 OA
BRANCH  21  24
ATOM     23  C   UNL     1      -0.013   1.468   0.084  0.00  0.00    +0.280 C 
ATOM     24  O   UNL     1       0.010   0.039   0.051  0.00  0.00    -0.464 OA
ENDBRANCH  21  24
ENDBRANCH   1  21
TORSDOF 3
