REMARK  Name = ZINC02334744
REMARK  12 active torsions:
REMARK  status: ('A' for Active; 'I' for Inactive)
REMARK    1  A    between atoms: C_1  and  C_2
REMARK    2  A    between atoms: C_2  and  C_3
REMARK    3  A    between atoms: C_3  and  C_4
REMARK    4  A    between atoms: C_4  and  N_5
REMARK    5  A    between atoms: N_5  and  C_6
REMARK    6  A    between atoms: C_6  and  C_7
REMARK    7  A    between atoms: C_7  and  C_8
REMARK    8  A    between atoms: C_8  and  C_9
REMARK    9  A    between atoms: C_10  and  C_12
REMARK   10  A    between atoms: C_13  and  N_32
REMARK   11  A    between atoms: C_28  and  C_30
REMARK   12  A    between atoms: C_28  and  C_31
REMARK                            x       y       z     vdW  Elec       q    Type
REMARK                         _______ _______ _______ _____ _____    ______ ____
ROOT
ATOM      1  C   UNL     1      -4.852   5.570   5.317  0.00  0.00    +0.097 A 
ATOM      2  C   UNL     1      -3.687   4.970   5.742  0.00  0.00    +0.054 A 
ATOM      3  C   UNL     1      -2.821   4.359   4.746  0.00  0.00    +0.031 A 
ATOM      4  C   UNL     1      -1.583   3.690   4.940  0.00  0.00    -0.025 A 
ATOM      5  C   UNL     1      -0.925   3.175   3.871  0.00  0.00    +0.020 A 
ATOM      6  C   UNL     1      -1.460   3.322   2.583  0.00  0.00    +0.105 A 
ATOM      7  C   UNL     1      -3.283   4.451   3.414  0.00  0.00    +0.089 A 
ATOM      8  S   UNL     1      -4.819   5.330   3.552  0.00  0.00    -0.064 S 
ATOM      9  N   UNL     1      -0.778   2.803   1.492  0.00  0.00    -0.312 N 
ATOM     10  C   UNL     1      -1.242   1.444   1.179  0.00  0.00    +0.134 C 
ATOM     11  C   UNL     1      -0.425   0.888   0.010  0.00  0.00    +0.178 C 
ATOM     12  O   UNL     1      -0.541   1.771  -1.109  0.00  0.00    -0.377 OA
ATOM     13  C   UNL     1      -0.097   3.104  -0.839  0.00  0.00    +0.178 C 
ATOM     14  C   UNL     1      -0.911   3.682   0.321  0.00  0.00    +0.134 C 
ATOM     15  C   UNL     1       0.387   2.450   4.028  0.00  0.00    +0.199 C 
ATOM     16  O   UNL     1       0.954   2.723   5.309  0.00  0.00    -0.369 OA
ATOM     17  C   UNL     1       0.041   2.496   6.389  0.00  0.00    +0.068 C 
ATOM     18  C   UNL     1      -1.043   3.575   6.340  0.00  0.00    +0.070 C 
ATOM     19  C   UNL     1       0.789   2.576   7.721  0.00  0.00    +0.041 C 
ATOM     20  C   UNL     1      -0.600   1.114   6.240  0.00  0.00    +0.041 C 
ATOM     21  N   UNL     1      -2.639   3.955   2.330  0.00  0.00    -0.337 N 
ATOM     22  H   UNL     1      -3.016   4.049   1.379  0.00  0.00    +0.168 HD
ENDROOT
BRANCH   1  24
ATOM     23  N   UNL     1      -6.854   6.871   5.493  0.00  0.00    -0.297 N 
ATOM     24  C   UNL     1      -5.838   6.221   6.096  0.00  0.00    +0.255 C 
ATOM     25  O   UNL     1      -5.770   6.195   7.312  0.00  0.00    -0.269 OA
BRANCH  23  26
ATOM     26  C   UNL     1      -7.941   7.437   6.295  0.00  0.00    +0.108 C 
BRANCH  26  27
ATOM     27  C   UNL     1      -7.593   8.874   6.685  0.00  0.00    +0.019 C 
BRANCH  27  29
ATOM     28  C   UNL     1      -8.380  10.903   7.913  0.00  0.00    +0.004 C 
ATOM     29  C   UNL     1      -8.728   9.465   7.523  0.00  0.00    -0.002 C 
ENDBRANCH  27  29
ENDBRANCH  26  27
ENDBRANCH  23  26
BRANCH  23  30
ATOM     30  C   UNL     1      -6.869   7.011   4.034  0.00  0.00    +0.108 C 
BRANCH  30  31
ATOM     31  C   UNL     1      -7.548   5.789   3.412  0.00  0.00    +0.019 C 
BRANCH  31  32
ATOM     32  C   UNL     1      -7.565   5.935   1.889  0.00  0.00    -0.002 C 
ATOM     33  C   UNL     1      -8.244   4.714   1.267  0.00  0.00    +0.004 C 
ENDBRANCH  31  32
ENDBRANCH  30  31
ENDBRANCH  23  30
ENDBRANCH   1  24
BRANCH   2  34
ATOM     34  N   UNL     1      -3.347   4.948   7.088  0.00  0.00    -0.356 N 
ATOM     35  H   UNL     1      -2.419   4.846   7.352  0.00  0.00    +0.142 HD
ATOM     36  H   UNL     1      -4.037   5.035   7.764  0.00  0.00    +0.142 HD
ENDBRANCH   2  34
TORSDOF 8
