REMARK  Name = ZINC48101002
REMARK  9 active torsions:
REMARK  status: ('A' for Active; 'I' for Inactive)
REMARK    1  A    between atoms: C_1  and  C_2
REMARK    2  A    between atoms: C_9  and  C_11
REMARK    3  A    between atoms: C_14  and  N_17
REMARK    4  A    between atoms: N_20  and  C_21
REMARK    5  A    between atoms: C_21  and  C_22
REMARK    6  A    between atoms: C_22  and  C_24
REMARK    7  A    between atoms: C_22  and  N_29
REMARK    8  A    between atoms: N_29  and  C_30
REMARK    9  A    between atoms: N_29  and  C_31
REMARK                            x       y       z     vdW  Elec       q    Type
REMARK                         _______ _______ _______ _____ _____    ______ ____
ROOT
ATOM      1  N   UNL     1       4.842  -1.456   6.106  0.00  0.00    -0.269 N 
ATOM      2  C   UNL     1       4.610  -2.668   6.648  0.00  0.00    +0.304 C 
ATOM      3  O   UNL     1       3.724  -3.373   6.204  0.00  0.00    -0.253 OA
ATOM      4  N   UNL     1       5.360  -3.100   7.681  0.00  0.00    -0.300 N 
ATOM      5  H   UNL     1       5.590  -0.922   6.416  0.00  0.00    +0.156 HD
ATOM      6  H   UNL     1       6.067  -2.538   8.035  0.00  0.00    +0.150 HD
ENDROOT
BRANCH   1  10
ATOM      7  C   UNL     1       2.350  -0.006   3.100  0.00  0.00    +0.037 A 
ATOM      8  C   UNL     1       2.649  -1.370   3.165  0.00  0.00    +0.015 A 
ATOM      9  C   UNL     1       3.473  -1.846   4.160  0.00  0.00    +0.024 A 
ATOM     10  C   UNL     1       4.008  -0.971   5.100  0.00  0.00    +0.035 A 
ATOM     11  C   UNL     1       3.712   0.387   5.038  0.00  0.00    +0.024 A 
ATOM     12  C   UNL     1       2.894   0.871   4.043  0.00  0.00    +0.015 A 
BRANCH   7  20
ATOM     13  C   UNL     1       0.037   1.629   0.054  0.00  0.00    +0.028 C 
ATOM     14  C   UNL     1      -0.289   0.166   0.364  0.00  0.00    +0.073 C 
ATOM     15  C   UNL     1      -1.774   0.034   0.714  0.00  0.00    +0.022 C 
ATOM     16  C   UNL     1      -2.064  -1.402   1.157  0.00  0.00    +0.003 C 
ATOM     17  C   UNL     1      -1.242  -1.728   2.406  0.00  0.00    +0.019 C 
ATOM     18  C   UNL     1       0.250  -1.616   2.075  0.00  0.00    +0.108 C 
ATOM     19  N   UNL     1       0.513  -0.285   1.510  0.00  0.00    -0.295 N 
ATOM     20  C   UNL     1       1.468   0.508   2.035  0.00  0.00    +0.247 C 
ATOM     21  O   UNL     1       1.602   1.647   1.631  0.00  0.00    -0.270 OA
ENDBRANCH   7  20
ENDBRANCH   1  10
BRANCH   4  22
ATOM     22  C   UNL     1       5.107  -4.417   8.270  0.00  0.00    +0.095 C 
BRANCH  22  23
ATOM     23  C   UNL     1       6.007  -4.611   9.492  0.00  0.00    -0.014 C 
BRANCH  23  24
ATOM     24  C   UNL     1       7.451  -4.603   9.058  0.00  0.00    -0.022 A 
ATOM     25  C   UNL     1       8.357  -3.597   9.128  0.00  0.00    +0.009 A 
ATOM     26  C   UNL     1       9.641  -3.818   8.665  0.00  0.00    +0.008 A 
ATOM     27  C   UNL     1       9.955  -5.034   8.155  0.00  0.00    +0.045 A 
ATOM     28  S   UNL     1       8.412  -5.917   8.326  0.00  0.00    -0.103 S 
ENDBRANCH  23  24
BRANCH  23  29
ATOM     29  N   UNL     1       5.696  -5.896  10.131  0.00  0.00    +0.382 N 
ATOM     30  C   UNL     1       6.496  -6.042  11.354  0.00  0.00    -0.096 C 
ATOM     31  C   UNL     1       4.267  -5.940  10.472  0.00  0.00    -0.096 C 
ATOM     32  H   UNL     1       5.913  -6.649   9.496  0.00  0.00    -0.082 HD
ENDBRANCH  23  29
ENDBRANCH  22  23
ENDBRANCH   4  22
TORSDOF 6
