REMARK  Name = ZINC39941001
REMARK  14 active torsions:
REMARK  status: ('A' for Active; 'I' for Inactive)
REMARK    1  A    between atoms: C_1  and  C_2
REMARK    2  A    between atoms: C_2  and  N_3
REMARK    3  A    between atoms: N_3  and  C_4
REMARK    4  A    between atoms: N_3  and  C_24
REMARK    5  A    between atoms: C_4  and  C_5
REMARK    6  A    between atoms: C_10  and  C_23
REMARK    7  A    between atoms: C_11  and  C_16
REMARK    8  A    between atoms: C_16  and  O_18
REMARK    9  A    between atoms: O_18  and  C_19
REMARK   10  A    between atoms: C_19  and  C_20
REMARK   11  A    between atoms: C_20  and  O_21
REMARK   12  A    between atoms: O_21  and  C_22
REMARK   13  A    between atoms: C_24  and  C_25
REMARK   14  A    between atoms: N_27  and  C_28
REMARK                            x       y       z     vdW  Elec       q    Type
REMARK                         _______ _______ _______ _____ _____    ______ ____
ROOT
ATOM      1  C   UNL     1      -0.902  -3.325   1.062  0.00  0.00    +0.138 C 
ATOM      2  N   UNL     1      -0.417  -2.505   1.962  0.00  0.00    -0.160 NA
ATOM      3  C   UNL     1       0.123  -2.927   3.110  0.00  0.00    +0.271 C 
ATOM      4  O   UNL     1       0.566  -2.136   3.926  0.00  0.00    -0.268 OA
ATOM      5  C   UNL     1       0.168  -4.402   3.362  0.00  0.00    +0.071 C 
ATOM      6  C   UNL     1       0.656  -5.050   4.430  0.00  0.00    -0.034 C 
ATOM      7  C   UNL     1       0.577  -6.559   4.435  0.00  0.00    +0.188 C 
ATOM      8  S   UNL     1      -0.233  -6.895   2.819  0.00  0.00    -0.086 S 
ATOM      9  C   UNL     1      -0.411  -5.216   2.271  0.00  0.00    +0.112 C 
ATOM     10  N   UNL     1      -0.910  -4.641   1.203  0.00  0.00    -0.226 NA
ATOM     11  C   UNL     1       1.264  -4.297   5.586  0.00  0.00    +0.041 C 
ENDROOT
BRANCH   7  12
ATOM     12  C   UNL     1      -0.273  -7.051   5.579  0.00  0.00    +0.325 C 
ATOM     13  O   UNL     1      -1.237  -6.415   5.932  0.00  0.00    -0.249 OA
BRANCH  12  14
ATOM     14  O   UNL     1       0.042  -8.197   6.204  0.00  0.00    -0.461 OA
BRANCH  14  15
ATOM     15  C   UNL     1      -0.807  -8.603   7.279  0.00  0.00    +0.260 C 
BRANCH  15  16
ATOM     16  C   UNL     1      -0.295  -9.920   7.864  0.00  0.00    +0.200 C 
BRANCH  16  17
ATOM     17  O   UNL     1       0.990  -9.711   8.455  0.00  0.00    -0.380 OA
ATOM     18  C   UNL     1       1.561 -10.886   9.034  0.00  0.00    +0.194 C 
ENDBRANCH  16  17
ENDBRANCH  15  16
ENDBRANCH  14  15
ENDBRANCH  12  14
ENDBRANCH   7  12
BRANCH   1  19
ATOM     19  C   UNL     1      -1.488  -2.739  -0.196  0.00  0.00    +0.158 C 
BRANCH  19  20
ATOM     20  N   UNL     1      -1.380  -1.274  -0.150  0.00  0.00    -0.287 NA
BRANCH  20  22
ATOM     21  C   UNL     1       0.128   0.612   0.256  0.00  0.00    +0.020 C 
ATOM     22  C   UNL     1       0.025  -0.849  -0.188  0.00  0.00    +0.082 C 
ENDBRANCH  20  22
BRANCH  20  23
ATOM     23  C   UNL     1      -2.147  -0.656  -1.240  0.00  0.00    +0.181 C 
BRANCH  23  24
ATOM     24  C   UNL     1      -3.621  -0.769  -0.945  0.00  0.00    +0.231 C 
ATOM     25  O   UNL     1      -3.998  -1.380   0.033  0.00  0.00    -0.274 OA
ATOM     26  N   UNL     1      -4.519  -0.192  -1.768  0.00  0.00    -0.280 N 
ATOM     27  H   UNL     1      -4.218   0.274  -2.563  0.00  0.00    +0.155 HD
BRANCH  26  28
ATOM     28  C   UNL     1      -5.887  -0.265  -1.473  0.00  0.00    +0.105 A 
ATOM     29  C   UNL     1      -6.321  -0.193  -0.154  0.00  0.00    +0.147 A 
ATOM     30  C   UNL     1      -7.672  -0.266   0.133  0.00  0.00    +0.040 A 
ATOM     31  C   UNL     1      -8.591  -0.410  -0.890  0.00  0.00    +0.006 A 
ATOM     32  C   UNL     1      -8.164  -0.483  -2.203  0.00  0.00    +0.040 A 
ATOM     33  C   UNL     1      -6.814  -0.405  -2.499  0.00  0.00    +0.147 A 
ATOM     34  F   UNL     1      -6.398  -0.470  -3.782  0.00  0.00    -0.203 F 
ATOM     35  F   UNL     1      -5.424  -0.052   0.846  0.00  0.00    -0.203 F 
ENDBRANCH  26  28
ENDBRANCH  23  24
ENDBRANCH  20  23
ENDBRANCH  19  20
ENDBRANCH   1  19
TORSDOF 11
