REMARK  Name = ZINC00622418
REMARK  12 active torsions:
REMARK  status: ('A' for Active; 'I' for Inactive)
REMARK    1  A    between atoms: C_1  and  C_2
REMARK    2  A    between atoms: C_2  and  C_31
REMARK    3  A    between atoms: C_6  and  C_18
REMARK    4  A    between atoms: C_6  and  C_19
REMARK    5  A    between atoms: C_10  and  O_16
REMARK    6  A    between atoms: C_12  and  O_14
REMARK    7  A    between atoms: O_14  and  C_15
REMARK    8  A    between atoms: O_16  and  C_17
REMARK    9  A    between atoms: C_23  and  O_28
REMARK   10  A    between atoms: C_25  and  O_26
REMARK   11  A    between atoms: O_26  and  C_27
REMARK   12  A    between atoms: O_28  and  C_29
REMARK                            x       y       z     vdW  Elec       q    Type
REMARK                         _______ _______ _______ _____ _____    ______ ____
ROOT
ATOM      1  C   UNL     1      -9.592   0.264   2.310  0.00  0.00    +0.031 C 
ATOM      2  C   UNL     1      -8.668  -0.240   1.197  0.00  0.00    +0.028 C 
ATOM      3  C   UNL     1      -7.284   0.377   1.297  0.00  0.00    +0.041 C 
ATOM      4  C   UNL     1      -6.339  -0.259   2.300  0.00  0.00    +0.035 C 
ATOM      5  C   UNL     1      -6.607   0.161   3.734  0.00  0.00    +0.041 C 
ATOM      6  C   UNL     1      -6.075   1.523   4.142  0.00  0.00    +0.028 C 
ATOM      7  N   UNL     1      -4.718   1.750   3.651  0.00  0.00    -0.338 N 
ATOM      8  C   UNL     1      -4.197   1.062   2.558  0.00  0.00    +0.039 A 
ATOM      9  C   UNL     1      -4.929   0.108   1.877  0.00  0.00    +0.026 A 
ATOM     10  C   UNL     1      -4.370  -0.525   0.773  0.00  0.00    +0.129 A 
ATOM     11  C   UNL     1      -3.073  -0.227   0.377  0.00  0.00    +0.091 A 
ATOM     12  C   UNL     1      -2.331   0.711   1.076  0.00  0.00    +0.125 A 
ATOM     13  C   UNL     1      -2.895   1.361   2.160  0.00  0.00    +0.069 A 
ATOM     14  C   UNL     1      -7.000   2.654   3.679  0.00  0.00    +0.031 C 
ATOM     15  C   UNL     1      -6.026   1.574   5.688  0.00  0.00    +0.031 C 
ATOM     16  C   UNL     1      -6.433  -1.772   2.255  0.00  0.00    +0.026 A 
ATOM     17  C   UNL     1      -7.535  -2.409   1.715  0.00  0.00    +0.039 A 
ATOM     18  C   UNL     1      -7.585  -3.801   1.667  0.00  0.00    +0.069 A 
ATOM     19  C   UNL     1      -6.538  -4.553   2.172  0.00  0.00    +0.125 A 
ATOM     20  C   UNL     1      -5.445  -3.916   2.736  0.00  0.00    +0.091 A 
ATOM     21  C   UNL     1      -5.397  -2.529   2.788  0.00  0.00    +0.129 A 
ATOM     22  N   UNL     1      -8.620  -1.699   1.206  0.00  0.00    -0.338 N 
ATOM     23  C   UNL     1      -9.291   0.199  -0.150  0.00  0.00    +0.031 C 
ATOM     24  H   UNL     1      -4.154   2.415   4.103  0.00  0.00    +0.147 HD
ATOM     25  H   UNL     1      -9.382  -2.202   0.841  0.00  0.00    +0.147 HD
ENDROOT
BRANCH  12  26
ATOM     26  O   UNL     1      -1.058   0.995   0.694  0.00  0.00    -0.495 OA
ATOM     27  C   UNL     1      -0.547   0.288  -0.438  0.00  0.00    +0.277 C 
ENDBRANCH  12  26
BRANCH  10  28
ATOM     28  O   UNL     1      -5.080  -1.437   0.058  0.00  0.00    -0.495 OA
ATOM     29  C   UNL     1      -4.427  -2.031  -1.066  0.00  0.00    +0.277 C 
ENDBRANCH  10  28
BRANCH  21  30
ATOM     30  O   UNL     1      -4.330  -1.933   3.381  0.00  0.00    -0.495 OA
ATOM     31  C   UNL     1      -3.313  -2.791   3.900  0.00  0.00    +0.277 C 
ENDBRANCH  21  30
BRANCH  19  32
ATOM     32  O   UNL     1      -6.581  -5.909   2.114  0.00  0.00    -0.495 OA
ATOM     33  C   UNL     1      -5.465  -6.618   2.655  0.00  0.00    +0.277 C 
ENDBRANCH  19  32
TORSDOF 4
