REMARK  Name = ZINC03467440
REMARK  8 active torsions:
REMARK  status: ('A' for Active; 'I' for Inactive)
REMARK    1  A    between atoms: C_3  and  O_27
REMARK    2  A    between atoms: C_6  and  C_7
REMARK    3  A    between atoms: C_7  and  S_8
REMARK    4  A    between atoms: S_8  and  C_9
REMARK    5  A    between atoms: C_9  and  N_11
REMARK    6  A    between atoms: N_15  and  C_18
REMARK    7  A    between atoms: C_21  and  C_23
REMARK    8  A    between atoms: O_27  and  C_28
REMARK                            x       y       z     vdW  Elec       q    Type
REMARK                         _______ _______ _______ _____ _____    ______ ____
ROOT
ATOM      1  N   UNL     1      -3.421  -2.333  -1.051  0.00  0.00    -0.317 N 
ATOM      2  C   UNL     1      -3.187  -3.258   0.075  0.00  0.00    +0.107 C 
ATOM      3  C   UNL     1      -2.072  -2.741   1.000  0.00  0.00    +0.038 C 
ATOM      4  C   UNL     1      -0.959  -2.143   0.168  0.00  0.00    +0.108 C 
ATOM      5  N   UNL     1      -1.196  -0.709   0.010  0.00  0.00    -0.315 N 
ATOM      6  C   UNL     1      -2.018  -0.325  -1.075  0.00  0.00    +0.125 C 
ATOM      7  C   UNL     1      -3.444  -0.894  -0.886  0.00  0.00    +0.125 C 
ENDROOT
BRANCH   5   8
ATOM      8  C   UNL     1       0.002  -0.004   0.002  0.00  0.00    +0.099 A 
ATOM      9  C   UNL     1      -0.017   1.387   0.010  0.00  0.00    +0.042 A 
ATOM     10  C   UNL     1       1.182   2.076   0.002  0.00  0.00    +0.017 A 
ATOM     11  C   UNL     1       2.365   1.348  -0.013  0.00  0.00    +0.071 A 
ATOM     12  C   UNL     1       2.310  -0.031  -0.020  0.00  0.00    +0.096 A 
ATOM     13  N   UNL     1       1.150  -0.741  -0.013  0.00  0.00    -0.349 N 
ATOM     14  H   UNL     1       1.139  -1.768  -0.018  0.00  0.00    +0.167 HD
BRANCH  11  15
ATOM     15  C   UNL     1       3.695   2.057  -0.021  0.00  0.00    +0.419 C 
ATOM     16  F   UNL     1       4.727   1.112  -0.036  0.00  0.00    -0.166 F 
ATOM     17  F   UNL     1       3.786   2.864  -1.160  0.00  0.00    -0.166 F 
ATOM     18  F   UNL     1       3.807   2.851   1.125  0.00  0.00    -0.166 F 
ENDBRANCH  11  15
ENDBRANCH   5   8
BRANCH   1  19
ATOM     19  C   UNL     1      -3.622  -2.848  -2.281  0.00  0.00    +0.110 C 
ATOM     20  S   UNL     1      -3.602  -4.544  -2.513  0.00  0.00    -0.028 S 
BRANCH  19  21
ATOM     21  S   UNL     1      -3.905  -1.774  -3.649  0.00  0.00    -0.098 S 
BRANCH  21  22
ATOM     22  C   UNL     1      -4.097  -2.995  -4.972  0.00  0.00    +0.111 C 
BRANCH  22  28
ATOM     23  C   UNL     1      -5.653  -2.009  -6.666  0.00  0.00    +0.008 A 
ATOM     24  C   UNL     1      -5.893  -1.354  -7.858  0.00  0.00    +0.046 A 
ATOM     25  C   UNL     1      -4.830  -0.984  -8.671  0.00  0.00    +0.130 A 
ATOM     26  C   UNL     1      -3.530  -1.268  -8.280  0.00  0.00    +0.046 A 
ATOM     27  C   UNL     1      -3.295  -1.918  -7.084  0.00  0.00    +0.008 A 
ATOM     28  C   UNL     1      -4.356  -2.286  -6.276  0.00  0.00    -0.037 A 
BRANCH  25  29
ATOM     29  O   UNL     1      -5.064  -0.345  -9.847  0.00  0.00    -0.406 OA
BRANCH  29  30
ATOM     30  C   UNL     1      -6.427  -0.085 -10.185  0.00  0.00    +0.575 C 
ATOM     31  F   UNL     1      -7.008   0.719  -9.198  0.00  0.00    -0.133 F 
ATOM     32  F   UNL     1      -6.485   0.575 -11.417  0.00  0.00    -0.133 F 
ATOM     33  F   UNL     1      -7.125  -1.295 -10.270  0.00  0.00    -0.133 F 
ENDBRANCH  29  30
ENDBRANCH  25  29
ENDBRANCH  22  28
ENDBRANCH  21  22
ENDBRANCH  19  21
ENDBRANCH   1  19
TORSDOF 8
