REMARK  Name = ZINC60355841
REMARK  10 active torsions:
REMARK  status: ('A' for Active; 'I' for Inactive)
REMARK    1  A    between atoms: C_1  and  N_2
REMARK    2  A    between atoms: N_2  and  C_3
REMARK    3  A    between atoms: N_2  and  C_19
REMARK    4  A    between atoms: C_3  and  C_4
REMARK    5  A    between atoms: C_4  and  C_6
REMARK    6  A    between atoms: C_4  and  O_18
REMARK    7  A    between atoms: C_6  and  O_7
REMARK    8  A    between atoms: O_7  and  C_8
REMARK    9  A    between atoms: C_11  and  C_14
REMARK   10  A    between atoms: C_24  and  C_25
REMARK                            x       y       z     vdW  Elec       q    Type
REMARK                         _______ _______ _______ _____ _____    ______ ____
ROOT
ATOM      1  C   UNL     1      -1.411  -1.020   1.720  0.00  0.00    +0.169 C 
ENDROOT
BRANCH   1   2
ATOM      2  O   UNL     1      -2.099   0.218   1.905  0.00  0.00    -0.387 OA
ATOM      3  H   UNL     1      -1.697   0.797   2.567  0.00  0.00    +0.210 HD
ENDBRANCH   1   2
BRANCH   1   4
ATOM      4  C   UNL     1       0.024  -0.743   1.267  0.00  0.00    +0.139 C 
BRANCH   4   6
ATOM      5  C   UNL     1      -0.018   1.461   0.010  0.00  0.00    +0.129 C 
ATOM      6  N   UNL     1       0.002  -0.004   0.002  0.00  0.00    -0.329 N 
BRANCH   6   7
ATOM      7  C   UNL     1       0.000  -0.693  -1.206  0.00  0.00    +0.050 A 
ATOM      8  C   UNL     1       1.199  -1.027  -1.820  0.00  0.00    +0.024 A 
ATOM      9  C   UNL     1       1.197  -1.711  -3.019  0.00  0.00    +0.005 A 
ATOM     10  C   UNL     1       0.002  -2.070  -3.620  0.00  0.00    +0.040 A 
ATOM     11  C   UNL     1      -1.202  -1.747  -3.026  0.00  0.00    +0.142 A 
ATOM     12  C   UNL     1      -1.215  -1.059  -1.807  0.00  0.00    +0.108 A 
ATOM     13  F   UNL     1      -2.365  -2.100  -3.616  0.00  0.00    -0.204 F 
BRANCH  12  14
ATOM     14  C   UNL     1      -2.458  -0.725  -1.181  0.00  0.00    +0.104 C 
ATOM     15  N   UNL     1      -3.445  -0.461  -0.683  0.00  0.00    -0.191 NA
ENDBRANCH  12  14
ENDBRANCH   6   7
ENDBRANCH   4   6
ENDBRANCH   1   4
BRANCH   1  16
ATOM     16  C   UNL     1      -1.387  -1.792   3.041  0.00  0.00    +0.261 C 
BRANCH  16  17
ATOM     17  O   UNL     1      -2.721  -2.152   3.406  0.00  0.00    -0.489 OA
BRANCH  17  18
ATOM     18  C   UNL     1      -2.878  -2.848   4.563  0.00  0.00    +0.121 A 
ATOM     19  C   UNL     1      -1.772  -3.172   5.334  0.00  0.00    +0.046 A 
ATOM     20  C   UNL     1      -1.934  -3.879   6.510  0.00  0.00    +0.016 A 
ATOM     21  C   UNL     1      -3.198  -4.264   6.918  0.00  0.00    +0.055 A 
ATOM     22  C   UNL     1      -4.302  -3.942   6.151  0.00  0.00    +0.016 A 
ATOM     23  C   UNL     1      -4.146  -3.230   4.977  0.00  0.00    +0.046 A 
BRANCH  21  24
ATOM     24  C   UNL     1      -3.372  -5.035   8.201  0.00  0.00    +0.417 C 
ATOM     25  F   UNL     1      -3.556  -4.141   9.261  0.00  0.00    -0.166 F 
ATOM     26  F   UNL     1      -4.490  -5.870   8.095  0.00  0.00    -0.166 F 
ATOM     27  F   UNL     1      -2.232  -5.810   8.437  0.00  0.00    -0.166 F 
ENDBRANCH  21  24
ENDBRANCH  17  18
ENDBRANCH  16  17
ENDBRANCH   1  16
TORSDOF 9
