REMARK  Name = ZINC08413231
REMARK  4 active torsions:
REMARK  status: ('A' for Active; 'I' for Inactive)
REMARK    1  A    between atoms: C_1  and  C_2
REMARK    2  A    between atoms: C_3  and  C_24
REMARK    3  A    between atoms: C_4  and  C_14
REMARK    4  A    between atoms: C_16  and  N_21
REMARK                            x       y       z     vdW  Elec       q    Type
REMARK                         _______ _______ _______ _____ _____    ______ ____
ROOT
ATOM      1  C   UNL     1      -4.783  -1.412  -2.640  0.00  0.00    +0.061 C 
ATOM      2  C   UNL     1      -4.803  -0.824  -1.253  0.00  0.00    +0.014 C 
ATOM      3  C   UNL     1      -5.056   0.485  -1.087  0.00  0.00    +0.043 C 
ATOM      4  C   UNL     1      -5.078   1.107   0.278  0.00  0.00    +0.092 C 
ATOM      5  C   UNL     1      -5.220   0.054   1.349  0.00  0.00    +0.024 C 
ATOM      6  C   UNL     1      -4.954  -1.241   1.083  0.00  0.00    +0.015 C 
ATOM      7  N   UNL     1      -4.564  -1.626  -0.172  0.00  0.00    -0.321 N 
ATOM      8  C   UNL     1      -5.074  -2.295   2.155  0.00  0.00    +0.051 C 
ATOM      9  C   UNL     1      -6.169  -1.897   3.147  0.00  0.00    +0.014 C 
ATOM     10  C   UNL     1      -5.810  -0.532   3.745  0.00  0.00    +0.080 C 
ATOM     11  C   UNL     1      -5.637   0.462   2.629  0.00  0.00    +0.162 C 
ATOM     12  O   UNL     1      -5.862   1.638   2.837  0.00  0.00    -0.292 OA
ATOM     13  H   UNL     1      -4.053  -2.591  -0.305  0.00  0.00    +0.152 HD
ENDROOT
BRANCH   3  14
ATOM     14  C   UNL     1      -5.308   1.294  -2.223  0.00  0.00    +0.248 C 
ATOM     15  O   UNL     1      -6.452   1.582  -2.523  0.00  0.00    -0.270 OA
ATOM     16  N   UNL     1      -4.280   1.743  -2.970  0.00  0.00    -0.267 N 
ATOM     17  C   UNL     1      -4.518   2.626  -4.022  0.00  0.00    +0.125 A 
ATOM     18  C   UNL     1      -3.470   3.001  -4.856  0.00  0.00    +0.045 A 
ATOM     19  C   UNL     1      -3.720   3.877  -5.897  0.00  0.00    +0.020 A 
ATOM     20  C   UNL     1      -5.015   4.351  -6.069  0.00  0.00    +0.036 A 
ATOM     21  C   UNL     1      -6.007   3.936  -5.202  0.00  0.00    +0.128 A 
ATOM     22  N   UNL     1      -5.739   3.095  -4.221  0.00  0.00    -0.239 NA
ATOM     23 BR   UNL     1      -5.415   5.552  -7.474  0.00  0.00    -0.049 Br
ATOM     24  H   UNL     1      -3.254   1.413  -2.750  0.00  0.00    +0.157 HD
ENDBRANCH   3  14
BRANCH   4  25
ATOM     25  C   UNL     1      -3.794   1.865   0.497  0.00  0.00    -0.015 A 
ATOM     26  C   UNL     1      -2.583   1.199   0.461  0.00  0.00    +0.038 A 
ATOM     27  C   UNL     1      -1.405   1.894   0.662  0.00  0.00    +0.127 A 
ATOM     28  C   UNL     1      -1.438   3.255   0.904  0.00  0.00    +0.034 A 
ATOM     29  C   UNL     1      -2.647   3.923   0.935  0.00  0.00    +0.022 A 
ATOM     30  C   UNL     1      -3.827   3.228   0.734  0.00  0.00    +0.045 A 
ATOM     31 CL   UNL     1      -5.347   4.065   0.779  0.00  0.00    -0.083 Cl
BRANCH  27  32
ATOM     32  N   UNL     1      -0.110   1.181   0.624  0.00  0.00    +0.056 N 
ATOM     33  O   UNL     1      -0.081  -0.019   0.416  0.00  0.00    -0.126 OA
ATOM     34  O   UNL     1       0.929   1.794   0.796  0.00  0.00    -0.126 OA
ENDBRANCH  27  32
ENDBRANCH   4  25
TORSDOF 3
