REMARK  Name = ZINC08983973
REMARK  12 active torsions:
REMARK  status: ('A' for Active; 'I' for Inactive)
REMARK    1  A    between atoms: C_1  and  C_2
REMARK    2  A    between atoms: C_3  and  C_37
REMARK    3  A    between atoms: N_6  and  C_16
REMARK    4  A    between atoms: C_7  and  N_80
REMARK    5  A    between atoms: C_9  and  C_10
REMARK    6  A    between atoms: C_9  and  N_80
REMARK    7  A    between atoms: C_16  and  C_17
REMARK    8  A    between atoms: C_17  and  C_36
REMARK    9  A    between atoms: C_21  and  C_35
REMARK   10  A    between atoms: C_30  and  C_32
REMARK   11  A    between atoms: C_32  and  C_33
REMARK   12  A    between atoms: C_32  and  C_34
REMARK                            x       y       z     vdW  Elec       q    Type
REMARK                         _______ _______ _______ _____ _____    ______ ____
ROOT
ATOM      1  C   UNL     1       2.855  -3.775   0.322  0.00  0.00    -0.013 C 
ATOM      2  C   UNL     1       1.735  -4.716   0.767  0.00  0.00    +0.008 C 
ATOM      3  C   UNL     1       0.400  -4.368   0.122  0.00  0.00    +0.001 C 
ATOM      4  C   UNL     1       0.017  -2.924   0.447  0.00  0.00    +0.011 C 
ATOM      5  C   UNL     1       1.077  -1.978  -0.112  0.00  0.00    -0.003 C 
ATOM      6  C   UNL     1       2.446  -2.325   0.443  0.00  0.00    +0.007 C 
ATOM      7  C   UNL     1       3.480  -1.352  -0.119  0.00  0.00    +0.009 C 
ATOM      8  C   UNL     1       3.223   0.023   0.501  0.00  0.00    +0.036 C 
ATOM      9  C   UNL     1       1.756   0.357   0.551  0.00  0.00    -0.043 A 
ATOM     10  C   UNL     1       0.756  -0.550   0.276  0.00  0.00    -0.038 A 
ATOM     11  C   UNL     1      -0.572  -0.165   0.344  0.00  0.00    +0.005 A 
ATOM     12  C   UNL     1      -0.909   1.131   0.685  0.00  0.00    +0.004 A 
ATOM     13  C   UNL     1       0.090   2.045   0.962  0.00  0.00    -0.045 A 
ATOM     14  C   UNL     1       1.412   1.660   0.896  0.00  0.00    +0.007 A 
ATOM     15  C   UNL     1       1.034  -2.036  -1.638  0.00  0.00    +0.016 C 
ATOM     16  C   UNL     1       4.048  -4.023   1.278  0.00  0.00    +0.013 C 
ENDROOT
BRANCH  13  17
ATOM     17  C   UNL     1      -0.267   3.461   1.336  0.00  0.00    +0.013 C 
ATOM     18  C   UNL     1      -1.052   4.108   0.194  0.00  0.00    +0.012 C 
ATOM     19  C   UNL     1      -1.123   3.453   2.604  0.00  0.00    +0.012 C 
ENDBRANCH  13  17
BRANCH   1  20
ATOM     20  C   UNL     1       3.320  -4.141  -1.087  0.00  0.00    +0.113 C 
BRANCH  20  26
ATOM     21  C   UNL     1       6.366  -8.375  -0.744  0.00  0.00    +0.039 C 
ATOM     22  C   UNL     1       5.189  -7.455  -0.943  0.00  0.00    -0.062 C 
ATOM     23  C   UNL     1       3.952  -7.814  -1.274  0.00  0.00    +0.010 C 
ATOM     24  C   UNL     1       3.099  -6.625  -1.369  0.00  0.00    +0.241 C 
ATOM     25  O   UNL     1       1.917  -6.635  -1.655  0.00  0.00    -0.270 OA
ATOM     26  N   UNL     1       3.817  -5.519  -1.095  0.00  0.00    -0.307 N 
ATOM     27  C   UNL     1       5.192  -5.950  -0.810  0.00  0.00    +0.046 C 
ATOM     28  C   UNL     1       3.495  -9.229  -1.514  0.00  0.00    +0.049 C 
BRANCH  27  29
ATOM     29  N   UNL     1       6.122  -5.358  -1.791  0.00  0.00    +0.395 N 
ATOM     30  H   UNL     1       5.586  -4.991  -2.586  0.00  0.00    -0.083 HD
ATOM     31  H   UNL     1       6.772  -6.081  -2.120  0.00  0.00    -0.083 HD
BRANCH  29  32
ATOM     32  C   UNL     1       6.888  -4.260  -1.172  0.00  0.00    -0.048 C 
BRANCH  32  33
ATOM     33  C   UNL     1       7.841  -3.666  -2.211  0.00  0.00    +0.101 C 
ATOM     34  C   UNL     1       8.747  -2.596  -1.561  0.00  0.00    +0.032 C 
ATOM     35  C   UNL     1       8.889  -1.512  -2.651  0.00  0.00    +0.030 C 
ATOM     36  C   UNL     1       8.052  -2.054  -3.832  0.00  0.00    +0.160 C 
ATOM     37  O   UNL     1       7.100  -2.955  -3.226  0.00  0.00    -0.378 OA
ENDBRANCH  32  33
ENDBRANCH  29  32
ENDBRANCH  27  29
ENDBRANCH  20  26
ENDBRANCH   1  20
TORSDOF 6
