REMARK  Name = ZINC06842256
REMARK  4 active torsions:
REMARK  status: ('A' for Active; 'I' for Inactive)
REMARK    1  A    between atoms: C_1  and  C_2
REMARK    2  A    between atoms: C_10  and  C_13
REMARK    3  A    between atoms: C_19  and  C_22
REMARK    4  A    between atoms: N_24  and  C_25
REMARK                            x       y       z     vdW  Elec       q    Type
REMARK                         _______ _______ _______ _____ _____    ______ ____
ROOT
ATOM      1  C   UNL     1      10.473   0.933   4.364  0.00  0.00    +0.044 C 
ATOM      2  C   UNL     1       9.193   0.189   4.645  0.00  0.00    -0.048 A 
ATOM      3  C   UNL     1       9.013  -0.442   5.862  0.00  0.00    +0.007 A 
ATOM      4  C   UNL     1       7.842  -1.128   6.126  0.00  0.00    +0.048 A 
ATOM      5  C   UNL     1       6.840  -1.185   5.168  0.00  0.00    +0.142 A 
ATOM      6  C   UNL     1       7.026  -0.551   3.942  0.00  0.00    +0.080 A 
ATOM      7  C   UNL     1       8.199   0.137   3.685  0.00  0.00    +0.030 A 
ATOM      8  N   UNL     1       6.008  -0.599   2.973  0.00  0.00    -0.248 N 
ATOM      9  C   UNL     1       4.923  -1.577   3.168  0.00  0.00    +0.159 C 
ATOM     10  C   UNL     1       4.538  -1.551   4.654  0.00  0.00    +0.188 C 
ATOM     11  O   UNL     1       5.693  -1.863   5.435  0.00  0.00    -0.486 OA
ATOM     12  C   UNL     1       3.445  -2.589   4.918  0.00  0.00    +0.053 C 
ATOM     13  C   UNL     1       6.026   0.218   1.901  0.00  0.00    +0.309 C 
ATOM     14  O   UNL     1       6.832   1.126   1.843  0.00  0.00    -0.252 OA
ATOM     15  N   UNL     1       5.151   0.028   0.894  0.00  0.00    -0.285 N 
ATOM     16  C   UNL     1       4.798   1.131  -0.010  0.00  0.00    +0.110 C 
ATOM     17  C   UNL     1       3.274   1.276  -0.040  0.00  0.00    +0.032 C 
ATOM     18  C   UNL     1       2.645  -0.069  -0.414  0.00  0.00    +0.078 C 
ATOM     19  C   UNL     1       3.010  -1.115   0.641  0.00  0.00    +0.032 C 
ATOM     20  C   UNL     1       4.532  -1.287   0.679  0.00  0.00    +0.110 C 
ENDROOT
BRANCH  18  21
ATOM     21  C   UNL     1       1.147   0.078  -0.478  0.00  0.00    +0.216 C 
ATOM     22  O   UNL     1       0.632   1.152  -0.247  0.00  0.00    -0.276 OA
ATOM     23  N   UNL     1       0.378  -0.983  -0.791  0.00  0.00    -0.312 N 
ATOM     24  H   UNL     1       0.789  -1.842  -0.976  0.00  0.00    +0.149 HD
BRANCH  23  25
ATOM     25  C   UNL     1      -1.078  -0.839  -0.859  0.00  0.00    +0.073 C 
ATOM     26  C   UNL     1      -1.697  -1.065   0.536  0.00  0.00    +0.022 C 
ATOM     27  C   UNL     1      -3.021  -1.817   0.245  0.00  0.00    +0.002 C 
ATOM     28  C   UNL     1      -2.631  -2.760  -0.920  0.00  0.00    +0.002 C 
ATOM     29  C   UNL     1      -1.672  -1.916  -1.785  0.00  0.00    +0.022 C 
ENDBRANCH  23  25
ENDBRANCH  18  21
TORSDOF 2
