REMARK  Name = ZINC19565286
REMARK  8 active torsions:
REMARK  status: ('A' for Active; 'I' for Inactive)
REMARK    1  A    between atoms: C_1  and  C_2
REMARK    2  A    between atoms: C_5  and  C_20
REMARK    3  A    between atoms: N_11  and  C_13
REMARK    4  A    between atoms: C_20  and  N_21
REMARK    5  A    between atoms: N_21  and  C_22
REMARK    6  A    between atoms: N_25  and  C_28
REMARK    7  A    between atoms: C_28  and  C_29
REMARK    8  A    between atoms: C_28  and  C_30
REMARK                            x       y       z     vdW  Elec       q    Type
REMARK                         _______ _______ _______ _____ _____    ______ ____
ROOT
ATOM      1  C   UNL     1      -0.013   1.086   0.008  0.00  0.00    +0.068 C 
ATOM      2  C   UNL     1      -0.718   1.572   1.248  0.00  0.00    +0.070 A 
ATOM      3  C   UNL     1      -2.103   1.834   1.364  0.00  0.00    +0.041 A 
ATOM      4  C   UNL     1      -3.190   1.732   0.465  0.00  0.00    +0.023 A 
ATOM      5  C   UNL     1      -4.436   2.061   0.894  0.00  0.00    +0.031 A 
ATOM      6  C   UNL     1      -4.634   2.492   2.219  0.00  0.00    +0.255 A 
ATOM      7  O   UNL     1      -5.757   2.785   2.596  0.00  0.00    -0.268 OA
ATOM      8  N   UNL     1      -3.600   2.585   3.075  0.00  0.00    -0.307 N 
ATOM      9  H   UNL     1      -3.770   2.924   4.108  0.00  0.00    +0.170 HD
ATOM     10  C   UNL     1      -2.332   2.260   2.675  0.00  0.00    +0.145 A 
ATOM     11  N   UNL     1      -1.129   2.258   3.305  0.00  0.00    -0.216 N 
ATOM     12  N   UNL     1      -0.156   1.828   2.395  0.00  0.00    -0.169 NA
ENDROOT
BRANCH  11  13
ATOM     13  C   UNL     1      -0.901   2.623   4.639  0.00  0.00    +0.068 A 
ATOM     14  C   UNL     1      -1.639   3.648   5.215  0.00  0.00    +0.030 A 
ATOM     15  C   UNL     1      -1.416   4.003   6.531  0.00  0.00    +0.040 A 
ATOM     16  C   UNL     1      -0.450   3.345   7.273  0.00  0.00    +0.124 A 
ATOM     17  C   UNL     1       0.292   2.326   6.699  0.00  0.00    +0.040 A 
ATOM     18  C   UNL     1       0.068   1.965   5.385  0.00  0.00    +0.030 A 
ATOM     19  F   UNL     1      -0.229   3.698   8.558  0.00  0.00    -0.205 F 
ENDBRANCH  11  13
BRANCH   5  20
ATOM     20  C   UNL     1      -5.608   1.964  -0.049  0.00  0.00    +0.122 C 
BRANCH  20  21
ATOM     21  N   UNL     1      -6.271   0.665   0.125  0.00  0.00    -0.309 NA
ATOM     22  H   UNL     1      -5.557  -0.143  -0.092  0.00  0.00    +0.123 HD
BRANCH  21  23
ATOM     23  C   UNL     1      -7.420   0.534  -0.780  0.00  0.00    +0.050 C 
ATOM     24  C   UNL     1      -8.655   1.168  -0.134  0.00  0.00    -0.000 C 
ATOM     25  C   UNL     1      -9.862   0.976  -1.055  0.00  0.00    -0.077 C 
ATOM     26  N   UNL     1     -10.086  -0.458  -1.277  0.00  0.00    +0.381 N 
ATOM     27  C   UNL     1      -8.932  -1.079  -1.940  0.00  0.00    -0.077 C 
ATOM     28  C   UNL     1      -7.697  -0.948  -1.045  0.00  0.00    -0.000 C 
ATOM     29  H   UNL     1     -10.204  -0.936  -0.293  0.00  0.00    -0.081 HD
BRANCH  26  30
ATOM     30  C   UNL     1     -11.318  -0.686  -2.043  0.00  0.00    -0.075 C 
ATOM     31  C   UNL     1     -12.496  -0.026  -1.324  0.00  0.00    -0.014 C 
ATOM     32  C   UNL     1     -11.170  -0.080  -3.440  0.00  0.00    -0.014 C 
ENDBRANCH  26  30
ENDBRANCH  21  23
ENDBRANCH  20  21
ENDBRANCH   5  20
TORSDOF 5
