REMARK  Name = ZINC67193347
REMARK  9 active torsions:
REMARK  status: ('A' for Active; 'I' for Inactive)
REMARK    1  A    between atoms: C_3  and  O_22
REMARK    2  A    between atoms: C_6  and  C_7
REMARK    3  A    between atoms: C_7  and  C_8
REMARK    4  A    between atoms: C_8  and  C_9
REMARK    5  A    between atoms: N_11  and  N_12
REMARK    6  A    between atoms: N_12  and  C_13
REMARK    7  A    between atoms: C_13  and  N_15
REMARK    8  A    between atoms: N_15  and  C_16
REMARK    9  A    between atoms: O_22  and  C_23
REMARK                            x       y       z     vdW  Elec       q    Type
REMARK                         _______ _______ _______ _____ _____    ______ ____
ROOT
ATOM      1  C   UNL     1      -3.042  -1.797  -1.420  0.00  0.00    +0.229 C 
ATOM      2  O   UNL     1      -3.552  -2.112  -0.366  0.00  0.00    -0.274 OA
ATOM      3  N   UNL     1      -3.632  -2.135  -2.583  0.00  0.00    -0.235 N 
ATOM      4  H   UNL     1      -3.224  -1.883  -3.426  0.00  0.00    +0.173 HD
ENDROOT
BRANCH   3   5
ATOM      5  N   UNL     1      -4.837  -2.850  -2.575  0.00  0.00    -0.246 N 
ATOM      6  H   UNL     1      -5.245  -3.103  -1.732  0.00  0.00    +0.172 HD
BRANCH   5   7
ATOM      7  C   UNL     1      -5.428  -3.188  -3.739  0.00  0.00    +0.147 C 
ATOM      8  S   UNL     1      -6.899  -4.063  -3.729  0.00  0.00    -0.017 S 
BRANCH   7   9
ATOM      9  N   UNL     1      -4.860  -2.838  -4.910  0.00  0.00    -0.323 N 
ATOM     10  H   UNL     1      -4.026  -2.342  -4.915  0.00  0.00    +0.148 HD
BRANCH   9  11
ATOM     11  C   UNL     1      -5.502  -3.205  -6.174  0.00  0.00    +0.072 C 
ATOM     12  C   UNL     1      -5.084  -4.625  -6.564  0.00  0.00    +0.022 C 
ATOM     13  C   UNL     1      -5.755  -5.008  -7.885  0.00  0.00    +0.002 C 
ATOM     14  C   UNL     1      -5.323  -4.030  -8.979  0.00  0.00    +0.000 C 
ATOM     15  C   UNL     1      -5.741  -2.611  -8.589  0.00  0.00    +0.002 C 
ATOM     16  C   UNL     1      -5.070  -2.227  -7.268  0.00  0.00    +0.022 C 
ENDBRANCH   9  11
ENDBRANCH   7   9
ENDBRANCH   5   7
ENDBRANCH   3   5
BRANCH   1  17
ATOM     17  C   UNL     1      -1.746  -1.027  -1.429  0.00  0.00    +0.102 C 
BRANCH  17  18
ATOM     18  C   UNL     1      -1.293  -0.774   0.011  0.00  0.00    +0.044 C 
BRANCH  18  24
ATOM     19  C   UNL     1      -0.017   1.378   0.010  0.00  0.00    +0.007 A 
ATOM     20  C   UNL     1       1.169   2.087   0.002  0.00  0.00    +0.046 A 
ATOM     21  C   UNL     1       2.380   1.409  -0.013  0.00  0.00    +0.130 A 
ATOM     22  C   UNL     1       2.396   0.022  -0.021  0.00  0.00    +0.046 A 
ATOM     23  C   UNL     1       1.207  -0.681  -0.013  0.00  0.00    +0.007 A 
ATOM     24  C   UNL     1       0.002  -0.004   0.002  0.00  0.00    -0.047 A 
BRANCH  21  25
ATOM     25  O   UNL     1       3.548   2.104  -0.021  0.00  0.00    -0.406 OA
BRANCH  25  26
ATOM     26  C   UNL     1       4.756   1.341  -0.036  0.00  0.00    +0.575 C 
ATOM     27  F   UNL     1       4.787   0.540  -1.183  0.00  0.00    -0.133 F 
ATOM     28  F   UNL     1       5.855   2.207  -0.043  0.00  0.00    -0.133 F 
ATOM     29  F   UNL     1       4.810   0.528   1.101  0.00  0.00    -0.133 F 
ENDBRANCH  25  26
ENDBRANCH  21  25
ENDBRANCH  18  24
ENDBRANCH  17  18
ENDBRANCH   1  17
TORSDOF 9
