REMARK  Name = ZINC09464350
REMARK  8 active torsions:
REMARK  status: ('A' for Active; 'I' for Inactive)
REMARK    1  A    between atoms: C_1  and  C_2
REMARK    2  A    between atoms: C_2  and  C_3
REMARK    3  A    between atoms: C_2  and  C_4
REMARK    4  A    between atoms: C_9  and  N_10
REMARK    5  A    between atoms: C_11  and  C_25
REMARK    6  A    between atoms: C_14  and  S_15
REMARK    7  A    between atoms: S_15  and  C_16
REMARK    8  A    between atoms: C_16  and  C_17
REMARK                            x       y       z     vdW  Elec       q    Type
REMARK                         _______ _______ _______ _____ _____    ______ ____
ROOT
ATOM      1  N   UNL     1       0.016   1.077   4.089  0.00  0.00    -0.270 N 
ATOM      2  C   UNL     1       1.053   0.360   4.646  0.00  0.00    +0.169 A 
ATOM      3  N   UNL     1       1.761  -0.127   3.653  0.00  0.00    -0.128 NA
ATOM      4  N   UNL     1       1.244   0.226   2.530  0.00  0.00    -0.122 NA
ATOM      5  C   UNL     1       0.174   0.961   2.735  0.00  0.00    +0.197 A 
ENDROOT
BRANCH   2   6
ATOM      6  C   UNL     1       1.321   0.179   6.088  0.00  0.00    +0.020 A 
ATOM      7  C   UNL     1       0.336   0.485   7.028  0.00  0.00    +0.013 A 
ATOM      8  C   UNL     1       0.590   0.309   8.372  0.00  0.00    +0.021 A 
ATOM      9  C   UNL     1       1.823  -0.161   8.791  0.00  0.00    +0.041 A 
ATOM     10  C   UNL     1       2.807  -0.461   7.863  0.00  0.00    +0.021 A 
ATOM     11  C   UNL     1       2.563  -0.294   6.516  0.00  0.00    +0.013 A 
ATOM     12 CL   UNL     1       2.139  -0.373  10.485  0.00  0.00    -0.084 Cl
ENDBRANCH   2   6
BRANCH   1  18
ATOM     13  C   UNL     1      -0.804   3.112   5.104  0.00  0.00    -0.021 A 
ATOM     14  C   UNL     1      -1.800   3.800   5.769  0.00  0.00    +0.006 A 
ATOM     15  C   UNL     1      -2.977   3.159   6.109  0.00  0.00    +0.000 A 
ATOM     16  C   UNL     1      -3.163   1.829   5.780  0.00  0.00    +0.002 A 
ATOM     17  C   UNL     1      -2.174   1.137   5.111  0.00  0.00    +0.026 A 
ATOM     18  C   UNL     1      -0.991   1.778   4.768  0.00  0.00    +0.054 A 
BRANCH  13  20
ATOM     19  C   UNL     1       0.174   4.997   3.825  0.00  0.00    +0.012 C 
ATOM     20  C   UNL     1       0.480   3.809   4.739  0.00  0.00    +0.015 C 
ATOM     21  C   UNL     1       1.169   4.308   6.011  0.00  0.00    +0.012 C 
ENDBRANCH  13  20
ENDBRANCH   1  18
BRANCH   5  22
ATOM     22  S   UNL     1      -0.860   1.669   1.497  0.00  0.00    -0.076 S 
BRANCH  22  23
ATOM     23  C   UNL     1      -0.013   1.086   0.008  0.00  0.00    +0.173 C 
BRANCH  23  24
ATOM     24  C   UNL     1      -0.742   1.585  -1.213  0.00  0.00    +0.233 C 
ATOM     25  O   UNL     1      -1.736   2.268  -1.089  0.00  0.00    -0.274 OA
ATOM     26  N   UNL     1      -0.288   1.272  -2.443  0.00  0.00    -0.224 N 
ATOM     27  C   UNL     1      -0.904   1.694  -3.710  0.00  0.00    +0.136 C 
ATOM     28  C   UNL     1       0.004   1.069  -4.787  0.00  0.00    +0.125 C 
ATOM     29  N   UNL     1       1.034   0.362  -4.013  0.00  0.00    -0.297 N 
ATOM     30  C   UNL     1       0.797   0.533  -2.705  0.00  0.00    +0.309 C 
ATOM     31  O   UNL     1       1.501   0.058  -1.836  0.00  0.00    -0.252 OA
ATOM     32  H   UNL     1       1.771  -0.145  -4.388  0.00  0.00    +0.150 HD
ENDBRANCH  23  24
ENDBRANCH  22  23
ENDBRANCH   5  22
TORSDOF 6
