REMARK  Name = ZINC45900814
REMARK  10 active torsions:
REMARK  status: ('A' for Active; 'I' for Inactive)
REMARK    1  A    between atoms: C_1  and  C_2
REMARK    2  A    between atoms: C_2  and  C_3
REMARK    3  A    between atoms: C_2  and  C_4
REMARK    4  A    between atoms: C_4  and  C_5
REMARK    5  A    between atoms: C_5  and  C_7
REMARK    6  A    between atoms: C_5  and  N_30
REMARK    7  A    between atoms: C_7  and  N_8
REMARK    8  A    between atoms: C_9  and  C_11
REMARK    9  A    between atoms: N_16  and  S_17
REMARK   10  A    between atoms: S_17  and  C_20
REMARK                            x       y       z     vdW  Elec       q    Type
REMARK                         _______ _______ _______ _____ _____    ______ ____
ROOT
ATOM      1  C   UNL     1      -0.302  -0.186   7.548  0.00  0.00    +0.165 C 
ATOM      2  C   UNL     1      -0.309   1.350   7.694  0.00  0.00    +0.031 C 
ATOM      3  C   UNL     1      -0.362   1.553   9.232  0.00  0.00    +0.019 C 
ATOM      4  C   UNL     1       0.504   0.369   9.731  0.00  0.00    +0.110 C 
ATOM      5  N   UNL     1       0.184  -0.747   8.817  0.00  0.00    -0.165 NA
ENDROOT
BRANCH   1   7
ATOM      6  N   UNL     1       0.167  -0.596   5.154  0.00  0.00    -0.312 N 
ATOM      7  C   UNL     1       0.618  -0.590   6.424  0.00  0.00    +0.232 C 
ATOM      8  O   UNL     1       1.763  -0.909   6.663  0.00  0.00    -0.274 OA
ATOM      9  H   UNL     1      -0.749  -0.341   4.963  0.00  0.00    +0.149 HD
BRANCH   6  10
ATOM     10  C   UNL     1       1.061  -0.989   4.062  0.00  0.00    +0.123 C 
BRANCH  10  11
ATOM     11  C   UNL     1       0.339  -0.814   2.724  0.00  0.00    +0.074 C 
BRANCH  11  12
ATOM     12  N   UNL     1       1.282  -1.055   1.624  0.00  0.00    -0.294 NA
ATOM     13  C   UNL     1       1.925  -2.370   1.760  0.00  0.00    +0.113 C 
ATOM     14  C   UNL     1       2.851  -2.605   0.564  0.00  0.00    +0.175 C 
ATOM     15  O   UNL     1       3.804  -1.542   0.489  0.00  0.00    -0.377 OA
ATOM     16  C   UNL     1       3.212  -0.247   0.356  0.00  0.00    +0.175 C 
ATOM     17  C   UNL     1       2.289   0.012   1.549  0.00  0.00    +0.113 C 
ENDBRANCH  11  12
BRANCH  11  18
ATOM     18  C   UNL     1      -0.817  -1.812   2.634  0.00  0.00    +0.023 C 
BRANCH  18  20
ATOM     19  C   UNL     1      -2.662  -2.664   1.180  0.00  0.00    +0.007 C 
ATOM     20  C   UNL     1      -1.582  -1.591   1.328  0.00  0.00    -0.016 C 
ATOM     21  C   UNL     1      -2.238  -0.208   1.349  0.00  0.00    +0.007 C 
ENDBRANCH  18  20
ENDBRANCH  11  18
ENDBRANCH  10  11
ENDBRANCH   6  10
ENDBRANCH   1   7
BRANCH   5  22
ATOM     22  S   UNL     1       0.343  -2.358   9.162  0.00  0.00    +0.062 S 
ATOM     23  O   UNL     1       0.358  -3.041   7.916  0.00  0.00    -0.153 OA
ATOM     24  O   UNL     1       1.401  -2.469  10.104  0.00  0.00    -0.153 OA
BRANCH  22  25
ATOM     25  C   UNL     1      -1.127  -2.861   9.994  0.00  0.00    +0.109 A 
ATOM     26  C   UNL     1      -1.242  -2.683  11.360  0.00  0.00    +0.032 A 
ATOM     27  C   UNL     1      -2.393  -3.078  12.016  0.00  0.00    +0.051 A 
ATOM     28  C   UNL     1      -3.436  -3.652  11.304  0.00  0.00    +0.162 A 
ATOM     29  C   UNL     1      -3.321  -3.828   9.931  0.00  0.00    +0.164 A 
ATOM     30  C   UNL     1      -2.165  -3.427   9.278  0.00  0.00    +0.078 A 
ATOM     31  O   UNL     1      -4.336  -4.383   9.213  0.00  0.00    -0.485 OA
ATOM     32  C   UNL     1      -5.327  -5.106   9.951  0.00  0.00    +0.270 C 
ATOM     33  C   UNL     1      -5.730  -4.262  11.168  0.00  0.00    +0.270 C 
ATOM     34  O   UNL     1      -4.562  -4.038  11.965  0.00  0.00    -0.485 OA
ENDBRANCH  22  25
ENDBRANCH   5  22
TORSDOF 8
