REMARK  Name = ZINC44608075
REMARK  18 active torsions:
REMARK  status: ('A' for Active; 'I' for Inactive)
REMARK    1  A    between atoms: C_1  and  C_2
REMARK    2  A    between atoms: C_2  and  C_3
REMARK    3  A    between atoms: C_3  and  C_4
REMARK    4  A    between atoms: C_4  and  O_5
REMARK    5  A    between atoms: O_5  and  C_6
REMARK    6  A    between atoms: C_6  and  C_8
REMARK    7  A    between atoms: C_9  and  C_10
REMARK    8  A    between atoms: N_12  and  C_19
REMARK    9  A    between atoms: C_21  and  O_37
REMARK   10  A    between atoms: C_23  and  O_33
REMARK   11  A    between atoms: C_25  and  C_28
REMARK   12  A    between atoms: C_28  and  O_29
REMARK   13  A    between atoms: O_29  and  C_30
REMARK   14  A    between atoms: C_30  and  C_32
REMARK   15  A    between atoms: O_33  and  C_34
REMARK   16  A    between atoms: C_34  and  C_36
REMARK   17  A    between atoms: O_37  and  C_38
REMARK   18  A    between atoms: C_38  and  C_40
REMARK                            x       y       z     vdW  Elec       q    Type
REMARK                         _______ _______ _______ _____ _____    ______ ____
ROOT
ATOM      1  C   UNL     1       2.843  -6.236  -5.137  0.00  0.00    +0.056 A 
ATOM      2  C   UNL     1       2.862  -7.599  -5.371  0.00  0.00    +0.106 A 
ATOM      3  N   UNL     1       3.403  -8.068  -6.527  0.00  0.00    -0.270 N 
ATOM      4  C   UNL     1       3.920  -7.238  -7.446  0.00  0.00    +0.331 A 
ATOM      5  O   UNL     1       4.392  -7.708  -8.463  0.00  0.00    -0.246 OA
ATOM      6  N   UNL     1       3.932  -5.904  -7.280  0.00  0.00    -0.274 N 
ATOM      7  H   UNL     1       4.315  -5.337  -7.968  0.00  0.00    +0.173 HD
ATOM      8  C   UNL     1       3.412  -5.348  -6.166  0.00  0.00    +0.261 A 
ATOM      9  O   UNL     1       3.416  -4.141  -6.013  0.00  0.00    -0.267 OA
ENDROOT
BRANCH   3  10
ATOM     10  C   UNL     1       3.423  -9.512  -6.774  0.00  0.00    +0.268 C 
ATOM     11  C   UNL     1       2.564  -9.858  -8.010  0.00  0.00    +0.269 C 
ATOM     12  C   UNL     1       3.345 -10.996  -8.703  0.00  0.00    +0.253 C 
ATOM     13  C   UNL     1       4.583 -11.204  -7.804  0.00  0.00    +0.203 C 
ATOM     14  O   UNL     1       4.758  -9.944  -7.117  0.00  0.00    -0.342 OA
BRANCH  13  15
ATOM     15  C   UNL     1       5.813 -11.523  -8.657  0.00  0.00    +0.267 C 
BRANCH  15  16
ATOM     16  O   UNL     1       6.919 -11.825  -7.804  0.00  0.00    -0.462 OA
BRANCH  16  17
ATOM     17  C   UNL     1       8.083 -12.129  -8.400  0.00  0.00    +0.304 C 
ATOM     18  O   UNL     1       8.160 -12.138  -9.605  0.00  0.00    -0.251 OA
ATOM     19  C   UNL     1       9.293 -12.458  -7.565  0.00  0.00    +0.136 C 
ENDBRANCH  16  17
ENDBRANCH  15  16
ENDBRANCH  13  15
BRANCH  12  20
ATOM     20  O   UNL     1       2.555 -12.186  -8.754  0.00  0.00    -0.455 OA
BRANCH  20  21
ATOM     21  C   UNL     1       2.769 -13.016  -9.787  0.00  0.00    +0.304 C 
ATOM     22  O   UNL     1       3.600 -12.741 -10.620  0.00  0.00    -0.251 OA
ATOM     23  C   UNL     1       1.974 -14.291  -9.907  0.00  0.00    +0.136 C 
ENDBRANCH  20  21
ENDBRANCH  12  20
BRANCH  11  24
ATOM     24  O   UNL     1       1.268 -10.307  -7.608  0.00  0.00    -0.453 OA
BRANCH  24  25
ATOM     25  C   UNL     1       0.306  -9.377  -7.502  0.00  0.00    +0.304 C 
ATOM     26  O   UNL     1       0.555  -8.220  -7.742  0.00  0.00    -0.251 OA
ATOM     27  C   UNL     1      -1.086  -9.777  -7.084  0.00  0.00    +0.136 C 
ENDBRANCH  24  25
ENDBRANCH  11  24
ENDBRANCH   3  10
BRANCH   1  29
ATOM     28  C   UNL     1       2.157  -4.350  -3.745  0.00  0.00    +0.092 C 
ATOM     29  C   UNL     1       2.268  -5.690  -3.905  0.00  0.00    +0.022 C 
BRANCH  28  30
ATOM     30  C   UNL     1       1.505  -3.825  -2.605  0.00  0.00    +0.332 C 
ATOM     31  O   UNL     1       1.044  -4.578  -1.767  0.00  0.00    -0.246 OA
BRANCH  30  32
ATOM     32  O   UNL     1       1.395  -2.490  -2.446  0.00  0.00    -0.462 OA
BRANCH  32  33
ATOM     33  C   UNL     1       0.724  -2.030  -1.270  0.00  0.00    +0.232 C 
BRANCH  33  34
ATOM     34  C   UNL     1       0.697  -0.500  -1.264  0.00  0.00    +0.041 C 
BRANCH  34  36
ATOM     35  C   UNL     1      -0.048   1.522   0.000  0.00  0.00    +0.004 C 
ATOM     36  C   UNL     1      -0.021  -0.008  -0.006  0.00  0.00    -0.000 C 
ENDBRANCH  34  36
ENDBRANCH  33  34
ENDBRANCH  32  33
ENDBRANCH  30  32
ENDBRANCH  28  30
ENDBRANCH   1  29
TORSDOF 14
