REMARK  Name = ZINC13443964
REMARK  16 active torsions:
REMARK  status: ('A' for Active; 'I' for Inactive)
REMARK    1  A    between atoms: C_1  and  C_2
REMARK    2  A    between atoms: C_2  and  O_3
REMARK    3  A    between atoms: O_3  and  C_4
REMARK    4  A    between atoms: C_7  and  C_10
REMARK    5  A    between atoms: C_13  and  S_18
REMARK    6  A    between atoms: N_14  and  C_15
REMARK    7  A    between atoms: C_15  and  C_16
REMARK    8  A    between atoms: S_18  and  C_19
REMARK    9  A    between atoms: C_19  and  C_20
REMARK   10  A    between atoms: N_22  and  C_23
REMARK   11  A    between atoms: C_23  and  C_25
REMARK   12  A    between atoms: C_23  and  C_33
REMARK   13  A    between atoms: C_28  and  O_31
REMARK   14  A    between atoms: O_31  and  C_32
REMARK   15  A    between atoms: C_33  and  C_34
REMARK   16  A    between atoms: C_33  and  C_35
REMARK                            x       y       z     vdW  Elec       q    Type
REMARK                         _______ _______ _______ _____ _____    ______ ____
ROOT
ATOM      1  C   UNL     1      -1.771   0.971   1.844  0.00  0.00    +0.165 A 
ATOM      2  N   UNL     1      -2.159   1.806   2.780  0.00  0.00    -0.128 NA
ATOM      3  N   UNL     1      -1.325   2.778   2.874  0.00  0.00    -0.122 NA
ATOM      4  C   UNL     1      -0.348   2.621   2.009  0.00  0.00    +0.193 A 
ATOM      5  N   UNL     1      -0.601   1.469   1.319  0.00  0.00    -0.291 N 
ENDROOT
BRANCH   1   9
ATOM      6  C   UNL     1      -3.751  -2.598   0.662  0.00  0.00    +0.121 A 
ATOM      7  C   UNL     1      -4.038  -2.022   1.893  0.00  0.00    +0.046 A 
ATOM      8  C   UNL     1      -3.398  -0.864   2.280  0.00  0.00    +0.015 A 
ATOM      9  C   UNL     1      -2.460  -0.271   1.433  0.00  0.00    +0.020 A 
ATOM     10  C   UNL     1      -2.179  -0.850   0.194  0.00  0.00    +0.015 A 
ATOM     11  C   UNL     1      -2.819  -2.011  -0.183  0.00  0.00    +0.046 A 
BRANCH   6  12
ATOM     12  O   UNL     1      -4.385  -3.739   0.284  0.00  0.00    -0.492 OA
BRANCH  12  14
ATOM     13  C   UNL     1      -4.851  -5.553  -1.243  0.00  0.00    +0.048 C 
ATOM     14  C   UNL     1      -4.042  -4.278  -0.994  0.00  0.00    +0.225 C 
ENDBRANCH  12  14
ENDBRANCH   6  12
ENDBRANCH   1   9
BRANCH   5  15
ATOM     15  C   UNL     1       0.209   0.883   0.248  0.00  0.00    +0.250 C 
BRANCH  15  16
ATOM     16  C   UNL     1      -0.238   1.436  -1.080  0.00  0.00    +0.375 C 
ATOM     17  O   UNL     1      -1.141   2.237  -1.127  0.00  0.00    -0.244 OA
ATOM     18  O   UNL     1       0.366   1.038  -2.211  0.00  0.00    -0.244 OA
ENDBRANCH  15  16
ENDBRANCH   5  15
BRANCH   4  19
ATOM     19  S   UNL     1       1.027   3.698   1.778  0.00  0.00    -0.077 S 
BRANCH  19  20
ATOM     20  C   UNL     1       0.656   4.954   3.027  0.00  0.00    +0.173 C 
BRANCH  20  21
ATOM     21  C   UNL     1       1.730   6.011   3.011  0.00  0.00    +0.224 C 
ATOM     22  O   UNL     1       2.656   5.923   2.233  0.00  0.00    -0.275 OA
ATOM     23  N   UNL     1       1.663   7.053   3.863  0.00  0.00    -0.308 N 
ATOM     24  H   UNL     1       0.922   7.124   4.485  0.00  0.00    +0.149 HD
BRANCH  23  25
ATOM     25  C   UNL     1       2.707   8.080   3.848  0.00  0.00    +0.106 C 
BRANCH  25  26
ATOM     26  C   UNL     1       2.148   9.373   4.383  0.00  0.00    -0.027 A 
ATOM     27  C   UNL     1       1.283   9.357   5.462  0.00  0.00    +0.009 A 
ATOM     28  C   UNL     1       0.774  10.542   5.957  0.00  0.00    +0.046 A 
ATOM     29  C   UNL     1       1.121  11.747   5.364  0.00  0.00    +0.120 A 
ATOM     30  C   UNL     1       1.985  11.760   4.279  0.00  0.00    +0.046 A 
ATOM     31  C   UNL     1       2.496  10.573   3.790  0.00  0.00    +0.009 A 
BRANCH  29  32
ATOM     32  O   UNL     1       0.616  12.913   5.846  0.00  0.00    -0.495 OA
ATOM     33  C   UNL     1      -0.266  12.824   6.966  0.00  0.00    +0.277 C 
ENDBRANCH  29  32
ENDBRANCH  25  26
BRANCH  25  34
ATOM     34  C   UNL     1       3.878   7.630   4.724  0.00  0.00    +0.008 C 
ATOM     35  C   UNL     1       4.446   6.317   4.181  0.00  0.00    +0.009 C 
ATOM     36  C   UNL     1       4.969   8.702   4.708  0.00  0.00    +0.009 C 
ENDBRANCH  25  34
ENDBRANCH  23  25
ENDBRANCH  20  21
ENDBRANCH  19  20
ENDBRANCH   4  19
TORSDOF 12
