REMARK  Name = ZINC39796063
REMARK  6 active torsions:
REMARK  status: ('A' for Active; 'I' for Inactive)
REMARK    1  A    between atoms: C_1  and  N_2
REMARK    2  A    between atoms: N_2  and  S_3
REMARK    3  A    between atoms: S_3  and  C_6
REMARK    4  A    between atoms: C_9  and  C_12
REMARK    5  A    between atoms: C_15  and  C_17
REMARK    6  A    between atoms: C_18  and  C_19
REMARK                            x       y       z     vdW  Elec       q    Type
REMARK                         _______ _______ _______ _____ _____    ______ ____
ROOT
ATOM      1  C   UNL     1       6.583   0.476  -1.081  0.00  0.00    +0.136 A 
ATOM      2  C   UNL     1       7.543  -0.236  -0.399  0.00  0.00    +0.050 A 
ATOM      3  C   UNL     1       8.764   0.404  -0.627  0.00  0.00    +0.050 A 
ATOM      4  C   UNL     1       8.502   1.488  -1.444  0.00  0.00    +0.130 A 
ATOM      5  O   UNL     1       7.179   1.506  -1.709  0.00  0.00    -0.455 OA
ENDROOT
BRANCH   1   9
ATOM      6  C   UNL     1       2.438  -0.437  -1.202  0.00  0.00    +0.105 A 
ATOM      7  C   UNL     1       2.923   0.658  -1.895  0.00  0.00    +0.029 A 
ATOM      8  C   UNL     1       4.268   0.961  -1.861  0.00  0.00    +0.013 A 
ATOM      9  C   UNL     1       5.142   0.159  -1.123  0.00  0.00    +0.017 A 
ATOM     10  C   UNL     1       4.646  -0.945  -0.425  0.00  0.00    +0.013 A 
ATOM     11  C   UNL     1       3.298  -1.233  -0.464  0.00  0.00    +0.029 A 
BRANCH   6  12
ATOM     12  S   UNL     1       0.718  -0.816  -1.251  0.00  0.00    +0.058 S 
ATOM     13  O   UNL     1       0.599  -2.201  -0.959  0.00  0.00    -0.153 OA
ATOM     14  O   UNL     1       0.211  -0.243  -2.449  0.00  0.00    -0.153 OA
BRANCH  12  16
ATOM     15  C   UNL     1      -0.018   1.461   0.010  0.00  0.00    +0.127 C 
ATOM     16  N   UNL     1       0.002  -0.004   0.002  0.00  0.00    -0.193 NA
ATOM     17  H   UNL     1      -0.404  -0.499   0.731  0.00  0.00    +0.148 HD
ENDBRANCH  12  16
ENDBRANCH   6  12
ENDBRANCH   1   9
BRANCH   4  18
ATOM     18  C   UNL     1       9.456   2.414  -1.925  0.00  0.00    +0.069 C 
ATOM     19  C   UNL     1       9.064   3.439  -2.724  0.00  0.00    +0.086 C 
ATOM     20 CL   UNL     1       7.392   3.613  -3.157  0.00  0.00    -0.080 Cl
BRANCH  19  21
ATOM     21  C   UNL     1      10.051   4.397  -3.221  0.00  0.00    +0.165 C 
ATOM     22  N   UNL     1      11.323   4.234  -2.877  0.00  0.00    -0.156 NA
ATOM     23  C   UNL     1      12.284   5.067  -3.268  0.00  0.00    +0.272 C 
ATOM     24  O   UNL     1      13.443   4.886  -2.933  0.00  0.00    -0.268 OA
ATOM     25  C   UNL     1      11.906   6.231  -4.129  0.00  0.00    +0.071 C 
ATOM     26  C   UNL     1      12.679   7.251  -4.535  0.00  0.00    -0.042 C 
ATOM     27  C   UNL     1      14.007   7.935  -4.219  0.00  0.00    +0.033 C 
ATOM     28  C   UNL     1      13.764   9.445  -4.432  0.00  0.00    +0.006 C 
ATOM     29  C   UNL     1      12.318   9.569  -4.976  0.00  0.00    +0.019 C 
ATOM     30  C   UNL     1      12.074   8.178  -5.590  0.00  0.00    +0.079 C 
ATOM     31  S   UNL     1      10.306   7.717  -5.516  0.00  0.00    -0.097 S 
ATOM     32  C   UNL     1      10.465   6.293  -4.467  0.00  0.00    +0.112 C 
ATOM     33  N   UNL     1       9.633   5.396  -4.007  0.00  0.00    -0.222 NA
ENDBRANCH  19  21
ENDBRANCH   4  18
TORSDOF 5
