REMARK  Name = ZINC33326290
REMARK  3 active torsions:
REMARK  status: ('A' for Active; 'I' for Inactive)
REMARK    1  A    between atoms: C_3  and  C_11
REMARK    2  A    between atoms: C_6  and  N_7
REMARK    3  A    between atoms: C_14  and  C_16
REMARK                            x       y       z     vdW  Elec       q    Type
REMARK                         _______ _______ _______ _____ _____    ______ ____
ROOT
ATOM      1  C   UNL     1       4.692   4.427  -0.019  0.00  0.00    +0.137 A 
ATOM      2  C   UNL     1       5.683   3.418  -0.034  0.00  0.00    +0.050 A 
ATOM      3  C   UNL     1       5.046   2.218  -0.028  0.00  0.00    +0.050 A 
ATOM      4  C   UNL     1       3.608   2.514  -0.019  0.00  0.00    +0.130 A 
ATOM      5  O   UNL     1       3.474   3.859  -0.010  0.00  0.00    -0.455 OA
ENDROOT
BRANCH   4   6
ATOM      6  C   UNL     1       2.577   1.586  -0.014  0.00  0.00    +0.066 C 
ATOM      7  C   UNL     1       1.244   2.019   0.001  0.00  0.00    +0.082 C 
ATOM      8  C   UNL     1      -0.014   1.209   0.009  0.00  0.00    +0.258 C 
ATOM      9  O   UNL     1       0.002  -0.004   0.002  0.00  0.00    -0.269 OA
ATOM     10  N   UNL     1      -1.147   1.895   0.018  0.00  0.00    -0.243 N 
ATOM     11  C   UNL     1      -1.125   3.243   0.029  0.00  0.00    +0.283 C 
ATOM     12  O   UNL     1      -2.068   4.008   0.043  0.00  0.00    -0.262 OA
ATOM     13  S   UNL     1       0.614   3.637   0.015  0.00  0.00    -0.026 S 
ATOM     14  H   UNL     1      -2.111   1.365   0.015  0.00  0.00    +0.159 HD
ENDBRANCH   4   6
BRANCH   1  17
ATOM     15  C   UNL     1       6.085   7.720   0.910  0.00  0.00    +0.033 A 
ATOM     16  C   UNL     1       5.844   6.377   0.915  0.00  0.00    +0.015 A 
ATOM     17  C   UNL     1       4.944   5.822  -0.014  0.00  0.00    +0.036 A 
ATOM     18  C   UNL     1       4.291   6.665  -0.935  0.00  0.00    +0.054 A 
ATOM     19  C   UNL     1       4.546   8.020  -0.918  0.00  0.00    +0.053 A 
ATOM     20  C   UNL     1       5.440   8.547   0.000  0.00  0.00    +0.128 A 
ATOM     21 CL   UNL     1       3.171   6.002  -2.085  0.00  0.00    -0.083 Cl
BRANCH  20  22
ATOM     22  N   UNL     1       5.709  10.002   0.012  0.00  0.00    +0.056 N 
ATOM     23  O   UNL     1       5.099  10.791  -0.849  0.00  0.00    -0.126 OA
ATOM     24  O   UNL     1       6.558  10.509   0.883  0.00  0.00    -0.126 OA
ENDBRANCH  20  22
ENDBRANCH   1  17
TORSDOF 3
