REMARK  Name = ZINC67631384
REMARK  8 active torsions:
REMARK  status: ('A' for Active; 'I' for Inactive)
REMARK    1  A    between atoms: C_1  and  C_2
REMARK    2  A    between atoms: C_2  and  C_3
REMARK    3  A    between atoms: C_3  and  C_5
REMARK    4  A    between atoms: C_3  and  N_10
REMARK    5  A    between atoms: N_13  and  C_14
REMARK    6  A    between atoms: C_14  and  C_15
REMARK    7  A    between atoms: C_15  and  C_17
REMARK    8  A    between atoms: C_15  and  O_27
REMARK                            x       y       z     vdW  Elec       q    Type
REMARK                         _______ _______ _______ _____ _____    ______ ____
ROOT
ATOM      1  N   UNL     1      -2.082  -0.162   1.273  0.00  0.00    -0.292 N 
ATOM      2  C   UNL     1      -2.664   1.047   1.400  0.00  0.00    +0.300 C 
ATOM      3  O   UNL     1      -2.651   1.829   0.469  0.00  0.00    -0.253 OA
ATOM      4  N   UNL     1      -3.260   1.389   2.559  0.00  0.00    -0.297 N 
ATOM      5  H   UNL     1      -2.092  -0.785   2.016  0.00  0.00    +0.151 HD
ATOM      6  H   UNL     1      -3.270   0.765   3.302  0.00  0.00    +0.150 HD
ENDROOT
BRANCH   1   7
ATOM      7  C   UNL     1      -1.433  -0.534   0.013  0.00  0.00    +0.111 C 
BRANCH   7   8
ATOM      8  C   UNL     1      -1.416  -2.035  -0.119  0.00  0.00    +0.010 A 
ATOM      9  C   UNL     1      -1.625  -2.797  -1.220  0.00  0.00    +0.013 A 
ATOM     10  C   UNL     1      -1.558  -4.173  -1.105  0.00  0.00    +0.008 A 
ATOM     11  C   UNL     1      -1.286  -4.719   0.105  0.00  0.00    +0.045 A 
ATOM     12  S   UNL     1      -1.108  -3.270   1.132  0.00  0.00    -0.100 S 
ENDBRANCH   7   8
BRANCH   7  14
ATOM     13  C   UNL     1      -0.019   1.526   0.010  0.00  0.00    +0.006 C 
ATOM     14  C   UNL     1       0.002  -0.004   0.002  0.00  0.00    +0.024 C 
ENDBRANCH   7  14
ENDBRANCH   1   7
BRANCH   4  15
ATOM     15  C   UNL     1      -3.893   2.703   2.698  0.00  0.00    +0.141 C 
BRANCH  15  16
ATOM     16  C   UNL     1      -4.490   2.837   4.100  0.00  0.00    +0.162 C 
BRANCH  16  17
ATOM     17  C   UNL     1      -5.141   4.188   4.242  0.00  0.00    -0.017 A 
ATOM     18  C   UNL     1      -6.455   4.366   3.812  0.00  0.00    +0.007 A 
ATOM     19  C   UNL     1      -7.072   5.574   3.926  0.00  0.00    +0.009 A 
ATOM     20  C   UNL     1      -6.378   6.660   4.485  0.00  0.00    -0.018 A 
ATOM     21  C   UNL     1      -6.982   7.921   4.619  0.00  0.00    +0.008 A 
ATOM     22  C   UNL     1      -6.278   8.950   5.166  0.00  0.00    +0.001 A 
ATOM     23  C   UNL     1      -4.964   8.772   5.596  0.00  0.00    +0.001 A 
ATOM     24  C   UNL     1      -4.347   7.565   5.482  0.00  0.00    +0.008 A 
ATOM     25  C   UNL     1      -5.042   6.479   4.923  0.00  0.00    -0.018 A 
ATOM     26  C   UNL     1      -4.440   5.215   4.793  0.00  0.00    +0.014 A 
ENDBRANCH  16  17
BRANCH  16  27
ATOM     27  O   UNL     1      -5.468   1.813   4.300  0.00  0.00    -0.386 OA
ATOM     28  H   UNL     1      -6.203   1.844   3.673  0.00  0.00    +0.210 HD
ENDBRANCH  16  27
ENDBRANCH  15  16
ENDBRANCH   4  15
TORSDOF 7
