REMARK  Name = ZINC05740234
REMARK  8 active torsions:
REMARK  status: ('A' for Active; 'I' for Inactive)
REMARK    1  A    between atoms: C_1  and  C_2
REMARK    2  A    between atoms: C_5  and  O_28
REMARK    3  A    between atoms: C_6  and  C_8
REMARK    4  A    between atoms: C_8  and  C_10
REMARK    5  A    between atoms: C_8  and  N_21
REMARK    6  A    between atoms: C_19  and  O_20
REMARK    7  A    between atoms: N_21  and  C_22
REMARK    8  A    between atoms: C_26  and  C_27
REMARK                            x       y       z     vdW  Elec       q    Type
REMARK                         _______ _______ _______ _____ _____    ______ ____
ROOT
ATOM      1  C   UNL     1      -0.456   2.908   5.827  0.00  0.00    +0.139 C 
ENDROOT
BRANCH   1   2
ATOM      2  C   UNL     1       0.445   3.444   6.910  0.00  0.00    +0.021 A 
ATOM      3  C   UNL     1       0.786   2.627   7.985  0.00  0.00    +0.010 A 
ATOM      4  C   UNL     1       1.603   3.079   8.976  0.00  0.00    +0.010 A 
ATOM      5  C   UNL     1       2.101   4.391   8.924  0.00  0.00    +0.004 A 
ATOM      6  C   UNL     1       2.943   4.896   9.933  0.00  0.00    +0.011 A 
ATOM      7  C   UNL     1       3.390   6.181   9.816  0.00  0.00    +0.020 A 
ATOM      8  C   UNL     1       3.010   6.952   8.720  0.00  0.00    +0.111 A 
ATOM      9  N   UNL     1       2.226   6.478   7.782  0.00  0.00    -0.251 NA
ATOM     10  C   UNL     1       1.754   5.230   7.837  0.00  0.00    +0.113 A 
ATOM     11  C   UNL     1       0.910   4.725   6.825  0.00  0.00    +0.148 A 
BRANCH  11  12
ATOM     12  O   UNL     1       0.563   5.509   5.771  0.00  0.00    -0.504 OA
ATOM     13  H   UNL     1      -0.282   5.966   5.882  0.00  0.00    +0.292 HD
ENDBRANCH  11  12
ENDBRANCH   1   2
BRANCH   1  19
ATOM     14  C   UNL     1      -0.671  -2.075   6.225  0.00  0.00    +0.044 C 
ATOM     15  C   UNL     1      -1.258  -0.717   6.513  0.00  0.00    -0.050 A 
ATOM     16  C   UNL     1      -2.435  -0.612   7.230  0.00  0.00    +0.007 A 
ATOM     17  C   UNL     1      -2.975   0.632   7.496  0.00  0.00    +0.046 A 
ATOM     18  C   UNL     1      -2.334   1.776   7.042  0.00  0.00    +0.122 A 
ATOM     19  C   UNL     1      -1.153   1.667   6.322  0.00  0.00    +0.019 A 
ATOM     20  C   UNL     1      -0.621   0.421   6.055  0.00  0.00    +0.012 A 
BRANCH  18  21
ATOM     21  O   UNL     1      -2.864   3.000   7.301  0.00  0.00    -0.506 OA
ATOM     22  H   UNL     1      -3.479   3.314   6.624  0.00  0.00    +0.292 HD
ENDBRANCH  18  21
ENDBRANCH   1  19
BRANCH   1  23
ATOM     23  N   UNL     1       0.344   2.579   4.644  0.00  0.00    -0.319 N 
ATOM     24  H   UNL     1       1.288   2.375   4.739  0.00  0.00    +0.148 HD
BRANCH  23  25
ATOM     25  C   UNL     1      -0.249   2.560   3.387  0.00  0.00    +0.097 A 
ATOM     26  C   UNL     1      -1.603   2.853   3.259  0.00  0.00    +0.041 A 
ATOM     27  C   UNL     1      -2.180   2.830   2.003  0.00  0.00    +0.005 A 
ATOM     28  C   UNL     1      -1.380   2.519   0.911  0.00  0.00    +0.021 A 
ATOM     29  C   UNL     1      -0.045   2.233   1.112  0.00  0.00    +0.014 A 
ATOM     30  C   UNL     1       0.827   1.888  -0.068  0.00  0.00    +0.063 C 
ATOM     31  N   UNL     1       0.556   2.246   2.332  0.00  0.00    -0.347 N 
ATOM     32  H   UNL     1       1.553   2.032   2.451  0.00  0.00    +0.167 HD
ENDBRANCH  23  25
ENDBRANCH   1  23
TORSDOF 6
