REMARK  Name = ZINC20749842
REMARK  10 active torsions:
REMARK  status: ('A' for Active; 'I' for Inactive)
REMARK    1  A    between atoms: C_1  and  C_2
REMARK    2  A    between atoms: C_6  and  C_35
REMARK    3  A    between atoms: C_7  and  N_8
REMARK    4  A    between atoms: C_9  and  C_11
REMARK    5  A    between atoms: C_11  and  O_12
REMARK    6  A    between atoms: O_12  and  C_13
REMARK    7  A    between atoms: C_13  and  C_15
REMARK    8  A    between atoms: C_19  and  S_21
REMARK    9  A    between atoms: S_21  and  N_24
REMARK   10  A    between atoms: C_32  and  C_34
REMARK                            x       y       z     vdW  Elec       q    Type
REMARK                         _______ _______ _______ _____ _____    ______ ____
ROOT
ATOM      1  C   UNL     1      -1.330  -0.327  -4.791  0.00  0.00    +0.061 A 
ATOM      2  C   UNL     1      -0.770   0.393  -5.849  0.00  0.00    +0.015 A 
ATOM      3  C   UNL     1       0.584   0.658  -5.858  0.00  0.00    +0.003 A 
ATOM      4  C   UNL     1       1.386   0.212  -4.823  0.00  0.00    +0.029 A 
ATOM      5  C   UNL     1       0.838  -0.502  -3.772  0.00  0.00    +0.110 A 
ATOM      6  C   UNL     1      -0.513  -0.778  -3.753  0.00  0.00    +0.043 A 
ENDROOT
BRANCH   5   7
ATOM      7  S   UNL     1       1.869  -1.065  -2.459  0.00  0.00    +0.075 S 
ATOM      8  O   UNL     1       1.208  -2.177  -1.872  0.00  0.00    -0.150 OA
ATOM      9  O   UNL     1       3.186  -1.153  -2.986  0.00  0.00    -0.150 OA
BRANCH   7  10
ATOM     10  N   UNL     1       1.898   0.129  -1.312  0.00  0.00    -0.200 N 
ATOM     11  C   UNL     1       1.003   0.234  -0.246  0.00  0.00    +0.055 A 
ATOM     12  C   UNL     1      -0.071  -0.592   0.094  0.00  0.00    +0.025 A 
ATOM     13  C   UNL     1      -0.842  -0.309   1.201  0.00  0.00    +0.002 A 
ATOM     14  C   UNL     1      -0.558   0.794   1.984  0.00  0.00    +0.000 A 
ATOM     15  C   UNL     1       0.503   1.617   1.655  0.00  0.00    +0.005 A 
ATOM     16  C   UNL     1       1.279   1.338   0.546  0.00  0.00    -0.023 A 
ATOM     17  C   UNL     1       2.477   2.057  -0.033  0.00  0.00    +0.061 C 
ATOM     18  C   UNL     1       2.869   1.225  -1.264  0.00  0.00    +0.099 C 
ATOM     19  C   UNL     1       4.287   0.671  -1.105  0.00  0.00    +0.030 C 
ENDBRANCH   7  10
ENDBRANCH   5   7
BRANCH   1  20
ATOM     20  C   UNL     1      -2.779  -0.615  -4.775  0.00  0.00    +0.340 C 
ATOM     21  O   UNL     1      -3.263  -1.242  -3.854  0.00  0.00    -0.245 OA
BRANCH  20  22
ATOM     22  O   UNL     1      -3.563  -0.183  -5.782  0.00  0.00    -0.452 OA
BRANCH  22  23
ATOM     23  C   UNL     1      -4.977  -0.502  -5.699  0.00  0.00    +0.328 C 
BRANCH  23  25
ATOM     24  N   UNL     1      -7.018  -0.117  -7.042  0.00  0.00    -0.282 N 
ATOM     25  C   UNL     1      -5.689   0.058  -6.903  0.00  0.00    +0.255 C 
ATOM     26  O   UNL     1      -5.066   0.666  -7.748  0.00  0.00    -0.272 OA
ATOM     27  H   UNL     1      -7.573  -0.720  -6.308  0.00  0.00    +0.155 HD
BRANCH  24  34
ATOM     28  C   UNL     1      -6.676   2.672  -7.488  0.00  0.00    +0.045 C 
ATOM     29  C   UNL     1      -7.554   1.825  -8.374  0.00  0.00    -0.029 A 
ATOM     30  C   UNL     1      -8.216   2.398  -9.442  0.00  0.00    +0.005 A 
ATOM     31  C   UNL     1      -9.025   1.623 -10.252  0.00  0.00    +0.001 A 
ATOM     32  C   UNL     1      -9.170   0.271  -9.998  0.00  0.00    +0.005 A 
ATOM     33  C   UNL     1      -8.506  -0.309  -8.935  0.00  0.00    -0.029 A 
ATOM     34  C   UNL     1      -7.692   0.467  -8.120  0.00  0.00    +0.039 A 
ATOM     35  C   UNL     1      -8.664  -1.782  -8.660  0.00  0.00    +0.045 C 
ENDBRANCH  24  34
ENDBRANCH  23  25
ENDBRANCH  22  23
ENDBRANCH  20  22
ENDBRANCH   1  20
TORSDOF 7
