REMARK  Name = ZINC23778311
REMARK  11 active torsions:
REMARK  status: ('A' for Active; 'I' for Inactive)
REMARK    1  A    between atoms: C_1  and  C_2
REMARK    2  A    between atoms: C_2  and  O_3
REMARK    3  A    between atoms: O_3  and  C_4
REMARK    4  A    between atoms: C_4  and  C_6
REMARK    5  A    between atoms: C_7  and  C_26
REMARK    6  A    between atoms: C_10  and  N_11
REMARK    7  A    between atoms: C_12  and  C_14
REMARK    8  A    between atoms: C_14  and  N_15
REMARK    9  A    between atoms: C_21  and  C_23
REMARK   10  A    between atoms: C_23  and  C_24
REMARK   11  A    between atoms: C_23  and  C_25
REMARK                            x       y       z     vdW  Elec       q    Type
REMARK                         _______ _______ _______ _____ _____    ______ ____
ROOT
ATOM      1  C   UNL     1       0.853   6.158  -2.551  0.00  0.00    +0.095 A 
ATOM      2  C   UNL     1       2.152   6.769  -2.344  0.00  0.00    +0.005 A 
ATOM      3  C   UNL     1       3.104   5.997  -1.761  0.00  0.00    +0.056 A 
ATOM      4  S   UNL     1       2.264   4.452  -1.481  0.00  0.00    -0.080 S 
ATOM      5  C   UNL     1       0.709   4.841  -2.133  0.00  0.00    +0.086 A 
ENDROOT
BRANCH   2   6
ATOM      6  C   UNL     1       2.427   8.168  -2.750  0.00  0.00    -0.016 A 
ATOM      7  C   UNL     1       2.106   8.599  -4.036  0.00  0.00    +0.011 A 
ATOM      8  C   UNL     1       2.358   9.903  -4.408  0.00  0.00    +0.039 A 
ATOM      9  C   UNL     1       2.940  10.782  -3.508  0.00  0.00    +0.123 A 
ATOM     10  C   UNL     1       3.265  10.357  -2.230  0.00  0.00    +0.039 A 
ATOM     11  C   UNL     1       3.012   9.056  -1.848  0.00  0.00    +0.011 A 
ATOM     12  F   UNL     1       3.190  12.057  -3.878  0.00  0.00    -0.205 F 
ENDBRANCH   2   6
BRANCH   5  13
ATOM     13  N   UNL     1      -0.414   4.034  -2.213  0.00  0.00    -0.281 N 
ATOM     14  C   UNL     1      -0.369   2.768  -1.751  0.00  0.00    +0.201 C 
ATOM     15  O   UNL     1       0.655   2.337  -1.265  0.00  0.00    -0.278 OA
ATOM     16  H   UNL     1      -1.343   4.425  -2.653  0.00  0.00    +0.155 HD
BRANCH  14  17
ATOM     17  C   UNL     1      -1.591   1.890  -1.838  0.00  0.00    +0.019 C 
BRANCH  17  18
ATOM     18  N   UNL     1      -1.285   0.569  -1.272  0.00  0.00    +0.387 N 
ATOM     19  C   UNL     1      -0.283  -0.133  -2.084  0.00  0.00    -0.059 C 
ATOM     20  C   UNL     1       0.140  -1.419  -1.367  0.00  0.00    +0.089 C 
ATOM     21  N   UNL     1      -1.067  -2.200  -1.058  0.00  0.00    -0.305 N 
ATOM     22  C   UNL     1      -2.174  -1.524  -0.365  0.00  0.00    +0.089 C 
ATOM     23  C   UNL     1      -2.506  -0.234  -1.121  0.00  0.00    -0.059 C 
ATOM     24  C   UNL     1      -1.156  -3.501  -1.400  0.00  0.00    +0.218 C 
ATOM     25  O   UNL     1      -0.274  -4.019  -2.052  0.00  0.00    -0.275 OA
ATOM     26  H   UNL     1      -0.858   0.720  -0.269  0.00  0.00    -0.081 HD
BRANCH  24  27
ATOM     27  C   UNL     1      -2.352  -4.312  -0.973  0.00  0.00    +0.069 C 
ATOM     28  C   UNL     1      -2.502  -5.524  -1.894  0.00  0.00    +0.017 C 
ATOM     29  C   UNL     1      -2.158  -4.788   0.468  0.00  0.00    +0.017 C 
ENDBRANCH  24  27
ENDBRANCH  17  18
ENDBRANCH  14  17
ENDBRANCH   5  13
BRANCH   1  30
ATOM     30  C   UNL     1      -0.250   6.891  -3.171  0.00  0.00    +0.342 C 
ATOM     31  O   UNL     1      -1.018   7.532  -2.479  0.00  0.00    -0.245 OA
BRANCH  30  32
ATOM     32  O   UNL     1      -0.416   6.857  -4.509  0.00  0.00    -0.461 OA
BRANCH  32  34
ATOM     33  C   UNL     1      -1.558   7.451  -6.576  0.00  0.00    +0.048 C 
ATOM     34  C   UNL     1      -1.532   7.609  -5.054  0.00  0.00    +0.229 C 
ENDBRANCH  32  34
ENDBRANCH  30  32
ENDBRANCH   1  30
TORSDOF 8
