REMARK  Name = ZINC03441521
REMARK  13 active torsions:
REMARK  status: ('A' for Active; 'I' for Inactive)
REMARK    1  A    between atoms: C_1  and  C_2
REMARK    2  A    between atoms: C_2  and  C_3
REMARK    3  A    between atoms: C_3  and  C_4
REMARK    4  A    between atoms: C_4  and  N_5
REMARK    5  A    between atoms: C_6  and  N_39
REMARK    6  A    between atoms: C_7  and  N_14
REMARK    7  A    between atoms: N_14  and  C_15
REMARK    8  A    between atoms: C_15  and  C_16
REMARK    9  A    between atoms: C_17  and  C_19
REMARK   10  A    between atoms: C_21  and  C_27
REMARK   11  A    between atoms: C_24  and  O_25
REMARK   12  A    between atoms: O_25  and  C_26
REMARK   13  A    between atoms: C_27  and  N_28
REMARK                            x       y       z     vdW  Elec       q    Type
REMARK                         _______ _______ _______ _____ _____    ______ ____
ROOT
ATOM      1  N   UNL     1      -1.048  -4.951   2.274  0.00  0.00    -0.260 N 
ATOM      2  C   UNL     1      -1.839  -4.430   3.233  0.00  0.00    +0.255 C 
ATOM      3  O   UNL     1      -2.611  -3.530   2.962  0.00  0.00    -0.270 OA
ENDROOT
BRANCH   1   6
ATOM      4  N   UNL     1       1.642  -7.063   3.615  0.00  0.00    -0.280 N 
ATOM      5  C   UNL     1       0.875  -5.950   3.357  0.00  0.00    +0.127 A 
ATOM      6  C   UNL     1      -0.242  -6.073   2.557  0.00  0.00    +0.140 A 
ATOM      7  C   UNL     1      -0.563  -7.337   2.027  0.00  0.00    +0.277 A 
ATOM      8  O   UNL     1      -1.545  -7.473   1.317  0.00  0.00    -0.266 OA
ATOM      9  N   UNL     1       0.222  -8.395   2.310  0.00  0.00    -0.273 N 
ATOM     10  H   UNL     1      -0.007  -9.294   1.937  0.00  0.00    +0.173 HD
ATOM     11  C   UNL     1       1.310  -8.256   3.088  0.00  0.00    +0.331 A 
ATOM     12  O   UNL     1       2.003  -9.226   3.324  0.00  0.00    -0.246 OA
BRANCH   5  13
ATOM     13  N   UNL     1       1.218  -4.731   3.891  0.00  0.00    -0.343 N 
ATOM     14  H   UNL     1       2.039  -4.637   4.398  0.00  0.00    +0.144 HD
ATOM     15  H   UNL     1       0.638  -3.965   3.761  0.00  0.00    +0.144 HD
ENDBRANCH   5  13
BRANCH   4  16
ATOM     16  C   UNL     1       2.831  -6.948   4.463  0.00  0.00    +0.128 C 
BRANCH  16  17
ATOM     17  C   UNL     1       2.481  -7.369   5.892  0.00  0.00    +0.021 C 
BRANCH  17  19
ATOM     18  C   UNL     1       3.327  -7.524   8.238  0.00  0.00    +0.004 C 
ATOM     19  C   UNL     1       3.677  -7.103   6.809  0.00  0.00    -0.002 C 
ENDBRANCH  17  19
ENDBRANCH  16  17
ENDBRANCH   4  16
ENDBRANCH   1   6
BRANCH   2  20
ATOM     20  C   UNL     1      -1.770  -4.953   4.611  0.00  0.00    +0.079 A 
ATOM     21  C   UNL     1      -1.490  -6.303   4.837  0.00  0.00    +0.022 A 
ATOM     22  C   UNL     1      -1.421  -6.784   6.126  0.00  0.00    -0.029 A 
ATOM     23  C   UNL     1      -1.638  -5.936   7.201  0.00  0.00    +0.009 A 
ATOM     24  C   UNL     1      -1.920  -4.601   6.991  0.00  0.00    +0.047 A 
ATOM     25  C   UNL     1      -1.989  -4.099   5.700  0.00  0.00    +0.132 A 
BRANCH  25  26
ATOM     26  O   UNL     1      -2.267  -2.787   5.493  0.00  0.00    -0.494 OA
ATOM     27  C   UNL     1      -2.478  -1.978   6.651  0.00  0.00    +0.277 C 
ENDBRANCH  25  26
BRANCH  22  28
ATOM     28  C   UNL     1      -1.115  -8.239   6.369  0.00  0.00    +0.152 C 
BRANCH  28  29
ATOM     29  N   UNL     1      -2.342  -9.027   6.226  0.00  0.00    -0.230 N 
ATOM     30  C   UNL     1      -3.237  -9.226   7.209  0.00  0.00    +0.254 C 
ATOM     31  O   UNL     1      -3.159  -8.787   8.339  0.00  0.00    -0.270 OA
ATOM     32  C   UNL     1      -4.335 -10.065   6.684  0.00  0.00    +0.049 A 
ATOM     33  C   UNL     1      -5.503 -10.579   7.223  0.00  0.00    +0.014 A 
ATOM     34  C   UNL     1      -6.339 -11.358   6.438  0.00  0.00    +0.001 A 
ATOM     35  C   UNL     1      -6.013 -11.625   5.121  0.00  0.00    +0.001 A 
ATOM     36  C   UNL     1      -4.848 -11.118   4.568  0.00  0.00    +0.014 A 
ATOM     37  C   UNL     1      -4.003 -10.338   5.342  0.00  0.00    +0.049 A 
ATOM     38  C   UNL     1      -2.718  -9.651   5.095  0.00  0.00    +0.254 C 
ATOM     39  O   UNL     1      -2.104  -9.650   4.047  0.00  0.00    -0.270 OA
ENDBRANCH  28  29
ENDBRANCH  22  28
ENDBRANCH   2  20
BRANCH   1  40
ATOM     40  C   UNL     1      -1.026  -4.351   0.937  0.00  0.00    +0.111 C 
ATOM     41  C   UNL     1      -2.140  -4.961   0.085  0.00  0.00    +0.025 C 
ENDBRANCH   1  40
TORSDOF 10
