REMARK  Name = ZINC65061360
REMARK  13 active torsions:
REMARK  status: ('A' for Active; 'I' for Inactive)
REMARK    1  A    between atoms: C_1  and  C_2
REMARK    2  A    between atoms: C_2  and  C_3
REMARK    3  A    between atoms: C_3  and  N_4
REMARK    4  A    between atoms: N_7  and  C_10
REMARK    5  A    between atoms: C_10  and  C_11
REMARK    6  A    between atoms: C_11  and  C_12
REMARK    7  A    between atoms: C_12  and  N_13
REMARK    8  A    between atoms: C_14  and  C_16
REMARK    9  A    between atoms: C_16  and  C_17
REMARK   10  A    between atoms: N_20  and  S_23
REMARK   11  A    between atoms: S_23  and  C_26
REMARK   12  A    between atoms: C_27  and  C_32
REMARK   13  A    between atoms: C_30  and  C_31
REMARK                            x       y       z     vdW  Elec       q    Type
REMARK                         _______ _______ _______ _____ _____    ______ ____
ROOT
ATOM      1  N   UNL     1      -4.986  -8.510   1.383  0.00  0.00    -0.315 N 
ATOM      2  C   UNL     1      -5.242  -9.832   1.433  0.00  0.00    +0.213 C 
ATOM      3  O   UNL     1      -4.328 -10.628   1.393  0.00  0.00    -0.276 OA
ATOM      4  H   UNL     1      -5.717  -7.873   1.415  0.00  0.00    +0.149 HD
ENDROOT
BRANCH   1   5
ATOM      5  C   UNL     1      -3.604  -8.034   1.281  0.00  0.00    +0.105 C 
BRANCH   5   6
ATOM      6  C   UNL     1      -3.592  -6.505   1.242  0.00  0.00    +0.034 C 
BRANCH   6   7
ATOM      7  C   UNL     1      -2.149  -6.009   1.135  0.00  0.00    +0.086 C 
BRANCH   7  11
ATOM      8  N   UNL     1      -1.413  -2.002   0.005  0.00  0.00    +0.381 N 
ATOM      9  C   UNL     1      -0.808  -2.490   1.251  0.00  0.00    -0.063 C 
ATOM     10  C   UNL     1      -0.770  -4.020   1.235  0.00  0.00    +0.066 C 
ATOM     11  N   UNL     1      -2.138  -4.540   1.098  0.00  0.00    -0.306 NA
ATOM     12  C   UNL     1      -2.766  -4.040  -0.133  0.00  0.00    +0.066 C 
ATOM     13  C   UNL     1      -2.787  -2.510  -0.105  0.00  0.00    -0.063 C 
ATOM     14  H   UNL     1      -0.871  -2.327  -0.782  0.00  0.00    -0.082 HD
BRANCH   8  15
ATOM     15  C   UNL     1      -1.433  -0.534   0.013  0.00  0.00    -0.079 C 
BRANCH  15  17
ATOM     16  C   UNL     1      -0.019   1.526   0.010  0.00  0.00    +0.002 C 
ATOM     17  C   UNL     1       0.002  -0.004   0.002  0.00  0.00    -0.022 C 
ENDBRANCH  15  17
ENDBRANCH   8  15
ENDBRANCH   7  11
ENDBRANCH   6   7
ENDBRANCH   5   6
ENDBRANCH   1   5
BRANCH   2  18
ATOM     18  C   UNL     1      -6.664 -10.321   1.538  0.00  0.00    +0.099 C 
BRANCH  18  19
ATOM     19  C   UNL     1      -6.675 -11.850   1.577  0.00  0.00    +0.000 C 
ATOM     20  C   UNL     1      -5.984 -12.333   2.854  0.00  0.00    +0.021 C 
ATOM     21  C   UNL     1      -5.967 -13.865   2.873  0.00  0.00    +0.110 C 
ATOM     22  N   UNL     1      -7.342 -14.355   2.709  0.00  0.00    -0.176 NA
ATOM     23  C   UNL     1      -8.129 -13.882   1.562  0.00  0.00    +0.110 C 
ATOM     24  C   UNL     1      -8.122 -12.350   1.557  0.00  0.00    +0.021 C 
BRANCH  22  25
ATOM     25  S   UNL     1      -7.993 -15.422   3.796  0.00  0.00    +0.066 S 
ATOM     26  O   UNL     1      -9.032 -16.113   3.115  0.00  0.00    -0.153 OA
ATOM     27  O   UNL     1      -6.902 -16.096   4.406  0.00  0.00    -0.153 OA
BRANCH  25  28
ATOM     28  C   UNL     1      -8.767 -14.469   5.060  0.00  0.00    +0.170 A 
ATOM     29  C   UNL     1      -8.155 -14.011   6.240  0.00  0.00    +0.107 A 
ATOM     30  N   UNL     1      -9.041 -13.344   6.923  0.00  0.00    -0.081 NA
ATOM     31  O   UNL     1     -10.255 -13.359   6.194  0.00  0.00    -0.358 OA
ATOM     32  C   UNL     1     -10.047 -14.049   5.062  0.00  0.00    +0.161 A 
ATOM     33  C   UNL     1     -11.067 -14.312   3.984  0.00  0.00    +0.091 C 
ATOM     34  C   UNL     1      -6.722 -14.249   6.644  0.00  0.00    +0.071 C 
ENDBRANCH  25  28
ENDBRANCH  22  25
ENDBRANCH  18  19
ENDBRANCH   2  18
TORSDOF 10
