REMARK  Name = ZINC36909412
REMARK  10 active torsions:
REMARK  status: ('A' for Active; 'I' for Inactive)
REMARK    1  A    between atoms: C_1  and  C_2
REMARK    2  A    between atoms: C_2  and  C_3
REMARK    3  A    between atoms: C_2  and  C_4
REMARK    4  A    between atoms: C_2  and  C_17
REMARK    5  A    between atoms: C_4  and  N_5
REMARK    6  A    between atoms: C_13  and  C_14
REMARK    7  A    between atoms: C_14  and  C_15
REMARK    8  A    between atoms: C_17  and  N_18
REMARK    9  A    between atoms: N_18  and  C_19
REMARK   10  A    between atoms: N_18  and  C_20
REMARK                            x       y       z     vdW  Elec       q    Type
REMARK                         _______ _______ _______ _____ _____    ______ ____
ROOT
ATOM      1  N   UNL     1      -2.367   0.977   0.675  0.00  0.00    -0.327 N 
ATOM      2  C   UNL     1      -2.604   0.833   2.027  0.00  0.00    +0.069 A 
ATOM      3  C   UNL     1      -2.349  -0.170   2.952  0.00  0.00    +0.028 A 
ATOM      4  C   UNL     1      -2.725   0.002   4.267  0.00  0.00    +0.002 A 
ATOM      5  C   UNL     1      -3.356   1.170   4.671  0.00  0.00    +0.002 A 
ATOM      6  C   UNL     1      -3.615   2.168   3.775  0.00  0.00    +0.030 A 
ATOM      7  C   UNL     1      -3.243   2.016   2.437  0.00  0.00    +0.089 A 
ATOM      8  N   UNL     1      -3.359   2.804   1.337  0.00  0.00    -0.232 NA
ATOM      9  C   UNL     1      -2.841   2.199   0.308  0.00  0.00    +0.112 A 
ENDROOT
BRANCH   1  10
ATOM     10  C   UNL     1      -1.718  -0.001  -0.202  0.00  0.00    +0.128 C 
BRANCH  10  12
ATOM     11  C   UNL     1       0.074   1.659  -0.727  0.00  0.00    +0.011 C 
ATOM     12  C   UNL     1      -0.208   0.246  -0.212  0.00  0.00    -0.032 C 
ATOM     13  C   UNL     1       0.342   0.102   1.208  0.00  0.00    +0.011 C 
BRANCH  12  14
ATOM     14  C   UNL     1       0.470  -0.775  -1.128  0.00  0.00    -0.072 C 
BRANCH  14  15
ATOM     15  N   UNL     1       1.928  -0.625  -1.034  0.00  0.00    +0.376 N 
ATOM     16  C   UNL     1       2.426  -1.394   0.114  0.00  0.00    -0.097 C 
ATOM     17  C   UNL     1       2.552  -1.125  -2.267  0.00  0.00    -0.097 C 
ATOM     18  H   UNL     1       2.159   0.349  -0.912  0.00  0.00    -0.083 HD
ENDBRANCH  14  15
ENDBRANCH  12  14
ENDBRANCH  10  12
ENDBRANCH   1  10
BRANCH   9  19
ATOM     19  C   UNL     1      -2.780   2.766  -1.086  0.00  0.00    +0.090 C 
BRANCH  19  20
ATOM     20  C   UNL     1      -4.042   2.370  -1.854  0.00  0.00    +0.116 C 
ATOM     21 CL   UNL     1      -3.969   3.049  -3.523  0.00  0.00    -0.125 Cl
ENDBRANCH  19  20
ENDBRANCH   9  19
TORSDOF 6
