REMARK  Name = ZINC64890964
REMARK  6 active torsions:
REMARK  status: ('A' for Active; 'I' for Inactive)
REMARK    1  A    between atoms: C_1  and  C_2
REMARK    2  A    between atoms: C_2  and  C_3
REMARK    3  A    between atoms: C_2  and  C_4
REMARK    4  A    between atoms: C_4  and  N_5
REMARK    5  A    between atoms: C_9  and  C_18
REMARK    6  A    between atoms: C_20  and  C_23
REMARK                            x       y       z     vdW  Elec       q    Type
REMARK                         _______ _______ _______ _____ _____    ______ ____
ROOT
ATOM      1  N   UNL     1      -2.105  -0.148  -1.230  0.00  0.00    -0.302 N 
ATOM      2  C   UNL     1      -2.792   1.059  -1.303  0.00  0.00    +0.068 A 
ATOM      3  C   UNL     1      -2.834   1.893  -0.188  0.00  0.00    +0.028 A 
ATOM      4  C   UNL     1      -3.510   3.091  -0.245  0.00  0.00    +0.014 A 
ATOM      5  C   UNL     1      -4.157   3.475  -1.421  0.00  0.00    +0.025 A 
ATOM      6  C   UNL     1      -4.119   2.647  -2.538  0.00  0.00    +0.039 A 
ATOM      7  C   UNL     1      -3.437   1.439  -2.482  0.00  0.00    +0.067 A 
ATOM      8  N   UNL     1      -3.403   0.617  -3.605  0.00  0.00    -0.316 N 
ATOM      9  H   UNL     1      -3.854   0.890  -4.420  0.00  0.00    +0.169 HD
ATOM     10  C   UNL     1      -2.744  -0.559  -3.562  0.00  0.00    +0.314 A 
ATOM     11  O   UNL     1      -2.711  -1.280  -4.539  0.00  0.00    -0.262 OA
ATOM     12  C   UNL     1      -2.052  -0.962  -2.304  0.00  0.00    +0.316 A 
ATOM     13  O   UNL     1      -1.449  -2.015  -2.246  0.00  0.00    -0.262 OA
ENDROOT
BRANCH   5  14
ATOM     14  C   UNL     1      -4.885   4.767  -1.478  0.00  0.00    +0.202 A 
ATOM     15  N   UNL     1      -4.989   5.651  -0.473  0.00  0.00    -0.187 NA
ATOM     16  C   UNL     1      -5.699   6.685  -0.859  0.00  0.00    +0.259 A 
ATOM     17  O   UNL     1      -6.072   6.487  -2.135  0.00  0.00    -0.332 OA
ATOM     18  N   UNL     1      -5.527   5.235  -2.522  0.00  0.00    -0.056 NA
BRANCH  16  19
ATOM     19  C   UNL     1      -6.032   7.864  -0.032  0.00  0.00    +0.039 A 
ATOM     20  C   UNL     1      -5.575   7.948   1.285  0.00  0.00    +0.013 A 
ATOM     21  C   UNL     1      -5.889   9.052   2.051  0.00  0.00    +0.001 A 
ATOM     22  C   UNL     1      -6.654  10.073   1.518  0.00  0.00    +0.000 A 
ATOM     23  C   UNL     1      -7.110   9.996   0.214  0.00  0.00    +0.001 A 
ATOM     24  C   UNL     1      -6.799   8.901  -0.565  0.00  0.00    +0.013 A 
ENDBRANCH  16  19
ENDBRANCH   5  14
BRANCH   1  25
ATOM     25  C   UNL     1      -1.433  -0.534   0.013  0.00  0.00    +0.128 C 
BRANCH  25  27
ATOM     26  C   UNL     1      -0.019   1.526   0.010  0.00  0.00    +0.009 C 
ATOM     27  C   UNL     1       0.002  -0.004   0.002  0.00  0.00    +0.003 C 
ATOM     28  C   UNL     1       0.742  -0.511   1.242  0.00  0.00    +0.009 C 
ENDBRANCH  25  27
ENDBRANCH   1  25
TORSDOF 4
