REMARK  Name = ZINC57689319
REMARK  3 active torsions:
REMARK  status: ('A' for Active; 'I' for Inactive)
REMARK    1  A    between atoms: N_14  and  S_15
REMARK    2  A    between atoms: S_15  and  C_18
REMARK    3  A    between atoms: C_21  and  C_24
REMARK                            x       y       z     vdW  Elec       q    Type
REMARK                         _______ _______ _______ _____ _____    ______ ____
ROOT
ATOM      1  C   UNL     1      -0.017   1.378   0.010  0.00  0.00    +0.000 A 
ATOM      2  C   UNL     1       1.163   2.101   0.002  0.00  0.00    +0.001 A 
ATOM      3  C   UNL     1       2.375   1.438  -0.030  0.00  0.00    +0.010 A 
ATOM      4  C   UNL     1       2.393   0.049  -0.055  0.00  0.00    +0.002 A 
ATOM      5  C   UNL     1       1.207  -0.684  -0.013  0.00  0.00    -0.038 A 
ATOM      6  C   UNL     1       0.002  -0.004   0.002  0.00  0.00    +0.004 A 
ATOM      7  C   UNL     1       1.211  -2.187   0.063  0.00  0.00    +0.041 C 
ATOM      8  C   UNL     1       2.380  -2.788  -0.721  0.00  0.00    +0.049 C 
ATOM      9  C   UNL     1       3.624  -2.021  -0.427  0.00  0.00    +0.017 A 
ATOM     10  C   UNL     1       3.685  -0.698  -0.120  0.00  0.00    +0.059 A 
ATOM     11  N   UNL     1       4.932  -0.158   0.105  0.00  0.00    -0.332 N 
ATOM     12  C   UNL     1       6.043  -0.967   0.025  0.00  0.00    +0.192 A 
ATOM     13  S   UNL     1       5.312  -2.546  -0.387  0.00  0.00    -0.053 S 
ATOM     14  N   UNL     1       7.304  -0.661   0.203  0.00  0.00    -0.103 NA
ATOM     15  H   UNL     1       5.027   0.783   0.318  0.00  0.00    +0.168 HD
ENDROOT
BRANCH  14  16
ATOM     16  S   UNL     1       7.733   0.892   0.583  0.00  0.00    +0.101 S 
ATOM     17  O   UNL     1       7.415   1.690  -0.549  0.00  0.00    -0.146 OA
ATOM     18  O   UNL     1       7.201   1.157   1.874  0.00  0.00    -0.146 OA
BRANCH  16  19
ATOM     19  C   UNL     1       9.487   0.924   0.745  0.00  0.00    +0.113 A 
ATOM     20  C   UNL     1      10.070   0.673   1.975  0.00  0.00    +0.030 A 
ATOM     21  C   UNL     1      11.443   0.697   2.109  0.00  0.00    +0.021 A 
ATOM     22  C   UNL     1      12.245   0.973   0.999  0.00  0.00    +0.052 A 
ATOM     23  C   UNL     1      11.650   1.224  -0.239  0.00  0.00    +0.021 A 
ATOM     24  C   UNL     1      10.276   1.193  -0.359  0.00  0.00    +0.030 A 
BRANCH  22  25
ATOM     25  C   UNL     1      13.670   0.999   1.131  0.00  0.00    +0.099 C 
ATOM     26  N   UNL     1      14.801   1.019   1.235  0.00  0.00    -0.191 NA
ENDBRANCH  22  25
ENDBRANCH  16  19
ENDBRANCH  14  16
TORSDOF 3
