REMARK  Name = ZINC00096514
REMARK  8 active torsions:
REMARK  status: ('A' for Active; 'I' for Inactive)
REMARK    1  A    between atoms: C_1  and  C_2
REMARK    2  A    between atoms: C_6  and  C_8
REMARK    3  A    between atoms: C_13  and  C_17
REMARK    4  A    between atoms: C_13  and  C_18
REMARK    5  A    between atoms: C_20  and  N_26
REMARK    6  A    between atoms: C_21  and  C_22
REMARK    7  A    between atoms: C_22  and  O_24
REMARK    8  A    between atoms: O_24  and  C_25
REMARK                            x       y       z     vdW  Elec       q    Type
REMARK                         _______ _______ _______ _____ _____    ______ ____
ROOT
ATOM      1  C   UNL     1      -0.475  -4.250  -0.787  0.00  0.00    +0.097 C 
ATOM      2  C   UNL     1      -0.429  -2.742  -0.738  0.00  0.00    +0.045 C 
ATOM      3  C   UNL     1      -1.357  -2.050  -0.052  0.00  0.00    +0.115 C 
ATOM      4  C   UNL     1      -1.315  -0.540  -0.006  0.00  0.00    +0.081 C 
ATOM      5  C   UNL     1       0.136  -0.063  -0.092  0.00  0.00    -0.021 C 
ATOM      6  C   UNL     1       0.748  -0.589  -1.395  0.00  0.00    +0.086 C 
ATOM      7  C   UNL     1       0.612  -2.088  -1.425  0.00  0.00    +0.164 C 
ATOM      8  O   UNL     1       1.419  -2.745  -2.051  0.00  0.00    -0.292 OA
ATOM      9  C   UNL     1       0.176   1.466  -0.086  0.00  0.00    +0.012 C 
ATOM     10  C   UNL     1       0.927  -0.602   1.102  0.00  0.00    +0.012 C 
ATOM     11  O   UNL     1      -2.350  -2.674   0.610  0.00  0.00    -0.446 OA
ATOM     12  C   UNL     1      -2.213  -3.960   0.963  0.00  0.00    +0.195 C 
ATOM     13  C   UNL     1      -1.331  -4.777   0.331  0.00  0.00    +0.105 C 
ENDROOT
BRANCH   1  19
ATOM     14  C   UNL     1      -0.025  -6.742  -5.103  0.00  0.00    +0.044 C 
ATOM     15  C   UNL     1      -0.840  -5.882  -4.171  0.00  0.00    -0.050 A 
ATOM     16  C   UNL     1      -2.118  -5.496  -4.528  0.00  0.00    +0.003 A 
ATOM     17  C   UNL     1      -2.866  -4.708  -3.673  0.00  0.00    +0.001 A 
ATOM     18  C   UNL     1      -2.335  -4.308  -2.460  0.00  0.00    +0.004 A 
ATOM     19  C   UNL     1      -1.055  -4.689  -2.107  0.00  0.00    -0.035 A 
ATOM     20  C   UNL     1      -0.308  -5.479  -2.961  0.00  0.00    +0.008 A 
ENDBRANCH   1  19
BRANCH  12  21
ATOM     21  N   UNL     1      -2.978  -4.460   1.983  0.00  0.00    -0.329 N 
ATOM     22  H   UNL     1      -2.824  -5.361   2.308  0.00  0.00    +0.145 HD
ATOM     23  H   UNL     1      -3.674  -3.914   2.380  0.00  0.00    +0.145 HD
ENDBRANCH  12  21
BRANCH  13  24
ATOM     24  C   UNL     1      -1.217  -6.119   0.724  0.00  0.00    +0.341 C 
ATOM     25  O   UNL     1      -0.286  -6.472   1.425  0.00  0.00    -0.245 OA
BRANCH  24  26
ATOM     26  O   UNL     1      -2.140  -7.020   0.324  0.00  0.00    -0.465 OA
ATOM     27  C   UNL     1      -1.962  -8.369   0.761  0.00  0.00    +0.280 C 
ENDBRANCH  24  26
ENDBRANCH  13  24
TORSDOF 4
