REMARK  Name = ZINC39675406
REMARK  11 active torsions:
REMARK  status: ('A' for Active; 'I' for Inactive)
REMARK    1  A    between atoms: C_1  and  C_2
REMARK    2  A    between atoms: C_2  and  C_4
REMARK    3  A    between atoms: C_2  and  N_14
REMARK    4  A    between atoms: C_4  and  C_5
REMARK    5  A    between atoms: C_5  and  C_6
REMARK    6  A    between atoms: C_9  and  O_12
REMARK    7  A    between atoms: O_12  and  C_13
REMARK    8  A    between atoms: C_15  and  C_17
REMARK    9  A    between atoms: C_28  and  C_30
REMARK   10  A    between atoms: C_34  and  O_35
REMARK   11  A    between atoms: O_35  and  C_36
REMARK                            x       y       z     vdW  Elec       q    Type
REMARK                         _______ _______ _______ _____ _____    ______ ____
ROOT
ATOM      1  C   UNL     1       2.728  -1.085  -2.440  0.00  0.00    +0.100 C 
ATOM      2  C   UNL     1       2.408  -2.573  -2.701  0.00  0.00    +0.121 C 
ATOM      3  N   UNL     1       3.674  -3.145  -3.217  0.00  0.00    -0.296 N 
ATOM      4  C   UNL     1       4.729  -2.495  -2.403  0.00  0.00    +0.115 C 
ATOM      5  C   UNL     1       4.253  -1.038  -2.244  0.00  0.00    -0.004 C 
ATOM      6  C   UNL     1       4.896  -0.154  -3.309  0.00  0.00    -0.010 C 
ATOM      7  C   UNL     1       6.405  -0.077  -3.059  0.00  0.00    -0.082 C 
ATOM      8  N   UNL     1       6.654   0.473  -1.722  0.00  0.00    +0.379 N 
ATOM      9  C   UNL     1       6.113  -0.430  -0.699  0.00  0.00    -0.082 C 
ATOM     10  C   UNL     1       4.592  -0.522  -0.849  0.00  0.00    -0.010 C 
ATOM     11  C   UNL     1       3.830  -4.050  -4.203  0.00  0.00    +0.251 C 
ATOM     12  O   UNL     1       2.868  -4.419  -4.848  0.00  0.00    -0.270 OA
ATOM     13  H   UNL     1       7.648   0.580  -1.583  0.00  0.00    -0.086 HD
ATOM     14  H   UNL     1       6.208   1.375  -1.642  0.00  0.00    -0.086 HD
ENDROOT
BRANCH  11  15
ATOM     15  C   UNL     1       5.165  -4.591  -4.499  0.00  0.00    +0.087 A 
ATOM     16  C   UNL     1       6.093  -4.808  -3.503  0.00  0.00    +0.063 A 
ATOM     17  S   UNL     1       7.431  -5.418  -4.311  0.00  0.00    -0.081 S 
ATOM     18  C   UNL     1       6.820  -5.410  -5.982  0.00  0.00    +0.120 A 
ATOM     19  C   UNL     1       5.564  -4.926  -5.847  0.00  0.00    +0.158 A 
ATOM     20 CL   UNL     1       7.635  -5.908  -7.431  0.00  0.00    -0.072 Cl
BRANCH  19  21
ATOM     21  O   UNL     1       4.732  -4.762  -6.912  0.00  0.00    -0.492 OA
ATOM     22  C   UNL     1       4.778  -3.501  -7.583  0.00  0.00    +0.277 C 
ENDBRANCH  19  21
ENDBRANCH  11  15
BRANCH   1  24
ATOM     23  N   UNL     1       1.815   0.711  -1.004  0.00  0.00    -0.312 N 
ATOM     24  C   UNL     1       2.025  -0.607  -1.196  0.00  0.00    +0.218 C 
ATOM     25  O   UNL     1       1.647  -1.407  -0.367  0.00  0.00    -0.275 OA
ATOM     26  H   UNL     1       2.117   1.351  -1.667  0.00  0.00    +0.149 HD
BRANCH  23  28
ATOM     27  C   UNL     1       2.146   1.322   1.341  0.00  0.00    +0.028 C 
ATOM     28  C   UNL     1       1.131   1.176   0.205  0.00  0.00    +0.070 C 
BRANCH  28  29
ATOM     29  C   UNL     1       0.475   2.530  -0.069  0.00  0.00    +0.026 C 
BRANCH  29  30
ATOM     30  C   UNL     1      -0.627   2.360  -1.117  0.00  0.00    +0.037 C 
BRANCH  30  31
ATOM     31  C   UNL     1      -1.274   3.694  -1.387  0.00  0.00    -0.047 A 
ATOM     32  C   UNL     1      -2.363   4.097  -0.636  0.00  0.00    +0.007 A 
ATOM     33  C   UNL     1      -2.958   5.320  -0.882  0.00  0.00    +0.046 A 
ATOM     34  C   UNL     1      -2.462   6.142  -1.883  0.00  0.00    +0.120 A 
ATOM     35  C   UNL     1      -1.369   5.735  -2.635  0.00  0.00    +0.046 A 
ATOM     36  C   UNL     1      -0.775   4.514  -2.382  0.00  0.00    +0.007 A 
BRANCH  34  37
ATOM     37  O   UNL     1      -3.046   7.345  -2.127  0.00  0.00    -0.495 OA
ATOM     38  C   UNL     1      -2.483   8.139  -3.173  0.00  0.00    +0.277 C 
ENDBRANCH  34  37
ENDBRANCH  30  31
ENDBRANCH  29  30
ENDBRANCH  28  29
ENDBRANCH  23  28
ENDBRANCH   1  24
TORSDOF 8
