REMARK  Name = ZINC08981024
REMARK  8 active torsions:
REMARK  status: ('A' for Active; 'I' for Inactive)
REMARK    1  A    between atoms: C_3  and  C_6
REMARK    2  A    between atoms: C_9  and  S_12
REMARK    3  A    between atoms: N_10  and  N_11
REMARK    4  A    between atoms: S_12  and  C_13
REMARK    5  A    between atoms: C_13  and  C_14
REMARK    6  A    between atoms: N_16  and  C_17
REMARK    7  A    between atoms: C_19  and  S_24
REMARK    8  A    between atoms: S_24  and  N_27
REMARK                            x       y       z     vdW  Elec       q    Type
REMARK                         _______ _______ _______ _____ _____    ______ ____
ROOT
ATOM      1  C   UNL     1      -3.365  -0.792   3.513  0.00  0.00    +0.228 C 
ATOM      2  O   UNL     1      -2.394  -1.235   2.936  0.00  0.00    -0.275 OA
ATOM      3  N   UNL     1      -3.493   0.538   3.694  0.00  0.00    -0.284 N 
ATOM      4  H   UNL     1      -4.226   0.886   4.224  0.00  0.00    +0.155 HD
ENDROOT
BRANCH   3   5
ATOM      5  C   UNL     1      -2.568   1.415   3.116  0.00  0.00    +0.054 A 
ATOM      6  C   UNL     1      -1.858   1.032   1.985  0.00  0.00    +0.053 A 
ATOM      7  C   UNL     1      -0.946   1.900   1.417  0.00  0.00    +0.107 A 
ATOM      8  C   UNL     1      -0.735   3.147   1.976  0.00  0.00    +0.030 A 
ATOM      9  C   UNL     1      -1.444   3.534   3.098  0.00  0.00    +0.024 A 
ATOM     10  C   UNL     1      -2.357   2.671   3.672  0.00  0.00    +0.062 A 
ATOM     11 CL   UNL     1      -3.242   3.155   5.085  0.00  0.00    -0.082 Cl
BRANCH   7  12
ATOM     12  S   UNL     1      -0.046   1.415  -0.018  0.00  0.00    +0.061 S 
ATOM     13  O   UNL     1      -0.023  -0.006  -0.021  0.00  0.00    -0.153 OA
ATOM     14  O   UNL     1       1.141   2.196  -0.035  0.00  0.00    -0.153 OA
BRANCH  12  15
ATOM     15  N   UNL     1      -0.937   1.877  -1.335  0.00  0.00    -0.177 NA
ATOM     16  C   UNL     1      -1.952   1.058  -2.013  0.00  0.00    +0.109 C 
ATOM     17  C   UNL     1      -2.496   1.889  -3.194  0.00  0.00    +0.018 C 
ATOM     18  C   UNL     1      -1.352   2.902  -3.460  0.00  0.00    +0.018 C 
ATOM     19  C   UNL     1      -0.839   3.176  -2.025  0.00  0.00    +0.109 C 
ENDBRANCH  12  15
ENDBRANCH   7  12
ENDBRANCH   3   5
BRANCH   1  20
ATOM     20  C   UNL     1      -4.427  -1.728   4.029  0.00  0.00    +0.173 C 
BRANCH  20  21
ATOM     21  S   UNL     1      -3.970  -3.435   3.634  0.00  0.00    -0.075 S 
BRANCH  21  25
ATOM     22  C   UNL     1      -6.741  -5.840   4.983  0.00  0.00    +0.188 A 
ATOM     23  N   UNL     1      -7.191  -4.654   5.331  0.00  0.00    -0.126 NA
ATOM     24  N   UNL     1      -6.367  -3.744   4.952  0.00  0.00    -0.121 NA
ATOM     25  C   UNL     1      -5.346  -4.288   4.331  0.00  0.00    +0.209 A 
ATOM     26  N   UNL     1      -5.545  -5.641   4.330  0.00  0.00    -0.223 N 
BRANCH  22  29
ATOM     27  C   UNL     1      -8.869  -8.727   6.176  0.00  0.00    +0.008 A 
ATOM     28  C   UNL     1      -8.414  -7.430   6.109  0.00  0.00    +0.019 A 
ATOM     29  C   UNL     1      -7.394  -7.133   5.240  0.00  0.00    +0.058 A 
ATOM     30  S   UNL     1      -7.058  -8.728   4.511  0.00  0.00    -0.093 S 
ATOM     31  C   UNL     1      -8.289  -9.674   5.392  0.00  0.00    +0.046 A 
ENDBRANCH  22  29
BRANCH  26  32
ATOM     32  N   UNL     1      -4.728  -6.596   3.796  0.00  0.00    -0.295 N 
ATOM     33  H   UNL     1      -4.053  -6.916   4.474  0.00  0.00    +0.163 HD
ATOM     34  H   UNL     1      -5.265  -7.367   3.428  0.00  0.00    +0.163 HD
ENDBRANCH  26  32
ENDBRANCH  21  25
ENDBRANCH  20  21
ENDBRANCH   1  20
TORSDOF 8
