REMARK  Name = ZINC33033599
REMARK  12 active torsions:
REMARK  status: ('A' for Active; 'I' for Inactive)
REMARK    1  A    between atoms: C_1  and  C_2
REMARK    2  A    between atoms: C_2  and  N_3
REMARK    3  A    between atoms: N_3  and  C_4
REMARK    4  A    between atoms: C_4  and  C_5
REMARK    5  A    between atoms: C_6  and  C_8
REMARK    6  A    between atoms: C_11  and  N_27
REMARK    7  A    between atoms: C_12  and  N_14
REMARK    8  A    between atoms: N_14  and  S_15
REMARK    9  A    between atoms: S_15  and  C_18
REMARK   10  A    between atoms: C_20  and  C_26
REMARK   11  A    between atoms: C_21  and  C_25
REMARK   12  A    between atoms: C_23  and  C_24
REMARK                            x       y       z     vdW  Elec       q    Type
REMARK                         _______ _______ _______ _____ _____    ______ ____
ROOT
ATOM      1  C   UNL     1      -1.168   5.524  -1.394  0.00  0.00    +0.039 A 
ATOM      2  C   UNL     1      -2.487   5.816  -1.750  0.00  0.00    +0.015 A 
ATOM      3  C   UNL     1      -3.311   4.819  -2.225  0.00  0.00    +0.026 A 
ATOM      4  C   UNL     1      -2.833   3.521  -2.352  0.00  0.00    +0.052 A 
ATOM      5  C   UNL     1      -1.514   3.221  -1.998  0.00  0.00    +0.070 A 
ATOM      6  C   UNL     1      -0.687   4.217  -1.516  0.00  0.00    +0.039 A 
ENDROOT
BRANCH   4   7
ATOM      7  N   UNL     1      -3.669   2.515  -2.834  0.00  0.00    -0.332 N 
ATOM      8  C   UNL     1      -5.061   2.982  -2.914  0.00  0.00    +0.086 C 
ATOM      9  C   UNL     1      -5.957   1.828  -3.370  0.00  0.00    -0.063 C 
ATOM     10  N   UNL     1      -5.494   1.337  -4.675  0.00  0.00    +0.381 N 
ATOM     11  C   UNL     1      -4.102   0.871  -4.595  0.00  0.00    -0.063 C 
ATOM     12  C   UNL     1      -3.206   2.025  -4.139  0.00  0.00    +0.086 C 
ATOM     13  H   UNL     1      -6.129   0.500  -4.999  0.00  0.00    -0.086 HD
ATOM     14  H   UNL     1      -5.553   2.150  -5.414  0.00  0.00    -0.086 HD
ENDBRANCH   4   7
BRANCH   1  16
ATOM     15  N   UNL     1      -0.382   7.840  -1.385  0.00  0.00    -0.298 N 
ATOM     16  C   UNL     1      -0.286   6.591  -0.886  0.00  0.00    +0.247 C 
ATOM     17  O   UNL     1       0.527   6.346  -0.015  0.00  0.00    -0.270 OA
BRANCH  15  19
ATOM     18  C   UNL     1       1.776   8.849  -1.939  0.00  0.00    +0.024 C 
ATOM     19  C   UNL     1       0.583   8.866  -0.982  0.00  0.00    +0.104 C 
ENDBRANCH  15  19
BRANCH  15  20
ATOM     20  C   UNL     1      -1.450   8.170  -2.332  0.00  0.00    +0.104 C 
ATOM     21  C   UNL     1      -2.596   8.857  -1.588  0.00  0.00    +0.024 C 
ENDBRANCH  15  20
ENDBRANCH   1  16
BRANCH   5  22
ATOM     22  N   UNL     1      -1.034   1.912  -2.127  0.00  0.00    -0.214 N 
ATOM     23  H   UNL     1      -1.711   1.060  -1.964  0.00  0.00    +0.174 HD
BRANCH  22  24
ATOM     24  S   UNL     1       0.551   1.647  -2.524  0.00  0.00    +0.073 S 
ATOM     25  O   UNL     1       0.715   0.238  -2.624  0.00  0.00    -0.150 OA
ATOM     26  O   UNL     1       0.854   2.527  -3.598  0.00  0.00    -0.150 OA
BRANCH  24  27
ATOM     27  C   UNL     1       1.526   2.171  -1.153  0.00  0.00    +0.112 A 
ATOM     28  C   UNL     1       2.418   3.217  -1.299  0.00  0.00    +0.032 A 
ATOM     29  C   UNL     1       3.179   3.631  -0.223  0.00  0.00    -0.046 A 
ATOM     30  C   UNL     1       3.057   2.993   0.998  0.00  0.00    -0.047 A 
ATOM     31  C   UNL     1       2.169   1.944   1.142  0.00  0.00    +0.009 A 
ATOM     32  C   UNL     1       1.404   1.532   0.067  0.00  0.00    -0.024 A 
ATOM     33  C   UNL     1       0.436   0.388   0.224  0.00  0.00    +0.046 C 
ATOM     34  C   UNL     1       3.890   3.441   2.170  0.00  0.00    +0.044 C 
ATOM     35  C   UNL     1       4.147   4.776  -0.380  0.00  0.00    +0.044 C 
ENDBRANCH  24  27
ENDBRANCH  22  24
ENDBRANCH   5  22
TORSDOF 7
