REMARK  Name = ZINC17307467
REMARK  13 active torsions:
REMARK  status: ('A' for Active; 'I' for Inactive)
REMARK    1  A    between atoms: C_1  and  C_2
REMARK    2  A    between atoms: C_2  and  O_3
REMARK    3  A    between atoms: O_3  and  C_4
REMARK    4  A    between atoms: C_4  and  C_6
REMARK    5  A    between atoms: C_7  and  C_34
REMARK    6  A    between atoms: C_13  and  C_17
REMARK    7  A    between atoms: C_17  and  C_19
REMARK    8  A    between atoms: C_17  and  N_60
REMARK    9  A    between atoms: C_20  and  N_60
REMARK   10  A    between atoms: C_21  and  C_22
REMARK   11  A    between atoms: C_21  and  N_60
REMARK   12  A    between atoms: C_27  and  O_32
REMARK   13  A    between atoms: O_32  and  C_33
REMARK                            x       y       z     vdW  Elec       q    Type
REMARK                         _______ _______ _______ _____ _____    ______ ____
ROOT
ATOM      1  C   UNL     1      -0.052  -6.238   1.386  0.00  0.00    -0.004 C 
ATOM      2  C   UNL     1      -1.392  -6.710   0.817  0.00  0.00    -0.005 C 
ENDROOT
BRANCH   1  10
ATOM      3  C   UNL     1       0.813  -6.854   7.620  0.00  0.00    +0.102 A 
ATOM      4  C   UNL     1       0.548  -7.880   6.759  0.00  0.00    -0.015 A 
ATOM      5  C   UNL     1       0.376  -7.618   5.399  0.00  0.00    +0.076 A 
ATOM      6  C   UNL     1       0.086  -8.560   4.294  0.00  0.00    +0.260 A 
ATOM      7  O   UNL     1      -0.038  -9.753   4.506  0.00  0.00    -0.267 OA
ATOM      8  N   UNL     1      -0.043  -8.062   3.048  0.00  0.00    -0.312 N 
ATOM      9  H   UNL     1      -0.237  -8.665   2.314  0.00  0.00    +0.170 HD
ATOM     10  C   UNL     1       0.097  -6.737   2.800  0.00  0.00    +0.097 A 
ATOM     11  N   UNL     1       0.353  -5.880   3.751  0.00  0.00    -0.228 NA
ATOM     12  C   UNL     1       0.494  -6.263   5.013  0.00  0.00    +0.116 A 
ATOM     13  S   UNL     1       0.835  -5.431   6.543  0.00  0.00    -0.062 S 
ATOM     14  C   UNL     1       0.443  -9.291   7.276  0.00  0.00    +0.046 C 
BRANCH   3  15
ATOM     15  C   UNL     1       1.026  -6.908   9.068  0.00  0.00    +0.346 C 
ATOM     16  O   UNL     1       0.975  -7.974   9.651  0.00  0.00    -0.244 OA
BRANCH  15  17
ATOM     17  O   UNL     1       1.278  -5.775   9.756  0.00  0.00    -0.461 OA
BRANCH  17  19
ATOM     18  C   UNL     1       1.751  -4.524  11.791  0.00  0.00    +0.048 C 
ATOM     19  C   UNL     1       1.479  -5.904  11.188  0.00  0.00    +0.229 C 
ENDBRANCH  17  19
ENDBRANCH  15  17
ENDBRANCH   3  15
ENDBRANCH   1  10
BRANCH   1  21
ATOM     20  C   UNL     1       0.188  -4.257   0.014  0.00  0.00    -0.095 C 
ATOM     21  N   UNL     1       0.016  -4.761   1.393  0.00  0.00    +0.387 N 
ATOM     22  H   UNL     1       0.821  -4.468   1.958  0.00  0.00    -0.081 HD
BRANCH  21  23
ATOM     23  C   UNL     1      -1.217  -4.202   1.986  0.00  0.00    -0.042 C 
BRANCH  23  24
ATOM     24  C   UNL     1      -1.031  -2.719   2.183  0.00  0.00    -0.063 A 
ATOM     25  C   UNL     1      -0.487  -2.249   3.377  0.00  0.00    +0.002 A 
ATOM     26  C   UNL     1      -0.307  -0.916   3.587  0.00  0.00    +0.009 A 
ATOM     27  C   UNL     1      -0.673   0.002   2.588  0.00  0.00    -0.014 A 
ATOM     28  C   UNL     1      -0.502   1.384   2.770  0.00  0.00    +0.054 A 
ATOM     29  C   UNL     1      -0.870   2.246   1.777  0.00  0.00    +0.121 A 
ATOM     30  C   UNL     1      -1.415   1.771   0.580  0.00  0.00    +0.046 A 
ATOM     31  C   UNL     1      -1.594   0.439   0.373  0.00  0.00    +0.012 A 
ATOM     32  C   UNL     1      -1.226  -0.477   1.374  0.00  0.00    -0.017 A 
ATOM     33  C   UNL     1      -1.397  -1.860   1.193  0.00  0.00    +0.010 A 
BRANCH  29  34
ATOM     34  O   UNL     1      -0.704   3.583   1.954  0.00  0.00    -0.495 OA
ATOM     35  C   UNL     1      -1.107   4.435   0.880  0.00  0.00    +0.277 C 
ENDBRANCH  29  34
ENDBRANCH  23  24
ENDBRANCH  21  23
ENDBRANCH   1  21
TORSDOF 8
