REMARK  Name = ZINC63642949
REMARK  8 active torsions:
REMARK  status: ('A' for Active; 'I' for Inactive)
REMARK    1  A    between atoms: C_1  and  C_2
REMARK    2  A    between atoms: C_2  and  O_3
REMARK    3  A    between atoms: O_3  and  C_4
REMARK    4  A    between atoms: C_4  and  C_6
REMARK    5  A    between atoms: C_18  and  N_20
REMARK    6  A    between atoms: C_21  and  C_23
REMARK    7  A    between atoms: C_23  and  S_24
REMARK    8  A    between atoms: S_24  and  C_25
REMARK                            x       y       z     vdW  Elec       q    Type
REMARK                         _______ _______ _______ _____ _____    ______ ____
ROOT
ATOM      1  N   UNL     1       1.855  -1.693  -4.733  0.00  0.00    -0.302 N 
ATOM      2  C   UNL     1       1.668  -1.845  -6.059  0.00  0.00    +0.224 C 
ATOM      3  O   UNL     1       0.798  -2.584  -6.468  0.00  0.00    -0.275 OA
ATOM      4  H   UNL     1       2.551  -1.102  -4.405  0.00  0.00    +0.150 HD
ENDROOT
BRANCH   1  14
ATOM      5  C   UNL     1       1.855  -3.041  -2.659  0.00  0.00    +0.132 C 
ATOM      6  C   UNL     1       1.861  -4.561  -2.674  0.00  0.00    +0.018 C 
ATOM      7  C   UNL     1       1.964  -5.146  -1.266  0.00  0.00    +0.005 C 
ATOM      8  C   UNL     1       2.938  -6.303  -1.242  0.00  0.00    +0.000 C 
ATOM      9  C   UNL     1       2.800  -7.226  -2.474  0.00  0.00    +0.000 C 
ATOM     10  C   UNL     1       1.336  -7.466  -2.802  0.00  0.00    +0.001 C 
ATOM     11  C   UNL     1       0.804  -6.463  -3.819  0.00  0.00    +0.014 C 
ATOM     12  C   UNL     1       0.509  -5.106  -3.249  0.00  0.00    +0.052 C 
ATOM     13  S   UNL     1       0.238  -3.880  -4.596  0.00  0.00    -0.134 S 
ATOM     14  C   UNL     1       1.005  -2.420  -3.786  0.00  0.00    +0.145 C 
BRANCH   5  15
ATOM     15  C   UNL     1       1.314  -2.574  -1.332  0.00  0.00    +0.313 C 
ATOM     16  O   UNL     1       0.216  -2.927  -0.970  0.00  0.00    -0.250 OA
BRANCH  15  17
ATOM     17  O   UNL     1       2.051  -1.767  -0.553  0.00  0.00    -0.465 OA
BRANCH  17  19
ATOM     18  C   UNL     1       2.454  -0.453   1.435  0.00  0.00    +0.048 C 
ATOM     19  C   UNL     1       1.475  -1.363   0.691  0.00  0.00    +0.229 C 
ENDBRANCH  17  19
ENDBRANCH  15  17
ENDBRANCH   5  15
ENDBRANCH   1  14
BRANCH   2  20
ATOM     20  C   UNL     1       2.542  -1.097  -7.033  0.00  0.00    +0.169 C 
BRANCH  20  21
ATOM     21  S   UNL     1       2.047  -1.510  -8.729  0.00  0.00    -0.118 S 
BRANCH  21  22
ATOM     22  C   UNL     1       3.175  -0.743  -9.674  0.00  0.00    +0.014 C 
ATOM     23  C   UNL     1       4.190   0.109  -9.248  0.00  0.00    +0.009 A 
ATOM     24  C   UNL     1       4.571   0.571  -7.970  0.00  0.00    +0.011 A 
ATOM     25  C   UNL     1       5.627   1.416  -7.846  0.00  0.00    +0.001 A 
ATOM     26  C   UNL     1       6.352   1.846  -8.958  0.00  0.00    +0.002 A 
ATOM     27  C   UNL     1       6.041   1.442 -10.215  0.00  0.00    +0.026 A 
ATOM     28  C   UNL     1       4.952   0.559 -10.423  0.00  0.00    +0.044 A 
ATOM     29  N   UNL     1       4.455   0.029 -11.526  0.00  0.00    -0.379 N 
ATOM     30  C   UNL     1       3.318  -0.828 -11.178  0.00  0.00    +0.155 C 
ATOM     31  H   UNL     1       4.792   0.180 -12.423  0.00  0.00    +0.160 HD
ENDBRANCH  21  22
ENDBRANCH  20  21
ENDBRANCH   2  20
TORSDOF 7
