REMARK  Name = ZINC09603449
REMARK  7 active torsions:
REMARK  status: ('A' for Active; 'I' for Inactive)
REMARK    1  A    between atoms: C_1  and  C_2
REMARK    2  A    between atoms: C_11  and  C_13
REMARK    3  A    between atoms: C_13  and  N_14
REMARK    4  A    between atoms: N_14  and  C_15
REMARK    5  A    between atoms: C_17  and  S_27
REMARK    6  A    between atoms: C_20  and  N_21
REMARK    7  A    between atoms: S_27  and  N_30
REMARK                            x       y       z     vdW  Elec       q    Type
REMARK                         _______ _______ _______ _____ _____    ______ ____
ROOT
ATOM      1  C   UNL     1       5.216  -0.888  -2.530  0.00  0.00    +0.051 A 
ATOM      2  C   UNL     1       4.663  -0.624  -1.286  0.00  0.00    +0.053 A 
ATOM      3  C   UNL     1       3.744  -1.500  -0.738  0.00  0.00    +0.107 A 
ATOM      4  C   UNL     1       3.379  -2.644  -1.423  0.00  0.00    +0.030 A 
ATOM      5  C   UNL     1       3.922  -2.913  -2.666  0.00  0.00    +0.027 A 
ATOM      6  C   UNL     1       4.843  -2.039  -3.224  0.00  0.00    +0.051 A 
ENDROOT
BRANCH   6   7
ATOM      7  N   UNL     1       5.398  -2.312  -4.480  0.00  0.00    -0.324 N 
ATOM      8  C   UNL     1       4.364  -2.307  -5.525  0.00  0.00    +0.133 C 
ATOM      9  C   UNL     1       5.020  -2.549  -6.886  0.00  0.00    +0.178 C 
ATOM     10  O   UNL     1       5.745  -3.782  -6.848  0.00  0.00    -0.377 OA
ATOM     11  C   UNL     1       6.760  -3.822  -5.842  0.00  0.00    +0.178 C 
ATOM     12  C   UNL     1       6.121  -3.592  -4.470  0.00  0.00    +0.133 C 
ENDBRANCH   6   7
BRANCH   3  13
ATOM     13  S   UNL     1       3.043  -1.161   0.843  0.00  0.00    +0.061 S 
ATOM     14  O   UNL     1       3.960  -0.314   1.521  0.00  0.00    -0.153 OA
ATOM     15  O   UNL     1       2.622  -2.410   1.376  0.00  0.00    -0.153 OA
BRANCH  13  16
ATOM     16  N   UNL     1       1.672  -0.268   0.590  0.00  0.00    -0.177 NA
ATOM     17  C   UNL     1       0.373  -0.928   0.401  0.00  0.00    +0.109 C 
ATOM     18  C   UNL     1      -0.253  -0.422  -0.902  0.00  0.00    +0.017 C 
ATOM     19  C   UNL     1      -0.324   1.107  -0.869  0.00  0.00    +0.003 C 
ATOM     20  C   UNL     1       1.090   1.682  -0.757  0.00  0.00    +0.017 C 
ATOM     21  C   UNL     1       1.732   1.199   0.548  0.00  0.00    +0.109 C 
ENDBRANCH  13  16
ENDBRANCH   3  13
BRANCH   1  22
ATOM     22  N   UNL     1       6.146  -0.002  -3.087  0.00  0.00    -0.337 N 
ATOM     23  H   UNL     1       6.532  -0.189  -3.957  0.00  0.00    +0.147 HD
BRANCH  22  24
ATOM     24  C   UNL     1       6.535   1.206  -2.357  0.00  0.00    +0.157 C 
BRANCH  24  35
ATOM     25  C   UNL     1       9.986   5.406  -5.904  0.00  0.00    +0.064 C 
ATOM     26  C   UNL     1      10.305   4.037  -5.362  0.00  0.00    +0.025 A 
ATOM     27  C   UNL     1      11.516   3.487  -5.604  0.00  0.00    +0.021 A 
ATOM     28  C   UNL     1      11.824   2.214  -5.105  0.00  0.00    +0.005 A 
ATOM     29  C   UNL     1      10.895   1.535  -4.374  0.00  0.00    +0.047 A 
ATOM     30  C   UNL     1       9.641   2.124  -4.132  0.00  0.00    +0.141 A 
ATOM     31  N   UNL     1       9.370   3.367  -4.633  0.00  0.00    -0.265 N 
ATOM     32  C   UNL     1       8.167   3.937  -4.404  0.00  0.00    +0.259 A 
ATOM     33  O   UNL     1       7.912   5.046  -4.845  0.00  0.00    -0.267 OA
ATOM     34  C   UNL     1       7.217   3.235  -3.652  0.00  0.00    +0.095 A 
ATOM     35  C   UNL     1       7.540   1.982  -3.169  0.00  0.00    +0.066 A 
ATOM     36  N   UNL     1       8.734   1.465  -3.414  0.00  0.00    -0.232 NA
ENDBRANCH  24  35
ENDBRANCH  22  24
ENDBRANCH   1  22
TORSDOF 6
