REMARK  Name = ZINC47807497
REMARK  10 active torsions:
REMARK  status: ('A' for Active; 'I' for Inactive)
REMARK    1  A    between atoms: C_1  and  C_2
REMARK    2  A    between atoms: N_5  and  C_11
REMARK    3  A    between atoms: C_7  and  C_10
REMARK    4  A    between atoms: C_16  and  N_17
REMARK    5  A    between atoms: N_20  and  C_21
REMARK    6  A    between atoms: C_21  and  C_22
REMARK    7  A    between atoms: C_22  and  C_24
REMARK    8  A    between atoms: C_22  and  N_29
REMARK    9  A    between atoms: N_29  and  C_30
REMARK   10  A    between atoms: N_29  and  C_31
REMARK                            x       y       z     vdW  Elec       q    Type
REMARK                         _______ _______ _______ _____ _____    ______ ____
ROOT
ATOM      1  N   UNL     1       3.575  -1.654  -3.125  0.00  0.00    -0.268 N 
ATOM      2  C   UNL     1       3.445  -2.338  -4.279  0.00  0.00    +0.304 C 
ATOM      3  O   UNL     1       3.452  -1.746  -5.341  0.00  0.00    -0.253 OA
ATOM      4  N   UNL     1       3.308  -3.679  -4.256  0.00  0.00    -0.300 N 
ATOM      5  H   UNL     1       3.626  -2.131  -2.282  0.00  0.00    +0.156 HD
ATOM      6  H   UNL     1       3.303  -4.151  -3.409  0.00  0.00    +0.150 HD
ENDROOT
BRANCH   1  12
ATOM      7  C   UNL     1       3.071   0.485  -2.104  0.00  0.00    +0.051 A 
ATOM      8  C   UNL     1       3.140   1.870  -2.126  0.00  0.00    +0.025 A 
ATOM      9  C   UNL     1       3.763   2.515  -3.178  0.00  0.00    +0.002 A 
ATOM     10  C   UNL     1       4.318   1.783  -4.211  0.00  0.00    +0.002 A 
ATOM     11  C   UNL     1       4.253   0.402  -4.198  0.00  0.00    +0.025 A 
ATOM     12  C   UNL     1       3.636  -0.253  -3.144  0.00  0.00    +0.056 A 
BRANCH   7  16
ATOM     13  C   UNL     1       0.389   1.547   0.236  0.00  0.00    +0.039 C 
ATOM     14  C   UNL     1       0.356   0.018   0.207  0.00  0.00    +0.133 C 
ATOM     15  C   UNL     1       1.004  -0.484  -1.088  0.00  0.00    +0.136 C 
ATOM     16  N   UNL     1       2.441  -0.170  -1.040  0.00  0.00    -0.324 N 
ATOM     17  C   UNL     1       3.196  -0.565   0.160  0.00  0.00    +0.136 C 
ATOM     18  C   UNL     1       2.441  -0.059   1.394  0.00  0.00    +0.133 C 
ATOM     19  O   UNL     1       1.081  -0.496   1.327  0.00  0.00    -0.371 OA
ATOM     20  C   UNL     1       3.097  -0.617   2.659  0.00  0.00    +0.039 C 
ENDBRANCH   7  16
ENDBRANCH   1  12
BRANCH   4  21
ATOM     21  C   UNL     1       3.167  -4.423  -5.510  0.00  0.00    +0.095 C 
BRANCH  21  22
ATOM     22  C   UNL     1       2.903  -5.898  -5.201  0.00  0.00    -0.014 C 
BRANCH  22  23
ATOM     23  C   UNL     1       1.603  -6.029  -4.451  0.00  0.00    -0.022 A 
ATOM     24  C   UNL     1       1.397  -6.182  -3.120  0.00  0.00    +0.009 A 
ATOM     25  C   UNL     1       0.101  -6.281  -2.649  0.00  0.00    +0.008 A 
ATOM     26  C   UNL     1      -0.925  -6.223  -3.532  0.00  0.00    +0.045 A 
ATOM     27  S   UNL     1      -0.067  -6.014  -5.083  0.00  0.00    -0.103 S 
ENDBRANCH  22  23
BRANCH  22  28
ATOM     28  N   UNL     1       2.821  -6.654  -6.458  0.00  0.00    +0.382 N 
ATOM     29  C   UNL     1       4.124  -6.618  -7.136  0.00  0.00    -0.096 C 
ATOM     30  C   UNL     1       2.458  -8.047  -6.168  0.00  0.00    -0.096 C 
ATOM     31  H   UNL     1       2.120  -6.240  -7.054  0.00  0.00    -0.082 HD
ENDBRANCH  22  28
ENDBRANCH  21  22
ENDBRANCH   4  21
TORSDOF 6
