REMARK  Name = ZINC52332387
REMARK  6 active torsions:
REMARK  status: ('A' for Active; 'I' for Inactive)
REMARK    1  A    between atoms: C_1  and  C_2
REMARK    2  A    between atoms: C_2  and  C_3
REMARK    3  A    between atoms: C_3  and  C_5
REMARK    4  A    between atoms: C_3  and  N_11
REMARK    5  A    between atoms: C_12  and  C_14
REMARK    6  A    between atoms: C_16  and  N_21
REMARK                            x       y       z     vdW  Elec       q    Type
REMARK                         _______ _______ _______ _____ _____    ______ ____
ROOT
ATOM      1  N   UNL     1       2.125  -0.091  -1.209  0.00  0.00    -0.308 N 
ATOM      2  C   UNL     1       2.487   1.134  -1.640  0.00  0.00    +0.245 C 
ATOM      3  O   UNL     1       1.647   1.901  -2.067  0.00  0.00    -0.270 OA
ATOM      4  H   UNL     1       2.795  -0.703  -0.868  0.00  0.00    +0.149 HD
ENDROOT
BRANCH   2   5
ATOM      5  C   UNL     1       3.907   1.544  -1.592  0.00  0.00    +0.052 A 
ATOM      6  C   UNL     1       4.874   0.663  -1.107  0.00  0.00    +0.037 A 
ATOM      7  C   UNL     1       6.203   1.054  -1.066  0.00  0.00    +0.025 A 
ATOM      8  C   UNL     1       6.569   2.321  -1.506  0.00  0.00    +0.024 A 
ATOM      9  C   UNL     1       5.612   3.195  -1.986  0.00  0.00    +0.018 A 
ATOM     10  C   UNL     1       4.285   2.812  -2.037  0.00  0.00    +0.030 A 
ATOM     11 BR   UNL     1       2.981   4.009  -2.702  0.00  0.00    -0.050 Br
BRANCH   7  12
ATOM     12  N   UNL     1       7.175   0.175  -0.581  0.00  0.00    -0.358 N 
ATOM     13  H   UNL     1       6.920  -0.709  -0.274  0.00  0.00    +0.142 HD
ATOM     14  H   UNL     1       8.105   0.449  -0.552  0.00  0.00    +0.142 HD
ENDBRANCH   7  12
ENDBRANCH   2   5
BRANCH   1  15
ATOM     15  C   UNL     1       0.718  -0.497  -1.257  0.00  0.00    +0.076 C 
BRANCH  15  16
ATOM     16  C   UNL     1       0.630  -2.023  -1.329  0.00  0.00    +0.009 C 
ATOM     17  C   UNL     1       1.295  -2.631  -0.092  0.00  0.00    +0.005 C 
ATOM     18  C   UNL     1       1.208  -4.157  -0.164  0.00  0.00    +0.000 C 
ATOM     19  C   UNL     1       1.924  -4.650  -1.423  0.00  0.00    +0.000 C 
ATOM     20  C   UNL     1       1.259  -4.043  -2.659  0.00  0.00    +0.000 C 
ATOM     21  C   UNL     1       1.347  -2.517  -2.587  0.00  0.00    +0.005 C 
ENDBRANCH  15  16
BRANCH  15  23
ATOM     22  C   UNL     1      -0.019   1.526   0.010  0.00  0.00    +0.006 C 
ATOM     23  C   UNL     1       0.002  -0.004   0.002  0.00  0.00    +0.019 C 
ENDBRANCH  15  23
ENDBRANCH   1  15
TORSDOF 5
