REMARK  Name = ZINC20352598
REMARK  8 active torsions:
REMARK  status: ('A' for Active; 'I' for Inactive)
REMARK    1  A    between atoms: C_1  and  C_2
REMARK    2  A    between atoms: C_7  and  N_8
REMARK    3  A    between atoms: N_8  and  C_9
REMARK    4  A    between atoms: C_9  and  C_11
REMARK    5  A    between atoms: C_9  and  C_12
REMARK    6  A    between atoms: N_14  and  N_15
REMARK    7  A    between atoms: C_16  and  C_17
REMARK    8  A    between atoms: C_20  and  N_22
REMARK                            x       y       z     vdW  Elec       q    Type
REMARK                         _______ _______ _______ _____ _____    ______ ____
ROOT
ATOM      1  C   UNL     1       5.767   2.859  -0.038  0.00  0.00    +0.252 C 
ATOM      2  O   UNL     1       5.515   4.040  -0.029  0.00  0.00    -0.272 OA
ATOM      3  N   UNL     1       4.766   1.956  -0.034  0.00  0.00    -0.205 N 
ATOM      4  H   UNL     1       4.996   0.880  -0.042  0.00  0.00    +0.177 HD
ENDROOT
BRANCH   1   5
ATOM      5  C   UNL     1       7.201   2.395  -0.055  0.00  0.00    +0.155 C 
ATOM      6  C   UNL     1       7.476   1.544   1.187  0.00  0.00    +0.038 C 
BRANCH   5   7
ATOM      7  N   UNL     1       8.091   3.558  -0.057  0.00  0.00    -0.333 N 
ATOM      8  H   UNL     1       7.743   4.517   0.355  0.00  0.00    +0.147 HD
BRANCH   7  15
ATOM      9  C   UNL     1       9.752   5.867  -0.021  0.00  0.00    +0.045 C 
ATOM     10  C   UNL     1      10.226   4.552  -0.584  0.00  0.00    -0.029 A 
ATOM     11  C   UNL     1      11.501   4.442  -1.104  0.00  0.00    +0.019 A 
ATOM     12  C   UNL     1      11.937   3.235  -1.621  0.00  0.00    +0.014 A 
ATOM     13  C   UNL     1      11.097   2.135  -1.619  0.00  0.00    +0.016 A 
ATOM     14  C   UNL     1       9.823   2.238  -1.097  0.00  0.00    +0.024 A 
ATOM     15  C   UNL     1       9.381   3.450  -0.582  0.00  0.00    +0.031 A 
ATOM     16  I   UNL     1      13.871   3.073  -2.407  0.00  0.00    -0.044 I 
ENDBRANCH   7  15
ENDBRANCH   5   7
ENDBRANCH   1   5
BRANCH   3  17
ATOM     17  N   UNL     1       3.539   2.353  -0.019  0.00  0.00    -0.187 NA
ATOM     18  C   UNL     1       2.545   1.457  -0.015  0.00  0.00    +0.145 C 
BRANCH  18  19
ATOM     19  C   UNL     1       1.232   1.882   0.000  0.00  0.00    +0.034 A 
ATOM     20  C   UNL     1      -0.013   1.076   0.008  0.00  0.00    +0.019 A 
ATOM     21  C   UNL     1      -1.150   1.769   0.017  0.00  0.00    +0.041 A 
ATOM     22  C   UNL     1      -1.106   3.175   0.030  0.00  0.00    +0.164 A 
ATOM     23  S   UNL     1       0.587   3.546   0.016  0.00  0.00    -0.064 S 
BRANCH  22  24
ATOM     24  N   UNL     1      -2.256   4.130   0.045  0.00  0.00    +0.063 N 
ATOM     25  O   UNL     1      -3.491   3.674   0.054  0.00  0.00    -0.126 OA
ATOM     26  O   UNL     1      -2.034   5.428   0.050  0.00  0.00    -0.126 OA
ENDBRANCH  22  24
ENDBRANCH  18  19
ENDBRANCH   3  17
TORSDOF 6
