REMARK  Name = ZINC12632006
REMARK  10 active torsions:
REMARK  status: ('A' for Active; 'I' for Inactive)
REMARK    1  A    between atoms: C_1  and  C_2
REMARK    2  A    between atoms: C_2  and  N_58
REMARK    3  A    between atoms: C_3  and  C_4
REMARK    4  A    between atoms: C_3  and  N_58
REMARK    5  A    between atoms: N_6  and  C_7
REMARK    6  A    between atoms: C_8  and  C_18
REMARK    7  A    between atoms: C_13  and  C_17
REMARK    8  A    between atoms: C_20  and  C_21
REMARK    9  A    between atoms: C_20  and  N_58
REMARK   10  A    between atoms: N_23  and  C_24
REMARK                            x       y       z     vdW  Elec       q    Type
REMARK                         _______ _______ _______ _____ _____    ______ ____
ROOT
ATOM      1  C   UNL     1      -0.377   0.752  -7.427  0.00  0.00    +0.020 C 
ENDROOT
BRANCH   1   2
ATOM      2  C   UNL     1      -0.642   1.633  -8.621  0.00  0.00    +0.201 C 
ATOM      3  O   UNL     1      -1.123   2.736  -8.465  0.00  0.00    -0.278 OA
ATOM      4  N   UNL     1      -0.346   1.196  -9.861  0.00  0.00    -0.281 N 
ATOM      5  H   UNL     1       0.038   0.314  -9.985  0.00  0.00    +0.155 HD
BRANCH   4   6
ATOM      6  C   UNL     1      -0.591   2.007 -10.960  0.00  0.00    +0.090 A 
ATOM      7  C   UNL     1      -0.356   1.737 -12.300  0.00  0.00    +0.084 A 
ATOM      8  C   UNL     1      -0.706   2.766 -13.264  0.00  0.00    -0.018 A 
ATOM      9  C   UNL     1      -1.231   3.894 -12.736  0.00  0.00    -0.004 A 
ATOM     10  S   UNL     1      -1.271   3.601 -10.991  0.00  0.00    -0.077 S 
ATOM     11  C   UNL     1      -1.683   5.113 -13.480  0.00  0.00    +0.046 C 
ATOM     12  C   UNL     1      -1.810   4.753 -14.967  0.00  0.00    -0.009 C 
ATOM     13  C   UNL     1      -0.544   4.011 -15.405  0.00  0.00    +0.008 C 
ATOM     14  C   UNL     1      -0.508   2.621 -14.768  0.00  0.00    +0.037 C 
ATOM     15  C   UNL     1      -1.970   6.031 -15.793  0.00  0.00    +0.008 C 
BRANCH   7  16
ATOM     16  C   UNL     1       0.211   0.490 -12.717  0.00  0.00    +0.102 C 
ATOM     17  N   UNL     1       0.660  -0.499 -13.048  0.00  0.00    -0.191 NA
ENDBRANCH   7  16
ENDBRANCH   4   6
ENDBRANCH   1   2
BRANCH   1  18
ATOM     18  N   UNL     1      -0.680   1.514  -6.198  0.00  0.00    +0.391 N 
ATOM     19  H   UNL     1      -1.581   1.992  -6.315  0.00  0.00    -0.080 HD
BRANCH  18  21
ATOM     20  C   UNL     1       1.720   1.845  -5.705  0.00  0.00    -0.017 C 
ATOM     21  C   UNL     1       0.372   2.524  -5.957  0.00  0.00    -0.081 C 
ENDBRANCH  18  21
BRANCH  18  22
ATOM     22  C   UNL     1      -0.771   0.595  -5.044  0.00  0.00    +0.019 C 
BRANCH  22  23
ATOM     23  C   UNL     1      -1.294   1.358  -3.854  0.00  0.00    +0.197 C 
ATOM     24  O   UNL     1      -1.545   2.540  -3.955  0.00  0.00    -0.278 OA
ATOM     25  N   UNL     1      -1.483   0.727  -2.678  0.00  0.00    -0.312 N 
ATOM     26  H   UNL     1      -1.282  -0.218  -2.598  0.00  0.00    +0.149 HD
BRANCH  25  27
ATOM     27  C   UNL     1      -1.991   1.469  -1.522  0.00  0.00    +0.095 C 
ATOM     28  C   UNL     1      -3.529   1.489  -1.553  0.00  0.00    +0.046 C 
ATOM     29  C   UNL     1      -4.077   1.982  -0.192  0.00  0.00    +0.168 C 
ATOM     30  S   UNL     1      -2.756   1.474   0.984  0.00  0.00    -0.029 S 
ATOM     31  O   UNL     1      -3.250   0.431   1.813  0.00  0.00    -0.174 OA
ATOM     32  O   UNL     1      -2.196   2.636   1.580  0.00  0.00    -0.174 OA
ATOM     33  C   UNL     1      -1.542   0.767  -0.209  0.00  0.00    +0.188 C 
ENDBRANCH  25  27
ENDBRANCH  22  23
ENDBRANCH  18  22
ENDBRANCH   1  18
TORSDOF 8
