REMARK  Name = ZINC04293361
REMARK  15 active torsions:
REMARK  status: ('A' for Active; 'I' for Inactive)
REMARK    1  A    between atoms: C_1  and  C_2
REMARK    2  A    between atoms: C_2  and  C_3
REMARK    3  A    between atoms: C_3  and  O_46
REMARK    4  A    between atoms: C_5  and  O_31
REMARK    5  A    between atoms: C_12  and  O_13
REMARK    6  A    between atoms: C_21  and  O_22
REMARK    7  A    between atoms: C_25  and  C_27
REMARK    8  A    between atoms: C_27  and  O_29
REMARK    9  A    between atoms: O_29  and  C_30
REMARK   10  A    between atoms: O_31  and  C_32
REMARK   11  A    between atoms: C_35  and  N_76
REMARK   12  A    between atoms: C_37  and  O_43
REMARK   13  A    between atoms: C_39  and  C_42
REMARK   14  A    between atoms: C_44  and  N_76
REMARK   15  A    between atoms: C_45  and  N_76
REMARK                            x       y       z     vdW  Elec       q    Type
REMARK                         _______ _______ _______ _____ _____    ______ ____
ROOT
ATOM      1  C   UNL     1      -0.079   3.093   4.320  0.00  0.00    +0.085 C 
ATOM      2  C   UNL     1      -1.543   3.312   3.922  0.00  0.00    +0.072 C 
ATOM      3  C   UNL     1      -1.828   2.488   2.668  0.00  0.00    +0.158 C 
ATOM      4  C   UNL     1      -0.793   2.761   1.607  0.00  0.00    +0.028 A 
ATOM      5  C   UNL     1       0.419   3.346   1.888  0.00  0.00    -0.021 A 
ATOM      6  C   UNL     1       1.342   3.568   0.868  0.00  0.00    +0.017 A 
ATOM      7  C   UNL     1       1.050   3.209  -0.439  0.00  0.00    +0.037 A 
ATOM      8  C   UNL     1      -0.191   2.613  -0.734  0.00  0.00    +0.075 A 
ATOM      9  C   UNL     1      -1.106   2.392   0.294  0.00  0.00    +0.134 A 
ATOM     10  C   UNL     1      -0.508   2.232  -2.124  0.00  0.00    +0.202 C 
ATOM     11  O   UNL     1      -1.450   1.501  -2.362  0.00  0.00    -0.286 OA
ATOM     12  C   UNL     1       0.331   2.750  -3.223  0.00  0.00    +0.075 A 
ATOM     13  C   UNL     1       1.573   3.346  -2.931  0.00  0.00    +0.037 A 
ATOM     14  C   UNL     1       2.364   3.835  -3.964  0.00  0.00    +0.012 A 
ATOM     15  C   UNL     1       1.928   3.735  -5.277  0.00  0.00    +0.004 A 
ATOM     16  C   UNL     1       0.712   3.152  -5.569  0.00  0.00    +0.046 A 
ATOM     17  C   UNL     1      -0.096   2.656  -4.549  0.00  0.00    +0.128 A 
ATOM     18  C   UNL     1       2.024   3.447  -1.526  0.00  0.00    +0.195 C 
ATOM     19  O   UNL     1       3.180   3.721  -1.268  0.00  0.00    -0.287 OA
ATOM     20  C   UNL     1       0.809   3.771   3.280  0.00  0.00    +0.160 C 
ENDROOT
BRANCH   1  22
ATOM     21  C   UNL     1       1.658   3.557   6.055  0.00  0.00    +0.007 C 
ATOM     22  C   UNL     1       0.178   3.707   5.698  0.00  0.00    +0.032 C 
ENDBRANCH   1  22
BRANCH   9  23
ATOM     23  O   UNL     1      -2.303   1.816   0.021  0.00  0.00    -0.506 OA
ATOM     24  H   UNL     1      -2.317   0.858   0.150  0.00  0.00    +0.292 HD
ENDBRANCH   9  23
BRANCH  17  25
ATOM     25  O   UNL     1      -1.290   2.084  -4.842  0.00  0.00    -0.506 OA
ATOM     26  H   UNL     1      -2.031   2.705  -4.856  0.00  0.00    +0.292 HD
ENDBRANCH  17  25
BRANCH  20  27
ATOM     27  C   UNL     1       0.663   5.266   3.401  0.00  0.00    +0.317 C 
ATOM     28  O   UNL     1      -0.421   5.751   3.627  0.00  0.00    -0.250 OA
BRANCH  27  29
ATOM     29  O   UNL     1       1.736   6.060   3.258  0.00  0.00    -0.467 OA
ATOM     30  C   UNL     1       1.520   7.490   3.387  0.00  0.00    +0.280 C 
ENDBRANCH  27  29
ENDBRANCH  20  27
BRANCH   1  31
ATOM     31  O   UNL     1       0.205   1.693   4.356  0.00  0.00    -0.387 OA
ATOM     32  H   UNL     1      -0.337   1.197   4.986  0.00  0.00    +0.210 HD
ENDBRANCH   1  31
BRANCH   3  33
ATOM     33  O   UNL     1      -1.804   1.099   3.003  0.00  0.00    -0.343 OA
BRANCH  33  34
ATOM     34  C   UNL     1      -3.060   0.589   3.456  0.00  0.00    +0.250 C 
ATOM     35  C   UNL     1      -2.862  -0.815   4.035  0.00  0.00    +0.049 C 
ATOM     36  C   UNL     1      -4.221  -1.378   4.463  0.00  0.00    -0.033 C 
ATOM     37  C   UNL     1      -5.166  -1.373   3.258  0.00  0.00    +0.130 C 
ATOM     38  C   UNL     1      -5.275   0.052   2.710  0.00  0.00    +0.145 C 
ATOM     39  O   UNL     1      -3.974   0.526   2.359  0.00  0.00    -0.346 OA
ATOM     40  C   UNL     1      -6.171   0.054   1.470  0.00  0.00    +0.040 C 
BRANCH  36  43
ATOM     41  C   UNL     1      -6.059  -1.095   6.013  0.00  0.00    -0.096 C 
ATOM     42  C   UNL     1      -3.829  -0.389   6.638  0.00  0.00    -0.096 C 
ATOM     43  N   UNL     1      -4.790  -0.519   5.522  0.00  0.00    +0.380 N 
ATOM     44  H   UNL     1      -4.976   0.413   5.132  0.00  0.00    -0.082 HD
ENDBRANCH  36  43
BRANCH  37  45
ATOM     45  O   UNL     1      -4.651  -2.237   2.243  0.00  0.00    -0.391 OA
ATOM     46  H   UNL     1      -5.200  -2.283   1.449  0.00  0.00    +0.210 HD
ENDBRANCH  37  45
ENDBRANCH  33  34
ENDBRANCH   3  33
TORSDOF 10
