REMARK  Name = ZINC38905766
REMARK  13 active torsions:
REMARK  status: ('A' for Active; 'I' for Inactive)
REMARK    1  A    between atoms: C_1  and  C_2
REMARK    2  A    between atoms: C_7  and  C_14
REMARK    3  A    between atoms: C_14  and  N_15
REMARK    4  A    between atoms: N_15  and  C_16
REMARK    5  A    between atoms: C_18  and  C_23
REMARK    6  A    between atoms: C_21  and  C_22
REMARK    7  A    between atoms: C_24  and  C_26
REMARK    8  A    between atoms: C_28  and  O_36
REMARK    9  A    between atoms: C_29  and  O_34
REMARK   10  A    between atoms: C_30  and  O_32
REMARK   11  A    between atoms: O_32  and  C_33
REMARK   12  A    between atoms: O_34  and  C_35
REMARK   13  A    between atoms: O_36  and  C_37
REMARK                            x       y       z     vdW  Elec       q    Type
REMARK                         _______ _______ _______ _____ _____    ______ ____
ROOT
ATOM      1  N   UNL     1      -1.011  -6.604   2.494  0.00  0.00    -0.266 N 
ATOM      2  C   UNL     1      -0.348  -7.774   2.399  0.00  0.00    +0.251 C 
ATOM      3  O   UNL     1       0.048  -8.162   1.317  0.00  0.00    -0.270 OA
ENDROOT
BRANCH   1   4
ATOM      4  C   UNL     1      -1.508  -6.181   3.731  0.00  0.00    +0.040 A 
ATOM      5  C   UNL     1      -0.634  -5.911   4.776  0.00  0.00    +0.027 A 
ATOM      6  C   UNL     1      -1.128  -5.492   5.996  0.00  0.00    -0.049 A 
ATOM      7  C   UNL     1      -2.491  -5.342   6.178  0.00  0.00    +0.004 A 
ATOM      8  C   UNL     1      -3.363  -5.611   5.139  0.00  0.00    +0.005 A 
ATOM      9  C   UNL     1      -2.875  -6.024   3.915  0.00  0.00    -0.029 A 
ATOM     10  C   UNL     1      -3.827  -6.310   2.781  0.00  0.00    +0.045 C 
ATOM     11  C   UNL     1      -0.180  -5.199   7.131  0.00  0.00    +0.044 C 
ENDBRANCH   1   4
BRANCH   2  12
ATOM     12  C   UNL     1      -0.102  -8.583   3.608  0.00  0.00    +0.044 A 
ATOM     13  C   UNL     1      -1.087  -8.686   4.594  0.00  0.00    +0.062 A 
ATOM     14  C   UNL     1      -0.854  -9.445   5.725  0.00  0.00    +0.166 A 
ATOM     15  C   UNL     1       0.361 -10.107   5.883  0.00  0.00    +0.204 A 
ATOM     16  C   UNL     1       1.345 -10.005   4.903  0.00  0.00    +0.166 A 
ATOM     17  C   UNL     1       1.115  -9.252   3.767  0.00  0.00    +0.062 A 
BRANCH  16  18
ATOM     18  O   UNL     1       2.530 -10.652   5.061  0.00  0.00    -0.491 OA
ATOM     19  C   UNL     1       3.494 -10.504   4.016  0.00  0.00    +0.277 C 
ENDBRANCH  16  18
BRANCH  15  20
ATOM     20  O   UNL     1       0.588 -10.852   6.997  0.00  0.00    -0.488 OA
ATOM     21  C   UNL     1       0.215 -12.231   6.941  0.00  0.00    +0.277 C 
ENDBRANCH  15  20
BRANCH  14  22
ATOM     22  O   UNL     1      -1.812  -9.546   6.685  0.00  0.00    -0.491 OA
ATOM     23  C   UNL     1      -3.078  -8.945   6.404  0.00  0.00    +0.277 C 
ENDBRANCH  14  22
ENDBRANCH   2  12
BRANCH   1  24
ATOM     24  C   UNL     1      -1.212  -5.777   1.302  0.00  0.00    +0.131 C 
BRANCH  24  31
ATOM     25  C   UNL     1       0.277   1.313  -0.628  0.00  0.00    +0.044 C 
ATOM     26  C   UNL     1       0.181  -0.188  -0.538  0.00  0.00    -0.049 A 
ATOM     27  C   UNL     1      -0.037  -0.917  -1.708  0.00  0.00    +0.004 A 
ATOM     28  C   UNL     1      -0.133  -2.272  -1.690  0.00  0.00    +0.010 A 
ATOM     29  C   UNL     1      -0.002  -2.971  -0.411  0.00  0.00    -0.007 A 
ATOM     30  C   UNL     1      -0.091  -4.330  -0.345  0.00  0.00    -0.003 C 
ATOM     31  C   UNL     1       0.058  -4.970   1.021  0.00  0.00    +0.116 C 
ATOM     32  C   UNL     1       0.291  -4.051   2.199  0.00  0.00    +0.226 C 
ATOM     33  O   UNL     1       0.418  -4.511   3.317  0.00  0.00    -0.275 OA
ATOM     34  N   UNL     1       0.358  -2.744   2.007  0.00  0.00    -0.284 N 
ATOM     35  C   UNL     1       0.229  -2.176   0.808  0.00  0.00    +0.041 A 
ATOM     36  C   UNL     1       0.317  -0.778   0.678  0.00  0.00    +0.027 A 
ATOM     37  H   UNL     1       0.509  -2.171   2.775  0.00  0.00    +0.155 HD
ENDBRANCH  24  31
ENDBRANCH   1  24
TORSDOF 7
