REMARK  Name = ZINC04781838
REMARK  8 active torsions:
REMARK  status: ('A' for Active; 'I' for Inactive)
REMARK    1  A    between atoms: C_1  and  C_2
REMARK    2  A    between atoms: C_2  and  C_3
REMARK    3  A    between atoms: C_3  and  C_5
REMARK    4  A    between atoms: C_3  and  N_6
REMARK    5  A    between atoms: C_7  and  C_9
REMARK    6  A    between atoms: N_16  and  S_19
REMARK    7  A    between atoms: S_19  and  C_22
REMARK    8  A    between atoms: C_23  and  C_24
REMARK                            x       y       z     vdW  Elec       q    Type
REMARK                         _______ _______ _______ _____ _____    ______ ____
ROOT
ATOM      1  C   UNL     1      -3.321   3.022   5.425  0.00  0.00    +0.028 C 
ATOM      2  C   UNL     1      -2.236   3.174   6.533  0.00  0.00    +0.061 C 
ATOM      3  S   UNL     1      -1.013   1.945   5.888  0.00  0.00    -0.174 S 
ATOM      4  C   UNL     1      -1.401   2.152   4.104  0.00  0.00    -0.016 C 
ATOM      5  C   UNL     1      -1.509   0.784   3.443  0.00  0.00    +0.015 C 
ATOM      6  C   UNL     1      -1.852   0.959   1.960  0.00  0.00    +0.109 C 
ATOM      7  N   UNL     1      -0.872   1.871   1.353  0.00  0.00    -0.177 NA
ATOM      8  C   UNL     1      -0.659   3.191   1.964  0.00  0.00    +0.109 C 
ATOM      9  C   UNL     1      -0.327   3.005   3.444  0.00  0.00    +0.015 C 
ATOM     10  N   UNL     1      -2.719   2.858   4.072  0.00  0.00    +0.397 N 
ATOM     11  H   UNL     1      -2.583   3.788   3.659  0.00  0.00    -0.083 HD
ATOM     12  H   UNL     1      -3.367   2.316   3.488  0.00  0.00    -0.083 HD
ENDROOT
BRANCH   1  14
ATOM     13  N   UNL     1      -4.861   4.625   6.510  0.00  0.00    -0.314 N 
ATOM     14  C   UNL     1      -4.184   4.256   5.404  0.00  0.00    +0.200 C 
ATOM     15  O   UNL     1      -4.271   4.918   4.391  0.00  0.00    -0.278 OA
ATOM     16  H   UNL     1      -4.792   4.096   7.320  0.00  0.00    +0.149 HD
BRANCH  13  17
ATOM     17  C   UNL     1      -5.701   5.825   6.489  0.00  0.00    +0.070 C 
ATOM     18  C   UNL     1      -7.084   5.470   5.939  0.00  0.00    +0.028 C 
BRANCH  17  20
ATOM     19  C   UNL     1      -4.476   6.845   8.413  0.00  0.00    +0.005 C 
ATOM     20  C   UNL     1      -5.842   6.374   7.910  0.00  0.00    +0.018 C 
ENDBRANCH  17  20
ENDBRANCH  13  17
ENDBRANCH   1  14
BRANCH   7  21
ATOM     21  S   UNL     1      -0.017   1.417   0.010  0.00  0.00    +0.054 S 
ATOM     22  O   UNL     1       0.002  -0.004   0.002  0.00  0.00    -0.153 OA
ATOM     23  O   UNL     1       1.172   2.195   0.003  0.00  0.00    -0.153 OA
BRANCH  21  24
ATOM     24  C   UNL     1      -0.954   1.915  -1.397  0.00  0.00    +0.153 C 
ATOM     25  C   UNL     1      -0.475   2.840  -2.218  0.00  0.00    +0.028 C 
BRANCH  25  26
ATOM     26  C   UNL     1      -1.261   3.258  -3.398  0.00  0.00    -0.024 A 
ATOM     27  C   UNL     1      -2.504   2.678  -3.654  0.00  0.00    +0.008 A 
ATOM     28  C   UNL     1      -3.236   3.078  -4.753  0.00  0.00    +0.001 A 
ATOM     29  C   UNL     1      -2.733   4.042  -5.608  0.00  0.00    +0.000 A 
ATOM     30  C   UNL     1      -1.499   4.617  -5.364  0.00  0.00    +0.001 A 
ATOM     31  C   UNL     1      -0.760   4.231  -4.264  0.00  0.00    +0.008 A 
ENDBRANCH  25  26
ENDBRANCH  21  24
ENDBRANCH   7  21
TORSDOF 6
