REMARK  Name = ZINC39544380
REMARK  13 active torsions:
REMARK  status: ('A' for Active; 'I' for Inactive)
REMARK    1  A    between atoms: C_1  and  C_2
REMARK    2  A    between atoms: C_2  and  C_3
REMARK    3  A    between atoms: C_3  and  C_4
REMARK    4  A    between atoms: C_3  and  C_5
REMARK    5  A    between atoms: C_3  and  C_6
REMARK    6  A    between atoms: N_14  and  C_18
REMARK    7  A    between atoms: C_18  and  C_19
REMARK    8  A    between atoms: N_21  and  C_22
REMARK    9  A    between atoms: N_21  and  C_24
REMARK   10  A    between atoms: C_22  and  C_23
REMARK   11  A    between atoms: C_24  and  C_25
REMARK   12  A    between atoms: N_27  and  C_28
REMARK   13  A    between atoms: C_28  and  C_29
REMARK                            x       y       z     vdW  Elec       q    Type
REMARK                         _______ _______ _______ _____ _____    ______ ____
ROOT
ATOM      1  C   UNL     1       4.062  -7.761  -1.324  0.00  0.00    +0.213 C 
ENDROOT
BRANCH   1  10
ATOM      2  C   UNL     1       0.739  -2.027  -1.265  0.00  0.00    -0.005 C 
ATOM      3  C   UNL     1       1.477  -2.534  -0.024  0.00  0.00    +0.006 C 
ATOM      4  C   UNL     1       1.488  -4.065  -0.028  0.00  0.00    +0.035 C 
ATOM      5  C   UNL     1       2.179  -4.566  -1.291  0.00  0.00    +0.113 C 
ATOM      6  C   UNL     1       1.466  -4.051  -2.537  0.00  0.00    +0.035 C 
ATOM      7  C   UNL     1       1.455  -2.520  -2.524  0.00  0.00    +0.006 C 
ATOM      8  C   UNL     1       2.232  -6.077  -1.300  0.00  0.00    +0.247 C 
ATOM      9  O   UNL     1       1.293  -6.844  -1.296  0.00  0.00    -0.273 OA
ATOM     10  N   UNL     1       3.544  -6.391  -1.313  0.00  0.00    -0.215 N 
ATOM     11  C   UNL     1       4.313  -5.295  -1.314  0.00  0.00    +0.310 C 
ATOM     12  O   UNL     1       5.528  -5.323  -1.325  0.00  0.00    -0.252 OA
ATOM     13  N   UNL     1       3.590  -4.159  -1.301  0.00  0.00    -0.285 N 
ATOM     14  H   UNL     1       3.933  -3.252  -1.299  0.00  0.00    +0.151 HD
BRANCH   2  15
ATOM     15  C   UNL     1       0.718  -0.497  -1.257  0.00  0.00    -0.032 C 
ATOM     16  C   UNL     1      -0.022   0.009  -2.496  0.00  0.00    +0.011 C 
ATOM     17  C   UNL     1       2.154   0.032  -1.268  0.00  0.00    +0.011 C 
BRANCH  15  19
ATOM     18  C   UNL     1      -0.019   1.526   0.010  0.00  0.00    +0.004 C 
ATOM     19  C   UNL     1       0.002  -0.004   0.002  0.00  0.00    +0.003 C 
ENDBRANCH  15  19
ENDBRANCH   2  15
ENDBRANCH   1  10
BRANCH   1  20
ATOM     20  C   UNL     1       4.227  -8.224  -2.749  0.00  0.00    +0.234 C 
ATOM     21  O   UNL     1       3.940  -7.482  -3.665  0.00  0.00    -0.274 OA
ATOM     22  N   UNL     1       4.694  -9.462  -3.005  0.00  0.00    -0.292 N 
BRANCH  22  23
ATOM     23  C   UNL     1       5.041 -10.358  -1.899  0.00  0.00    +0.105 C 
ATOM     24  C   UNL     1       3.812 -11.180  -1.504  0.00  0.00    +0.024 C 
ENDBRANCH  22  23
BRANCH  22  25
ATOM     25  C   UNL     1       4.854  -9.912  -4.390  0.00  0.00    +0.203 C 
BRANCH  25  26
ATOM     26  C   UNL     1       6.238  -9.564  -4.874  0.00  0.00    +0.231 C 
ATOM     27  O   UNL     1       7.014  -8.995  -4.135  0.00  0.00    -0.274 OA
ATOM     28  N   UNL     1       6.614  -9.884  -6.128  0.00  0.00    -0.310 N 
ATOM     29  H   UNL     1       5.993 -10.338  -6.720  0.00  0.00    +0.149 HD
BRANCH  28  30
ATOM     30  C   UNL     1       7.959  -9.545  -6.599  0.00  0.00    +0.139 C 
BRANCH  30  31
ATOM     31  C   UNL     1       8.124 -10.008  -8.024  0.00  0.00    -0.030 A 
ATOM     32  C   UNL     1       8.598 -11.280  -8.286  0.00  0.00    +0.008 A 
ATOM     33  C   UNL     1       8.749 -11.706  -9.592  0.00  0.00    +0.038 A 
ATOM     34  C   UNL     1       8.427 -10.858 -10.638  0.00  0.00    +0.123 A 
ATOM     35  C   UNL     1       7.953  -9.584 -10.374  0.00  0.00    +0.038 A 
ATOM     36  C   UNL     1       7.797  -9.162  -9.067  0.00  0.00    +0.008 A 
ATOM     37  F   UNL     1       8.575 -11.273 -11.915  0.00  0.00    -0.205 F 
ENDBRANCH  30  31
ENDBRANCH  28  30
ENDBRANCH  25  26
ENDBRANCH  22  25
ENDBRANCH   1  20
TORSDOF 9
