REMARK  Name = ZINC39913994
REMARK  13 active torsions:
REMARK  status: ('A' for Active; 'I' for Inactive)
REMARK    1  A    between atoms: C_1  and  C_2
REMARK    2  A    between atoms: C_2  and  C_3
REMARK    3  A    between atoms: C_3  and  C_4
REMARK    4  A    between atoms: C_4  and  O_5
REMARK    5  A    between atoms: O_5  and  C_6
REMARK    6  A    between atoms: C_9  and  C_12
REMARK    7  A    between atoms: C_15  and  C_27
REMARK    8  A    between atoms: N_22  and  C_23
REMARK    9  A    between atoms: C_23  and  C_24
REMARK   10  A    between atoms: C_24  and  C_25
REMARK   11  A    between atoms: C_25  and  O_26
REMARK   12  A    between atoms: C_30  and  C_34
REMARK   13  A    between atoms: C_32  and  O_33
REMARK                            x       y       z     vdW  Elec       q    Type
REMARK                         _______ _______ _______ _____ _____    ______ ____
ROOT
ATOM      1  C   UNL     1       1.909  -8.055   3.017  0.00  0.00    +0.141 C 
ATOM      2  C   UNL     1       0.994  -8.556   4.101  0.00  0.00    +0.035 A 
ATOM      3  C   UNL     1      -0.318  -8.689   4.568  0.00  0.00    +0.102 A 
ATOM      4  N   UNL     1      -0.262  -9.317   5.726  0.00  0.00    -0.173 NA
ATOM      5  N   UNL     1       0.954  -9.592   6.036  0.00  0.00    -0.272 N 
ATOM      6  H   UNL     1       1.233 -10.051   6.844  0.00  0.00    +0.189 HD
ATOM      7  C   UNL     1       1.797  -9.143   5.059  0.00  0.00    +0.126 A 
ATOM      8  C   UNL     1       3.195  -9.035   4.627  0.00  0.00    +0.265 C 
ATOM      9  O   UNL     1       4.149  -9.456   5.252  0.00  0.00    -0.268 OA
ATOM     10  N   UNL     1       3.271  -8.405   3.440  0.00  0.00    -0.285 N 
ENDROOT
BRANCH   3  11
ATOM     11  C   UNL     1      -1.547  -8.212   3.886  0.00  0.00    +0.045 A 
ATOM     12  C   UNL     1      -1.471  -7.678   2.602  0.00  0.00    +0.034 A 
ATOM     13  C   UNL     1      -2.617  -7.235   1.971  0.00  0.00    +0.045 A 
ATOM     14  C   UNL     1      -3.842  -7.321   2.611  0.00  0.00    -0.029 A 
ATOM     15  C   UNL     1      -3.927  -7.848   3.886  0.00  0.00    +0.050 A 
ATOM     16  C   UNL     1      -2.785  -8.302   4.527  0.00  0.00    +0.126 A 
ATOM     17  C   UNL     1      -5.088  -6.835   1.916  0.00  0.00    +0.045 C 
ATOM     18 CL   UNL     1      -2.522  -6.569   0.370  0.00  0.00    -0.083 Cl
BRANCH  16  19
ATOM     19  O   UNL     1      -2.869  -8.827   5.777  0.00  0.00    -0.506 OA
ATOM     20  H   UNL     1      -2.772  -8.174   6.485  0.00  0.00    +0.292 HD
ENDBRANCH  16  19
ENDBRANCH   3  11
BRANCH   1  24
ATOM     21  C   UNL     1       1.535  -3.817   2.618  0.00  0.00    +0.121 A 
ATOM     22  C   UNL     1       1.107  -4.651   1.596  0.00  0.00    +0.046 A 
ATOM     23  C   UNL     1       1.230  -6.021   1.727  0.00  0.00    +0.009 A 
ATOM     24  C   UNL     1       1.777  -6.560   2.876  0.00  0.00    -0.022 A 
ATOM     25  C   UNL     1       2.204  -5.731   3.897  0.00  0.00    +0.009 A 
ATOM     26  C   UNL     1       2.089  -4.360   3.768  0.00  0.00    +0.046 A 
BRANCH  21  27
ATOM     27  O   UNL     1       1.416  -2.469   2.491  0.00  0.00    -0.492 OA
BRANCH  27  28
ATOM     28  C   UNL     1       0.836  -1.980   1.280  0.00  0.00    +0.229 C 
BRANCH  28  29
ATOM     29  C   UNL     1       0.785  -0.451   1.320  0.00  0.00    +0.041 C 
BRANCH  29  31
ATOM     30  C   UNL     1       0.114   1.601   0.063  0.00  0.00    +0.004 C 
ATOM     31  C   UNL     1       0.164   0.072   0.023  0.00  0.00    -0.000 C 
ENDBRANCH  29  31
ENDBRANCH  28  29
ENDBRANCH  27  28
ENDBRANCH  21  27
ENDBRANCH   1  24
BRANCH  10  32
ATOM     32  C   UNL     1       4.501  -8.117   2.697  0.00  0.00    +0.111 C 
BRANCH  32  33
ATOM     33  C   UNL     1       5.043  -6.750   3.119  0.00  0.00    +0.047 C 
BRANCH  33  34
ATOM     34  C   UNL     1       6.327  -6.449   2.343  0.00  0.00    +0.157 C 
BRANCH  34  35
ATOM     35  O   UNL     1       6.834  -5.172   2.737  0.00  0.00    -0.395 OA
ATOM     36  H   UNL     1       7.649  -4.915   2.284  0.00  0.00    +0.209 HD
ENDBRANCH  34  35
ENDBRANCH  33  34
ENDBRANCH  32  33
ENDBRANCH  10  32
TORSDOF 11
