REMARK  Name = ZINC59015617
REMARK  8 active torsions:
REMARK  status: ('A' for Active; 'I' for Inactive)
REMARK    1  A    between atoms: C_2  and  C_3
REMARK    2  A    between atoms: C_3  and  S_4
REMARK    3  A    between atoms: S_4  and  C_5
REMARK    4  A    between atoms: C_11  and  C_13
REMARK    5  A    between atoms: C_13  and  S_14
REMARK    6  A    between atoms: S_14  and  C_15
REMARK    7  A    between atoms: N_20  and  N_21
REMARK    8  A    between atoms: C_22  and  C_23
REMARK                            x       y       z     vdW  Elec       q    Type
REMARK                         _______ _______ _______ _____ _____    ______ ____
ROOT
ATOM      1  C   UNL     1      11.204  -6.311  -0.056  0.00  0.00    +0.211 A 
ATOM      2  N   UNL     1      12.287  -6.505  -0.816  0.00  0.00    -0.186 NA
ATOM      3  C   UNL     1      13.122  -7.316  -0.200  0.00  0.00    +0.232 A 
ATOM      4  N   UNL     1      12.572  -7.657   0.985  0.00  0.00    -0.245 N 
ATOM      5  N   UNL     1      11.338  -6.993   1.057  0.00  0.00    -0.144 NA
ATOM      6  N   UNL     1      14.346  -7.742  -0.682  0.00  0.00    -0.205 N 
ATOM      7  H   UNL     1      14.893  -8.343  -0.152  0.00  0.00    +0.177 HD
ATOM      8  H   UNL     1      12.956  -8.243   1.656  0.00  0.00    +0.192 HD
ENDROOT
BRANCH   6   9
ATOM      9  N   UNL     1      14.796  -7.306  -1.935  0.00  0.00    -0.188 NA
ATOM     10  C   UNL     1      15.945  -7.707  -2.387  0.00  0.00    +0.138 C 
BRANCH  10  11
ATOM     11  C   UNL     1      16.419  -7.248  -3.706  0.00  0.00    -0.005 A 
ATOM     12  C   UNL     1      15.636  -6.378  -4.469  0.00  0.00    +0.010 A 
ATOM     13  C   UNL     1      16.085  -5.952  -5.701  0.00  0.00    +0.016 A 
ATOM     14  C   UNL     1      17.309  -6.386  -6.183  0.00  0.00    +0.018 A 
ATOM     15  C   UNL     1      18.090  -7.248  -5.432  0.00  0.00    +0.016 A 
ATOM     16  C   UNL     1      17.655  -7.677  -4.196  0.00  0.00    +0.010 A 
ATOM     17 BR   UNL     1      17.917  -5.797  -7.874  0.00  0.00    -0.050 Br
ENDBRANCH  10  11
ENDBRANCH   6   9
BRANCH   1  18
ATOM     18  S   UNL     1       9.825  -5.299  -0.478  0.00  0.00    -0.075 S 
BRANCH  18  19
ATOM     19  C   UNL     1       8.717  -5.449   0.951  0.00  0.00    +0.173 C 
BRANCH  19  26
ATOM     20  C   UNL     1       3.071  -2.467   1.357  0.00  0.00    +0.160 A 
ATOM     21  N   UNL     1       3.945  -2.422   0.362  0.00  0.00    -0.133 NA
ATOM     22  N   UNL     1       5.032  -3.059   0.401  0.00  0.00    -0.125 NA
ATOM     23  C   UNL     1       5.368  -3.812   1.435  0.00  0.00    +0.189 A 
ATOM     24  S   UNL     1       3.937  -3.560   2.481  0.00  0.00    -0.024 S 
ATOM     25  N   UNL     1       6.511  -4.578   1.651  0.00  0.00    -0.263 N 
ATOM     26  C   UNL     1       7.481  -4.620   0.717  0.00  0.00    +0.229 C 
ATOM     27  O   UNL     1       7.359  -3.990  -0.313  0.00  0.00    -0.275 OA
ATOM     28  H   UNL     1       6.608  -5.082   2.474  0.00  0.00    +0.157 HD
BRANCH  20  29
ATOM     29  S   UNL     1       1.507  -1.674   1.529  0.00  0.00    -0.093 S 
BRANCH  29  30
ATOM     30  C   UNL     1       1.317  -0.740  -0.015  0.00  0.00    +0.103 C 
BRANCH  30  32
ATOM     31  C   UNL     1      -0.016   1.306   0.009  0.00  0.00    +0.005 C 
ATOM     32  C   UNL     1       0.002  -0.004   0.002  0.00  0.00    -0.023 C 
ENDBRANCH  30  32
ENDBRANCH  29  30
ENDBRANCH  20  29
ENDBRANCH  19  26
ENDBRANCH  18  19
ENDBRANCH   1  18
TORSDOF 8
