REMARK  Name = ZINC21349003
REMARK  6 active torsions:
REMARK  status: ('A' for Active; 'I' for Inactive)
REMARK    1  A    between atoms: C_1  and  C_2
REMARK    2  A    between atoms: C_5  and  N_9
REMARK    3  A    between atoms: C_11  and  C_16
REMARK    4  A    between atoms: N_18  and  C_19
REMARK    5  A    between atoms: C_22  and  S_25
REMARK    6  A    between atoms: S_25  and  N_28
REMARK                            x       y       z     vdW  Elec       q    Type
REMARK                         _______ _______ _______ _____ _____    ______ ____
ROOT
ATOM      1  C   UNL     1      -1.860   3.956  -0.658  0.00  0.00    +0.222 C 
ATOM      2  O   UNL     1      -1.616   4.105  -1.836  0.00  0.00    -0.275 OA
ATOM      3  N   UNL     1      -2.770   4.746  -0.054  0.00  0.00    -0.285 N 
ATOM      4  H   UNL     1      -2.938   4.662   1.030  0.00  0.00    +0.155 HD
ENDROOT
BRANCH   1   7
ATOM      5  N   UNL     1      -0.215   0.720  -0.294  0.00  0.00    -0.271 N 
ATOM      6  C   UNL     1      -0.156   2.110  -0.762  0.00  0.00    +0.127 C 
ATOM      7  C   UNL     1      -1.148   2.888   0.131  0.00  0.00    +0.102 C 
ATOM      8  C   UNL     1      -2.130   1.770   0.557  0.00  0.00    +0.110 C 
ATOM      9  C   UNL     1      -1.315   0.501   0.447  0.00  0.00    +0.221 C 
ATOM     10  O   UNL     1      -1.613  -0.562   0.951  0.00  0.00    -0.275 OA
BRANCH   5  15
ATOM     11  C   UNL     1       3.699  -3.218  -1.462  0.00  0.00    +0.045 C 
ATOM     12  C   UNL     1       2.659  -2.172  -1.152  0.00  0.00    -0.032 A 
ATOM     13  C   UNL     1       2.741  -0.922  -1.738  0.00  0.00    +0.006 A 
ATOM     14  C   UNL     1       1.790   0.038  -1.456  0.00  0.00    +0.024 A 
ATOM     15  C   UNL     1       0.750  -0.251  -0.582  0.00  0.00    +0.038 A 
ATOM     16  C   UNL     1       0.673  -1.505   0.010  0.00  0.00    +0.043 A 
ATOM     17  C   UNL     1       1.625  -2.464  -0.280  0.00  0.00    +0.046 A 
ATOM     18 CL   UNL     1       1.528  -4.034   0.455  0.00  0.00    -0.083 Cl
ENDBRANCH   5  15
ENDBRANCH   1   7
BRANCH   3  19
ATOM     19  C   UNL     1      -3.500   5.674  -0.805  0.00  0.00    +0.034 A 
ATOM     20  C   UNL     1      -2.901   6.332  -1.871  0.00  0.00    +0.025 A 
ATOM     21  C   UNL     1      -3.626   7.243  -2.614  0.00  0.00    +0.030 A 
ATOM     22  C   UNL     1      -4.944   7.507  -2.291  0.00  0.00    +0.106 A 
ATOM     23  C   UNL     1      -5.543   6.857  -1.227  0.00  0.00    +0.030 A 
ATOM     24  C   UNL     1      -4.824   5.941  -0.483  0.00  0.00    +0.025 A 
BRANCH  22  25
ATOM     25  S   UNL     1      -5.864   8.675  -3.237  0.00  0.00    +0.061 S 
ATOM     26  O   UNL     1      -5.244   8.742  -4.514  0.00  0.00    -0.153 OA
ATOM     27  O   UNL     1      -7.235   8.341  -3.073  0.00  0.00    -0.153 OA
BRANCH  25  28
ATOM     28  N   UNL     1      -5.649  10.157  -2.529  0.00  0.00    -0.177 NA
ATOM     29  C   UNL     1      -6.578  10.575  -1.502  0.00  0.00    +0.109 C 
ATOM     30  C   UNL     1      -7.771  11.314  -2.142  0.00  0.00    +0.017 C 
ATOM     31  C   UNL     1      -7.348  12.632  -2.639  0.00  0.00    +0.001 C 
ATOM     32  C   UNL     1      -6.297  12.580  -3.744  0.00  0.00    +0.001 C 
ATOM     33  C   UNL     1      -4.925  12.476  -3.125  0.00  0.00    +0.017 C 
ATOM     34  C   UNL     1      -4.522  10.998  -2.975  0.00  0.00    +0.109 C 
ENDBRANCH  25  28
ENDBRANCH  22  25
ENDBRANCH   3  19
TORSDOF 5
