REMARK  Name = ZINC06134664
REMARK  19 active torsions:
REMARK  status: ('A' for Active; 'I' for Inactive)
REMARK    1  A    between atoms: C_1  and  C_2
REMARK    2  A    between atoms: C_2  and  C_3
REMARK    3  A    between atoms: C_2  and  C_4
REMARK    4  A    between atoms: C_4  and  C_5
REMARK    5  A    between atoms: C_5  and  O_6
REMARK    6  A    between atoms: O_6  and  C_7
REMARK    7  A    between atoms: C_7  and  C_8
REMARK    8  A    between atoms: C_8  and  C_10
REMARK    9  A    between atoms: C_8  and  O_31
REMARK   10  A    between atoms: C_10  and  O_11
REMARK   11  A    between atoms: O_11  and  C_12
REMARK   12  A    between atoms: C_12  and  C_13
REMARK   13  A    between atoms: C_12  and  C_19
REMARK   14  A    between atoms: C_12  and  C_25
REMARK   15  A    between atoms: O_31  and  C_32
REMARK   16  A    between atoms: C_32  and  C_33
REMARK   17  A    between atoms: C_33  and  C_34
REMARK   18  A    between atoms: C_34  and  C_35
REMARK   19  A    between atoms: C_34  and  C_36
REMARK                            x       y       z     vdW  Elec       q    Type
REMARK                         _______ _______ _______ _____ _____    ______ ____
ROOT
ATOM      1  C   UNL     1       0.002  -0.004   0.002  0.00  0.00    +0.144 C 
ENDROOT
BRANCH   1   2
ATOM      2  C   UNL     1      -0.254   1.436  -0.360  0.00  0.00    -0.007 A 
ATOM      3  C   UNL     1      -1.548   1.881  -0.554  0.00  0.00    +0.007 A 
ATOM      4  C   UNL     1      -1.783   3.203  -0.881  0.00  0.00    +0.000 A 
ATOM      5  C   UNL     1      -0.722   4.079  -1.025  0.00  0.00    +0.000 A 
ATOM      6  C   UNL     1       0.572   3.632  -0.837  0.00  0.00    +0.000 A 
ATOM      7  C   UNL     1       0.807   2.311  -0.504  0.00  0.00    +0.007 A 
ENDBRANCH   1   2
BRANCH   1   8
ATOM      8  C   UNL     1      -1.147  -0.527   0.825  0.00  0.00    -0.007 A 
ATOM      9  C   UNL     1      -1.664  -1.783   0.572  0.00  0.00    +0.007 A 
ATOM     10  C   UNL     1      -2.715  -2.265   1.330  0.00  0.00    +0.000 A 
ATOM     11  C   UNL     1      -3.255  -1.485   2.335  0.00  0.00    +0.000 A 
ATOM     12  C   UNL     1      -2.742  -0.226   2.585  0.00  0.00    +0.000 A 
ATOM     13  C   UNL     1      -1.688   0.253   1.830  0.00  0.00    +0.007 A 
ENDBRANCH   1   8
BRANCH   1  14
ATOM     14  C   UNL     1       0.132  -0.823  -1.256  0.00  0.00    -0.007 A 
ATOM     15  C   UNL     1      -0.558  -0.453  -2.396  0.00  0.00    +0.007 A 
ATOM     16  C   UNL     1      -0.435  -1.202  -3.552  0.00  0.00    +0.000 A 
ATOM     17  C   UNL     1       0.370  -2.326  -3.565  0.00  0.00    +0.000 A 
ATOM     18  C   UNL     1       1.055  -2.699  -2.424  0.00  0.00    +0.000 A 
ATOM     19  C   UNL     1       0.936  -1.947  -1.269  0.00  0.00    +0.007 A 
ENDBRANCH   1  14
BRANCH   1  20
ATOM     20  O   UNL     1       1.211  -0.098   0.758  0.00  0.00    -0.357 OA
BRANCH  20  21
ATOM     21  C   UNL     1       1.193   0.647   1.978  0.00  0.00    +0.195 C 
BRANCH  21  22
ATOM     22  C   UNL     1       2.530   0.474   2.700  0.00  0.00    +0.169 C 
BRANCH  22  23
ATOM     23  C   UNL     1       2.559   1.369   3.941  0.00  0.00    +0.193 C 
BRANCH  23  24
ATOM     24  O   UNL     1       3.849   1.297   4.551  0.00  0.00    -0.377 OA
BRANCH  24  25
ATOM     25  C   UNL     1       3.982   2.100   5.726  0.00  0.00    +0.160 C 
BRANCH  25  26
ATOM     26  C   UNL     1       5.396   1.946   6.291  0.00  0.00    +0.031 C 
BRANCH  26  28
ATOM     27  C   UNL     1       4.607   2.274   8.639  0.00  0.00    +0.007 C 
ATOM     28  C   UNL     1       5.539   2.806   7.548  0.00  0.00    -0.015 C 
ATOM     29  C   UNL     1       6.986   2.750   8.042  0.00  0.00    +0.007 C 
ENDBRANCH  26  28
ENDBRANCH  25  26
ENDBRANCH  24  25
ENDBRANCH  23  24
ENDBRANCH  22  23
BRANCH  22  30
ATOM     30  O   UNL     1       2.687  -0.890   3.093  0.00  0.00    -0.372 OA
BRANCH  30  31
ATOM     31  C   UNL     1       4.046  -1.330   3.140  0.00  0.00    +0.160 C 
BRANCH  31  32
ATOM     32  C   UNL     1       4.094  -2.797   3.570  0.00  0.00    +0.031 C 
BRANCH  32  33
ATOM     33  C   UNL     1       5.549  -3.267   3.620  0.00  0.00    -0.015 C 
ATOM     34  C   UNL     1       5.605  -4.694   4.168  0.00  0.00    +0.007 C 
ATOM     35  C   UNL     1       6.143  -3.239   2.210  0.00  0.00    +0.007 C 
ENDBRANCH  32  33
ENDBRANCH  31  32
ENDBRANCH  30  31
ENDBRANCH  22  30
ENDBRANCH  21  22
ENDBRANCH  20  21
ENDBRANCH   1  20
TORSDOF 15
