REMARK  Name = ZINC36106140
REMARK  13 active torsions:
REMARK  status: ('A' for Active; 'I' for Inactive)
REMARK    1  A    between atoms: C_1  and  C_2
REMARK    2  A    between atoms: C_4  and  C_26
REMARK    3  A    between atoms: C_5  and  C_25
REMARK    4  A    between atoms: C_6  and  O_8
REMARK    5  A    between atoms: O_8  and  C_9
REMARK    6  A    between atoms: C_9  and  C_10
REMARK    7  A    between atoms: C_12  and  C_15
REMARK    8  A    between atoms: C_15  and  N_16
REMARK    9  A    between atoms: N_16  and  C_17
REMARK   10  A    between atoms: C_17  and  C_18
REMARK   11  A    between atoms: C_20  and  C_22
REMARK   12  A    between atoms: C_22  and  C_23
REMARK   13  A    between atoms: C_22  and  C_24
REMARK                            x       y       z     vdW  Elec       q    Type
REMARK                         _______ _______ _______ _____ _____    ______ ____
ROOT
ATOM      1  C   UNL     1      -1.139  -3.342   4.987  0.00  0.00    +0.116 A 
ATOM      2  N   UNL     1       0.070  -3.708   5.332  0.00  0.00    -0.244 NA
ATOM      3  C   UNL     1       0.284  -4.454   6.396  0.00  0.00    +0.066 A 
ATOM      4  C   UNL     1      -0.805  -4.825   7.117  0.00  0.00    +0.072 A 
ATOM      5  S   UNL     1      -2.104  -4.037   6.179  0.00  0.00    -0.077 S 
ENDROOT
BRANCH   1   6
ATOM      6  C   UNL     1      -1.564  -2.498   3.813  0.00  0.00    +0.291 C 
BRANCH   6   7
ATOM      7  O   UNL     1      -1.826  -3.342   2.690  0.00  0.00    -0.485 OA
BRANCH   7  13
ATOM      8  C   UNL     1      -2.906   0.760   0.276  0.00  0.00    +0.044 C 
ATOM      9  C   UNL     1      -2.760  -0.739   0.326  0.00  0.00    -0.047 A 
ATOM     10  C   UNL     1      -3.029  -1.498  -0.798  0.00  0.00    +0.007 A 
ATOM     11  C   UNL     1      -2.896  -2.873  -0.755  0.00  0.00    -0.044 A 
ATOM     12  C   UNL     1      -2.493  -3.493   0.412  0.00  0.00    -0.006 A 
ATOM     13  C   UNL     1      -2.222  -2.735   1.541  0.00  0.00    +0.124 A 
ATOM     14  C   UNL     1      -2.351  -1.354   1.493  0.00  0.00    +0.049 A 
ATOM     15  C   UNL     1      -2.349  -4.993   0.458  0.00  0.00    +0.048 C 
ATOM     16  C   UNL     1      -3.191  -3.697  -1.983  0.00  0.00    +0.044 C 
ENDBRANCH   7  13
ENDBRANCH   6   7
ENDBRANCH   1   6
BRANCH   3  17
ATOM     17  C   UNL     1       1.675  -4.877   6.796  0.00  0.00    +0.164 C 
BRANCH  17  18
ATOM     18  N   UNL     1       2.055  -6.075   6.043  0.00  0.00    -0.292 N 
ATOM     19  C   UNL     1       1.706  -7.295   6.497  0.00  0.00    +0.219 C 
ATOM     20  O   UNL     1       1.135  -7.406   7.561  0.00  0.00    -0.275 OA
BRANCH  19  21
ATOM     21  C   UNL     1       2.025  -8.522   5.681  0.00  0.00    +0.069 C 
ATOM     22  C   UNL     1       3.411  -9.043   6.065  0.00  0.00    +0.017 C 
ATOM     23  C   UNL     1       0.979  -9.604   5.957  0.00  0.00    +0.017 C 
ENDBRANCH  19  21
BRANCH  18  24
ATOM     24  C   UNL     1       2.816  -5.947   4.798  0.00  0.00    +0.135 C 
BRANCH  24  25
ATOM     25  C   UNL     1       4.288  -5.870   5.113  0.00  0.00    -0.016 C 
ATOM     26  C   UNL     1       5.122  -6.713   4.557  0.00  0.00    +0.005 C 
ENDBRANCH  24  25
ENDBRANCH  18  24
ENDBRANCH  17  18
ENDBRANCH   3  17
TORSDOF 8
