REMARK  Name = ZINC09320216
REMARK  3 active torsions:
REMARK  status: ('A' for Active; 'I' for Inactive)
REMARK    1  A    between atoms: C_6  and  N_7
REMARK    2  A    between atoms: C_13  and  C_16
REMARK    3  A    between atoms: C_24  and  N_28
REMARK                            x       y       z     vdW  Elec       q    Type
REMARK                         _______ _______ _______ _____ _____    ______ ____
ROOT
ATOM      1  N   UNL     1      13.475   2.327  -0.111  0.00  0.00    -0.269 N 
ATOM      2  C   UNL     1      12.328   3.034  -0.098  0.00  0.00    +0.310 C 
ATOM      3  O   UNL     1      12.362   4.249  -0.100  0.00  0.00    -0.252 OA
ATOM      4  N   UNL     1      11.142   2.394  -0.083  0.00  0.00    -0.248 N 
ATOM      5  C   UNL     1       9.960   3.122  -0.070  0.00  0.00    +0.166 A 
ATOM      6  N   UNL     1       8.716   2.688  -0.054  0.00  0.00    -0.220 NA
ATOM      7  C   UNL     1       7.708   3.562  -0.043  0.00  0.00    +0.135 A 
ATOM      8  C   UNL     1       7.991   4.903  -0.054  0.00  0.00    +0.081 A 
ATOM      9  S   UNL     1       9.728   4.892  -0.069  0.00  0.00    -0.060 S 
ATOM     10  H   UNL     1      13.450   1.360  -0.041  0.00  0.00    +0.156 HD
ATOM     11  H   UNL     1      11.114   1.424  -0.081  0.00  0.00    +0.158 HD
ENDROOT
BRANCH   7  12
ATOM     12  C   UNL     1       6.313   3.095  -0.026  0.00  0.00    +0.269 C 
ATOM     13  O   UNL     1       5.401   3.900  -0.017  0.00  0.00    -0.268 OA
ATOM     14  N   UNL     1       6.045   1.774  -0.021  0.00  0.00    -0.259 N 
ATOM     15  C   UNL     1       4.733   1.333  -0.004  0.00  0.00    +0.166 A 
ATOM     16  N   UNL     1       3.627   2.041   0.008  0.00  0.00    -0.225 NA
ATOM     17  C   UNL     1       2.402   1.472   0.023  0.00  0.00    +0.080 A 
ATOM     18  C   UNL     1       1.142   2.114   0.038  0.00  0.00    +0.031 A 
ATOM     19  C   UNL     1      -0.016   1.382   0.053  0.00  0.00    +0.035 A 
ATOM     20  C   UNL     1       0.003  -0.006   0.055  0.00  0.00    +0.127 A 
ATOM     21  C   UNL     1       1.218  -0.666   0.041  0.00  0.00    +0.050 A 
ATOM     22  C   UNL     1       2.383   0.059   0.026  0.00  0.00    +0.043 A 
ATOM     23  S   UNL     1       4.114  -0.343   0.006  0.00  0.00    -0.052 S 
ATOM     24  H   UNL     1       6.772   1.131  -0.028  0.00  0.00    +0.157 HD
BRANCH  20  25
ATOM     25  N   UNL     1      -1.264  -0.771   0.072  0.00  0.00    +0.056 N 
ATOM     26  O   UNL     1      -2.331  -0.183   0.085  0.00  0.00    -0.126 OA
ATOM     27  O   UNL     1      -1.240  -1.989   0.074  0.00  0.00    -0.126 OA
ENDBRANCH  20  25
ENDBRANCH   7  12
BRANCH   1  33
ATOM     28  C   UNL     1      15.747   2.402  -0.928  0.00  0.00    +0.026 A 
ATOM     29  C   UNL     1      16.956   3.060  -1.045  0.00  0.00    +0.040 A 
ATOM     30  C   UNL     1      17.133   4.297  -0.449  0.00  0.00    +0.124 A 
ATOM     31  C   UNL     1      16.096   4.881   0.259  0.00  0.00    +0.040 A 
ATOM     32  C   UNL     1      14.883   4.230   0.372  0.00  0.00    +0.026 A 
ATOM     33  C   UNL     1      14.704   2.989  -0.224  0.00  0.00    +0.035 A 
ATOM     34  F   UNL     1      18.318   4.936  -0.558  0.00  0.00    -0.205 F 
ENDBRANCH   1  33
TORSDOF 3
