REMARK  Name = ZINC63187825
REMARK  6 active torsions:
REMARK  status: ('A' for Active; 'I' for Inactive)
REMARK    1  A    between atoms: C_6  and  C_25
REMARK    2  A    between atoms: C_8  and  C_11
REMARK    3  A    between atoms: C_11  and  C_12
REMARK    4  A    between atoms: N_14  and  N_15
REMARK    5  A    between atoms: C_16  and  C_18
REMARK    6  A    between atoms: C_23  and  O_24
REMARK                            x       y       z     vdW  Elec       q    Type
REMARK                         _______ _______ _______ _____ _____    ______ ____
ROOT
ATOM      1  C   UNL     1       0.691  -3.186  -0.024  0.00  0.00    +0.131 C 
ENDROOT
BRANCH   1   8
ATOM      2  C   UNL     1       3.098  -1.157   3.315  0.00  0.00    +0.001 A 
ATOM      3  C   UNL     1       3.863  -0.068   2.874  0.00  0.00    +0.002 A 
ATOM      4  C   UNL     1       3.882   0.336   1.586  0.00  0.00    +0.026 A 
ATOM      5  C   UNL     1       3.107  -0.346   0.607  0.00  0.00    +0.043 A 
ATOM      6  N   UNL     1       2.960  -0.150  -0.680  0.00  0.00    -0.373 N 
ATOM      7  C   UNL     1       2.031  -1.158  -1.204  0.00  0.00    +0.144 C 
ATOM      8  C   UNL     1       1.632  -2.009  -0.018  0.00  0.00    -0.025 C 
ATOM      9  C   UNL     1       2.291  -1.499   1.047  0.00  0.00    -0.000 A 
ATOM     10  C   UNL     1       2.326  -1.874   2.466  0.00  0.00    +0.010 A 
ATOM     11  H   UNL     1       3.392   0.546  -1.200  0.00  0.00    +0.161 HD
BRANCH   7  12
ATOM     12  C   UNL     1       2.716  -2.005  -2.245  0.00  0.00    +0.016 A 
ATOM     13  C   UNL     1       2.222  -2.494  -3.409  0.00  0.00    +0.013 A 
ATOM     14  C   UNL     1       3.043  -3.255  -4.219  0.00  0.00    +0.008 A 
ATOM     15  C   UNL     1       4.318  -3.491  -3.826  0.00  0.00    +0.045 A 
ATOM     16  S   UNL     1       4.393  -2.617  -2.271  0.00  0.00    -0.099 S 
ENDBRANCH   7  12
ENDBRANCH   1   8
BRANCH   1  17
ATOM     17  C   UNL     1      -0.727  -2.695   0.117  0.00  0.00    +0.233 C 
ATOM     18  O   UNL     1      -0.960  -1.505   0.116  0.00  0.00    -0.274 OA
ATOM     19  N   UNL     1      -1.737  -3.579   0.244  0.00  0.00    -0.234 N 
ATOM     20  H   UNL     1      -1.551  -4.531   0.245  0.00  0.00    +0.173 HD
BRANCH  19  21
ATOM     21  N   UNL     1      -3.055  -3.123   0.376  0.00  0.00    -0.230 N 
ATOM     22  C   UNL     1      -4.064  -4.007   0.503  0.00  0.00    +0.264 C 
ATOM     23  O   UNL     1      -3.831  -5.200   0.504  0.00  0.00    -0.269 OA
ATOM     24  H   UNL     1      -3.241  -2.171   0.375  0.00  0.00    +0.173 HD
BRANCH  22  25
ATOM     25  C   UNL     1      -5.452  -3.527   0.641  0.00  0.00    +0.079 A 
ATOM     26  C   UNL     1      -5.726  -2.156   0.635  0.00  0.00    +0.017 A 
ATOM     27  C   UNL     1      -7.024  -1.714   0.764  0.00  0.00    +0.001 A 
ATOM     28  C   UNL     1      -8.062  -2.623   0.901  0.00  0.00    +0.004 A 
ATOM     29  C   UNL     1      -7.806  -3.979   0.909  0.00  0.00    +0.046 A 
ATOM     30  C   UNL     1      -6.505  -4.442   0.773  0.00  0.00    +0.129 A 
BRANCH  30  31
ATOM     31  O   UNL     1      -6.253  -5.775   0.775  0.00  0.00    -0.506 OA
ATOM     32  H   UNL     1      -6.085  -6.143   1.653  0.00  0.00    +0.292 HD
ENDBRANCH  30  31
ENDBRANCH  22  25
ENDBRANCH  19  21
ENDBRANCH   1  17
TORSDOF 6
