REMARK  Name = ZINC62640997
REMARK  5 active torsions:
REMARK  status: ('A' for Active; 'I' for Inactive)
REMARK    1  A    between atoms: C_1  and  C_2
REMARK    2  A    between atoms: C_2  and  C_3
REMARK    3  A    between atoms: C_2  and  N_9
REMARK    4  A    between atoms: C_3  and  C_4
REMARK    5  A    between atoms: C_16  and  C_18
REMARK                            x       y       z     vdW  Elec       q    Type
REMARK                         _______ _______ _______ _____ _____    ______ ____
ROOT
ATOM      1  N   UNL     1       0.688  -0.476  -1.203  0.00  0.00    -0.296 N 
ATOM      2  C   UNL     1       0.006  -0.608  -2.358  0.00  0.00    +0.306 C 
ATOM      3  O   UNL     1      -1.178  -0.335  -2.400  0.00  0.00    -0.252 OA
ATOM      4  N   UNL     1       0.637  -1.043  -3.467  0.00  0.00    -0.247 N 
ATOM      5  C   UNL     1      -0.066  -1.179  -4.660  0.00  0.00    +0.189 A 
ATOM      6  N   UNL     1      -1.341  -0.935  -4.929  0.00  0.00    -0.125 NA
ATOM      7  N   UNL     1      -1.826  -1.113  -6.079  0.00  0.00    -0.140 NA
ATOM      8  C   UNL     1      -1.089  -1.556  -7.090  0.00  0.00    +0.134 A 
ATOM      9  S   UNL     1       0.494  -1.724  -6.270  0.00  0.00    -0.030 S 
ATOM     10  H   UNL     1       1.632  -0.695  -1.170  0.00  0.00    +0.151 HD
ATOM     11  H   UNL     1       1.582  -1.261  -3.434  0.00  0.00    +0.158 HD
ENDROOT
BRANCH   8  12
ATOM     12  C   UNL     1      -1.465  -1.827  -8.494  0.00  0.00    +0.016 A 
ATOM     13  C   UNL     1      -2.769  -1.615  -8.936  0.00  0.00    +0.018 A 
ATOM     14  C   UNL     1      -3.074  -1.874 -10.227  0.00  0.00    +0.046 A 
ATOM     15  S   UNL     1      -1.511  -2.435 -10.882  0.00  0.00    -0.104 S 
ATOM     16  C   UNL     1      -0.539  -2.286  -9.392  0.00  0.00    +0.055 A 
ENDBRANCH   8  12
BRANCH   1  18
ATOM     17  C   UNL     1      -0.019   1.526   0.010  0.00  0.00    +0.028 C 
ATOM     18  C   UNL     1       0.002  -0.004   0.002  0.00  0.00    +0.079 C 
BRANCH  18  19
ATOM     19  C   UNL     1       0.742  -0.511   1.242  0.00  0.00    +0.096 C 
BRANCH  19  20
ATOM     20  C   UNL     1       0.657  -2.014   1.298  0.00  0.00    +0.107 A 
ATOM     21  C   UNL     1       1.536  -2.873   0.751  0.00  0.00    +0.045 A 
ATOM     22  C   UNL     1       1.072  -4.176   1.044  0.00  0.00    +0.041 A 
ATOM     23  C   UNL     1      -0.064  -4.036   1.751  0.00  0.00    +0.195 A 
ATOM     24  O   UNL     1      -0.307  -2.724   1.907  0.00  0.00    -0.468 OA
ENDBRANCH  19  20
ENDBRANCH  18  19
ENDBRANCH   1  18
TORSDOF 4
