REMARK  Name = ZINC05810432
REMARK  9 active torsions:
REMARK  status: ('A' for Active; 'I' for Inactive)
REMARK    1  A    between atoms: C_1  and  C_2
REMARK    2  A    between atoms: C_3  and  C_20
REMARK    3  A    between atoms: C_5  and  C_7
REMARK    4  A    between atoms: C_9  and  C_19
REMARK    5  A    between atoms: C_10  and  C_12
REMARK    6  A    between atoms: C_12  and  C_18
REMARK    7  A    between atoms: N_13  and  N_14
REMARK    8  A    between atoms: C_20  and  C_26
REMARK    9  A    between atoms: N_21  and  N_22
REMARK                            x       y       z     vdW  Elec       q    Type
REMARK                         _______ _______ _______ _____ _____    ______ ____
ROOT
ATOM      1  C   UNL     1      -2.099  -4.530  -0.080  0.00  0.00    +0.067 C 
ATOM      2  C   UNL     1      -2.163  -3.024  -0.055  0.00  0.00    +0.055 A 
ATOM      3  C   UNL     1      -3.391  -2.373  -0.036  0.00  0.00    +0.058 A 
ATOM      4  S   UNL     1      -2.856  -0.666  -0.013  0.00  0.00    -0.064 S 
ATOM      5  C   UNL     1      -1.097  -0.987  -0.030  0.00  0.00    +0.134 A 
ATOM      6  N   UNL     1      -1.068  -2.316  -0.057  0.00  0.00    -0.241 NA
ENDROOT
BRANCH   5   7
ATOM      7  C   UNL     1       0.020  -0.033  -0.023  0.00  0.00    +0.134 A 
ATOM      8  N   UNL     1      -0.009   1.296  -0.002  0.00  0.00    -0.241 NA
ATOM      9  C   UNL     1       1.086   2.004   0.002  0.00  0.00    +0.055 A 
ATOM     10  C   UNL     1       2.314   1.353  -0.017  0.00  0.00    +0.058 A 
ATOM     11  S   UNL     1       1.779  -0.354  -0.040  0.00  0.00    -0.064 S 
ATOM     12  C   UNL     1       1.021   3.510   0.025  0.00  0.00    +0.067 C 
BRANCH  10  13
ATOM     13  C   UNL     1       3.670   1.909  -0.018  0.00  0.00    +0.072 C 
ATOM     14  N   UNL     1       4.301   2.083  -1.142  0.00  0.00    -0.183 NA
ATOM     15  C   UNL     1       4.333   2.280   1.284  0.00  0.00    +0.068 C 
BRANCH  14  16
ATOM     16  N   UNL     1       3.647   1.843  -2.357  0.00  0.00    -0.191 N 
ATOM     17  C   UNL     1       4.329   1.922  -3.517  0.00  0.00    +0.317 C 
ATOM     18  O   UNL     1       3.760   1.713  -4.572  0.00  0.00    -0.251 OA
ATOM     19  N   UNL     1       5.640   2.231  -3.508  0.00  0.00    -0.312 N 
ATOM     20  H   UNL     1       2.703   1.620  -2.364  0.00  0.00    +0.179 HD
ATOM     21  H   UNL     1       6.093   2.398  -2.666  0.00  0.00    +0.147 HD
ATOM     22  H   UNL     1       6.131   2.288  -4.342  0.00  0.00    +0.147 HD
ENDBRANCH  14  16
ENDBRANCH  10  13
ENDBRANCH   5   7
BRANCH   3  23
ATOM     23  C   UNL     1      -4.747  -2.929  -0.036  0.00  0.00    +0.072 C 
ATOM     24  N   UNL     1      -4.921  -4.218  -0.056  0.00  0.00    -0.183 NA
ATOM     25  C   UNL     1      -5.940  -2.008  -0.013  0.00  0.00    +0.068 C 
BRANCH  24  26
ATOM     26  N   UNL     1      -6.218  -4.750  -0.056  0.00  0.00    -0.191 N 
ATOM     27  C   UNL     1      -6.398  -6.086  -0.077  0.00  0.00    +0.317 C 
ATOM     28  O   UNL     1      -7.523  -6.547  -0.077  0.00  0.00    -0.251 OA
ATOM     29  N   UNL     1      -5.331  -6.909  -0.097  0.00  0.00    -0.312 N 
ATOM     30  H   UNL     1      -6.985  -4.157  -0.041  0.00  0.00    +0.179 HD
ATOM     31  H   UNL     1      -4.434  -6.541  -0.097  0.00  0.00    +0.147 HD
ATOM     32  H   UNL     1      -5.461  -7.870  -0.112  0.00  0.00    +0.147 HD
ENDBRANCH  24  26
ENDBRANCH   3  23
TORSDOF 5
