REMARK  Name = ZINC39710737
REMARK  15 active torsions:
REMARK  status: ('A' for Active; 'I' for Inactive)
REMARK    1  A    between atoms: C_1  and  C_2
REMARK    2  A    between atoms: C_2  and  O_3
REMARK    3  A    between atoms: O_3  and  C_4
REMARK    4  A    between atoms: C_7  and  C_10
REMARK    5  A    between atoms: C_10  and  N_11
REMARK    6  A    between atoms: N_11  and  C_12
REMARK    7  A    between atoms: N_11  and  C_18
REMARK    8  A    between atoms: C_12  and  C_13
REMARK    9  A    between atoms: C_18  and  C_20
REMARK   10  A    between atoms: C_18  and  C_29
REMARK   11  A    between atoms: N_24  and  C_25
REMARK   12  A    between atoms: C_25  and  C_26
REMARK   13  A    between atoms: C_26  and  O_27
REMARK   14  A    between atoms: O_27  and  C_28
REMARK   15  A    between atoms: C_35  and  C_41
REMARK                            x       y       z     vdW  Elec       q    Type
REMARK                         _______ _______ _______ _____ _____    ______ ____
ROOT
ATOM      1  C   UNL     1       2.799  -7.366   1.071  0.00  0.00    +0.019 C 
ENDROOT
BRANCH   1   2
ATOM      2  C   UNL     1       2.833  -7.827   2.530  0.00  0.00    +0.092 C 
ATOM      3  C   UNL     1       2.718  -9.338   2.543  0.00  0.00    -0.006 C 
ATOM      4  C   UNL     1       1.678  -9.880   3.239  0.00  0.00    -0.007 A 
ATOM      5  C   UNL     1       1.492 -11.330   3.303  0.00  0.00    +0.010 A 
ATOM      6  C   UNL     1       0.441 -11.825   4.008  0.00  0.00    +0.004 A 
ATOM      7  C   UNL     1      -0.455 -10.981   4.664  0.00  0.00    -0.049 A 
ATOM      8  C   UNL     1      -0.338  -9.627   4.642  0.00  0.00    +0.027 A 
ATOM      9  C   UNL     1       0.717  -9.013   3.942  0.00  0.00    +0.041 A 
ATOM     10  N   UNL     1       0.822  -7.684   3.928  0.00  0.00    -0.285 N 
ATOM     11  C   UNL     1       1.786  -7.044   3.289  0.00  0.00    +0.223 C 
ATOM     12  O   UNL     1       1.829  -5.828   3.312  0.00  0.00    -0.275 OA
ATOM     13  C   UNL     1      -1.600 -11.595   5.428  0.00  0.00    +0.044 C 
ATOM     14  H   UNL     1       0.161  -7.163   4.410  0.00  0.00    +0.155 HD
ENDBRANCH   1   2
BRANCH   1  15
ATOM     15  C   UNL     1       3.707  -8.241   0.246  0.00  0.00    +0.139 A 
ATOM     16  N   UNL     1       4.967  -8.016  -0.035  0.00  0.00    -0.115 NA
ATOM     17  N   UNL     1       5.393  -8.992  -0.761  0.00  0.00    -0.023 NA
ATOM     18  N   UNL     1       4.438  -9.834  -0.949  0.00  0.00    -0.044 NA
ATOM     19  N   UNL     1       3.383  -9.409  -0.339  0.00  0.00    -0.229 N 
BRANCH  19  20
ATOM     20  C   UNL     1       2.077 -10.072  -0.296  0.00  0.00    +0.175 C 
BRANCH  20  21
ATOM     21  C   UNL     1       1.278  -9.707  -1.549  0.00  0.00    +0.183 C 
BRANCH  21  22
ATOM     22  O   UNL     1       0.072 -10.473  -1.584  0.00  0.00    -0.381 OA
ATOM     23  C   UNL     1      -0.752 -10.207  -2.721  0.00  0.00    +0.194 C 
ENDBRANCH  21  22
ENDBRANCH  20  21
ENDBRANCH  19  20
ENDBRANCH   1  15
BRANCH   1  24
ATOM     24  N   UNL     1       3.254  -5.972   0.987  0.00  0.00    +0.394 N 
ATOM     25  H   UNL     1       2.763  -5.416   1.672  0.00  0.00    -0.080 HD
BRANCH  24  26
ATOM     26  C   UNL     1       2.979  -5.447  -0.357  0.00  0.00    -0.041 C 
BRANCH  26  30
ATOM     27  C   UNL     1       5.513  -7.399  -3.192  0.00  0.00    +0.121 A 
ATOM     28  C   UNL     1       4.238  -7.889  -2.946  0.00  0.00    +0.046 A 
ATOM     29  C   UNL     1       3.421  -7.257  -2.029  0.00  0.00    +0.005 A 
ATOM     30  C   UNL     1       3.873  -6.136  -1.357  0.00  0.00    -0.064 A 
ATOM     31  C   UNL     1       5.142  -5.646  -1.600  0.00  0.00    +0.005 A 
ATOM     32  C   UNL     1       5.965  -6.278  -2.512  0.00  0.00    +0.046 A 
BRANCH  27  33
ATOM     33  O   UNL     1       6.318  -8.020  -4.093  0.00  0.00    -0.492 OA
BRANCH  33  35
ATOM     34  C   UNL     1       6.756  -9.585  -5.882  0.00  0.00    +0.048 C 
ATOM     35  C   UNL     1       5.747  -9.095  -4.841  0.00  0.00    +0.225 C 
ENDBRANCH  33  35
ENDBRANCH  27  33
ENDBRANCH  26  30
ENDBRANCH  24  26
BRANCH  24  36
ATOM     36  C   UNL     1       4.697  -5.911   1.252  0.00  0.00    -0.002 C 
BRANCH  36  37
ATOM     37  C   UNL     1       5.107  -4.478   1.476  0.00  0.00    +0.089 A 
ATOM     38  C   UNL     1       5.236  -3.875   2.672  0.00  0.00    +0.042 A 
ATOM     39  C   UNL     1       5.635  -2.543   2.417  0.00  0.00    +0.041 A 
ATOM     40  C   UNL     1       5.727  -2.412   1.082  0.00  0.00    +0.195 A 
ATOM     41  O   UNL     1       5.412  -3.589   0.517  0.00  0.00    -0.470 OA
ENDBRANCH  36  37
ENDBRANCH  24  36
ENDBRANCH   1  24
TORSDOF 12
