REMARK  Name = ZINC06577073
REMARK  8 active torsions:
REMARK  status: ('A' for Active; 'I' for Inactive)
REMARK    1  A    between atoms: C_1  and  C_2
REMARK    2  A    between atoms: C_7  and  S_11
REMARK    3  A    between atoms: S_11  and  N_14
REMARK    4  A    between atoms: N_14  and  C_15
REMARK    5  A    between atoms: C_15  and  C_17
REMARK    6  A    between atoms: C_15  and  C_20
REMARK    7  A    between atoms: C_17  and  C_18
REMARK    8  A    between atoms: C_17  and  C_19
REMARK                            x       y       z     vdW  Elec       q    Type
REMARK                         _______ _______ _______ _____ _____    ______ ____
ROOT
ATOM      1  C   UNL     1       2.579  -6.363   1.229  0.00  0.00    +0.165 C 
ENDROOT
BRANCH   1   2
ATOM      2  C   UNL     1       3.952  -5.962   0.756  0.00  0.00    +0.241 C 
ATOM      3  O   UNL     1       4.489  -6.578  -0.139  0.00  0.00    -0.273 OA
ATOM      4  N   UNL     1       4.584  -4.918   1.329  0.00  0.00    -0.239 N 
ATOM      5  C   UNL     1       5.867  -4.357   0.893  0.00  0.00    +0.138 C 
ATOM      6  C   UNL     1       6.133  -3.200   1.870  0.00  0.00    +0.144 C 
ATOM      7  N   UNL     1       4.977  -3.204   2.777  0.00  0.00    -0.310 N 
ATOM      8  C   UNL     1       4.120  -4.199   2.422  0.00  0.00    +0.206 A 
ATOM      9  N   UNL     1       3.083  -4.190   3.238  0.00  0.00    -0.214 NA
ATOM     10  C   UNL     1       3.220  -3.194   4.147  0.00  0.00    +0.091 A 
ATOM     11  C   UNL     1       4.438  -2.551   3.873  0.00  0.00    +0.070 A 
ATOM     12  C   UNL     1       4.847  -1.478   4.650  0.00  0.00    +0.028 A 
ATOM     13  C   UNL     1       4.062  -1.055   5.703  0.00  0.00    +0.002 A 
ATOM     14  C   UNL     1       2.865  -1.696   5.989  0.00  0.00    +0.002 A 
ATOM     15  C   UNL     1       2.433  -2.749   5.213  0.00  0.00    +0.030 A 
ENDBRANCH   1   2
BRANCH   1  16
ATOM     16  C   UNL     1       2.707  -7.306   2.427  0.00  0.00    +0.010 C 
ATOM     17  C   UNL     1       1.316  -7.616   2.983  0.00  0.00    +0.009 C 
ATOM     18  C   UNL     1       3.380  -8.607   1.983  0.00  0.00    +0.009 C 
ENDBRANCH   1  16
BRANCH   1  19
ATOM     19  N   UNL     1       1.869  -7.046   0.144  0.00  0.00    -0.178 NA
ATOM     20  H   UNL     1       2.252  -7.839  -0.262  0.00  0.00    +0.149 HD
BRANCH  19  21
ATOM     21  S   UNL     1       0.414  -6.463  -0.389  0.00  0.00    +0.059 S 
ATOM     22  O   UNL     1      -0.365  -6.196   0.768  0.00  0.00    -0.153 OA
ATOM     23  O   UNL     1      -0.024  -7.341  -1.417  0.00  0.00    -0.153 OA
BRANCH  21  30
ATOM     24  C   UNL     1       1.573   1.293  -2.342  0.00  0.00    +0.073 C 
ATOM     25  C   UNL     1       1.364  -0.163  -2.016  0.00  0.00    +0.076 A 
ATOM     26  N   UNL     1       1.433  -1.180  -2.825  0.00  0.00    -0.244 NA
ATOM     27  C   UNL     1       1.225  -2.446  -2.408  0.00  0.00    +0.079 A 
ATOM     28  C   UNL     1       1.258  -3.655  -3.133  0.00  0.00    +0.031 A 
ATOM     29  C   UNL     1       1.014  -4.841  -2.512  0.00  0.00    +0.030 A 
ATOM     30  C   UNL     1       0.726  -4.907  -1.156  0.00  0.00    +0.106 A 
ATOM     31  C   UNL     1       0.684  -3.743  -0.412  0.00  0.00    +0.045 A 
ATOM     32  C   UNL     1       0.929  -2.541  -1.029  0.00  0.00    +0.041 A 
ATOM     33  S   UNL     1       0.995  -0.842  -0.521  0.00  0.00    -0.072 S 
ENDBRANCH  21  30
ENDBRANCH  19  21
ENDBRANCH   1  19
TORSDOF 5
