REMARK  Name = ZINC66161210
REMARK  10 active torsions:
REMARK  status: ('A' for Active; 'I' for Inactive)
REMARK    1  A    between atoms: C_1  and  C_2
REMARK    2  A    between atoms: C_2  and  C_3
REMARK    3  A    between atoms: C_3  and  C_4
REMARK    4  A    between atoms: C_3  and  C_5
REMARK    5  A    between atoms: C_3  and  O_25
REMARK    6  A    between atoms: C_5  and  N_6
REMARK    7  A    between atoms: N_9  and  C_10
REMARK    8  A    between atoms: C_13  and  C_17
REMARK    9  A    between atoms: C_15  and  C_16
REMARK   10  A    between atoms: N_19  and  C_20
REMARK                            x       y       z     vdW  Elec       q    Type
REMARK                         _______ _______ _______ _____ _____    ______ ____
ROOT
ATOM      1  C   UNL     1      -4.465  -5.739   0.257  0.00  0.00    +0.038 A 
ATOM      2  C   UNL     1      -3.365  -6.585   0.358  0.00  0.00    +0.024 A 
ATOM      3  C   UNL     1      -3.542  -7.950   0.368  0.00  0.00    +0.015 A 
ATOM      4  C   UNL     1      -4.830  -8.486   0.277  0.00  0.00    +0.037 A 
ATOM      5  C   UNL     1      -5.933  -7.634   0.175  0.00  0.00    +0.018 A 
ATOM      6  C   UNL     1      -5.748  -6.269   0.171  0.00  0.00    -0.028 A 
ATOM      7  C   UNL     1      -6.937  -5.349   0.067  0.00  0.00    +0.045 C 
ENDROOT
BRANCH   1  11
ATOM      8  N   UNL     1      -2.949  -2.497   0.709  0.00  0.00    -0.296 N 
ATOM      9  C   UNL     1      -3.184  -3.819   0.817  0.00  0.00    +0.304 C 
ATOM     10  O   UNL     1      -2.407  -4.527   1.428  0.00  0.00    -0.253 OA
ATOM     11  N   UNL     1      -4.281  -4.357   0.247  0.00  0.00    -0.269 N 
ATOM     12  H   UNL     1      -3.569  -1.932   0.222  0.00  0.00    +0.150 HD
ATOM     13  H   UNL     1      -4.942  -3.783  -0.170  0.00  0.00    +0.156 HD
BRANCH   8  14
ATOM     14  C   UNL     1      -1.757  -1.912   1.329  0.00  0.00    +0.140 C 
BRANCH  14  15
ATOM     15  C   UNL     1      -1.729  -0.406   1.059  0.00  0.00    +0.078 C 
ATOM     16  C   UNL     1      -2.982   0.242   1.653  0.00  0.00    +0.043 C 
BRANCH  15  18
ATOM     17  C   UNL     1      -0.520   1.726   1.544  0.00  0.00    +0.007 C 
ATOM     18  C   UNL     1      -0.485   0.205   1.706  0.00  0.00    +0.032 C 
ENDBRANCH  15  18
BRANCH  15  19
ATOM     19  O   UNL     1      -1.696  -0.175  -0.350  0.00  0.00    -0.387 OA
ATOM     20  H   UNL     1      -0.926  -0.558  -0.794  0.00  0.00    +0.210 HD
ENDBRANCH  15  19
ENDBRANCH  14  15
ENDBRANCH   8  14
ENDBRANCH   1  11
BRANCH   4  21
ATOM     21  C   UNL     1      -5.025  -9.949   0.287  0.00  0.00    +0.244 C 
ATOM     22  O   UNL     1      -6.145 -10.414   0.207  0.00  0.00    -0.270 OA
ATOM     23  N   UNL     1      -3.960 -10.770   0.384  0.00  0.00    -0.308 N 
ATOM     24  H   UNL     1      -3.066 -10.399   0.448  0.00  0.00    +0.149 HD
BRANCH  23  25
ATOM     25  C   UNL     1      -4.153 -12.222   0.394  0.00  0.00    +0.073 C 
ATOM     26  C   UNL     1      -4.390 -12.714   1.837  0.00  0.00    +0.022 C 
ATOM     27  C   UNL     1      -3.658 -14.077   1.898  0.00  0.00    +0.002 C 
ATOM     28  C   UNL     1      -2.388 -13.822   1.048  0.00  0.00    +0.002 C 
ATOM     29  C   UNL     1      -2.880 -12.926  -0.107  0.00  0.00    +0.022 C 
ENDBRANCH  23  25
ENDBRANCH   4  21
TORSDOF 7
