REMARK  Name = ZINC49377733
REMARK  5 active torsions:
REMARK  status: ('A' for Active; 'I' for Inactive)
REMARK    1  A    between atoms: C_1  and  C_2
REMARK    2  A    between atoms: C_12  and  C_14
REMARK    3  A    between atoms: C_14  and  N_15
REMARK    4  A    between atoms: C_18  and  C_21
REMARK    5  A    between atoms: C_24  and  C_26
REMARK                            x       y       z     vdW  Elec       q    Type
REMARK                         _______ _______ _______ _____ _____    ______ ____
ROOT
ATOM      1  N   UNL     1       0.127  -9.257  -0.358  0.00  0.00    +0.385 N 
ATOM      2  C   UNL     1       1.371  -8.992  -1.091  0.00  0.00    -0.077 C 
ATOM      3  C   UNL     1       1.346  -9.731  -2.431  0.00  0.00    -0.006 C 
ATOM      4  C   UNL     1       1.212 -11.235  -2.176  0.00  0.00    +0.073 C 
ATOM      5  C   UNL     1      -0.050 -11.492  -1.347  0.00  0.00    -0.006 C 
ATOM      6  C   UNL     1       0.027 -10.688  -0.048  0.00  0.00    -0.077 C 
ATOM      7  H   UNL     1      -0.660  -8.982  -0.926  0.00  0.00    -0.081 HD
ENDROOT
BRANCH   4   8
ATOM      8  C   UNL     1       1.108 -11.962  -3.492  0.00  0.00    +0.221 A 
ATOM      9  N   UNL     1       0.187 -11.786  -4.397  0.00  0.00    -0.112 NA
ATOM     10  N   UNL     1       0.406 -12.572  -5.392  0.00  0.00    -0.107 NA
ATOM     11  C   UNL     1       1.484 -13.282  -5.153  0.00  0.00    +0.248 A 
ATOM     12  O   UNL     1       1.952 -12.905  -3.947  0.00  0.00    -0.420 OA
BRANCH  11  13
ATOM     13  C   UNL     1       2.077 -14.302  -6.044  0.00  0.00    +0.039 A 
ATOM     14  C   UNL     1       3.229 -14.988  -5.654  0.00  0.00    +0.016 A 
ATOM     15  C   UNL     1       3.778 -15.938  -6.489  0.00  0.00    +0.039 A 
ATOM     16  C   UNL     1       3.188 -16.214  -7.712  0.00  0.00    +0.123 A 
ATOM     17  C   UNL     1       2.044 -15.536  -8.104  0.00  0.00    +0.039 A 
ATOM     18  C   UNL     1       1.484 -14.588  -7.274  0.00  0.00    +0.016 A 
ATOM     19  F   UNL     1       3.730 -17.146  -8.526  0.00  0.00    -0.205 F 
ENDBRANCH  11  13
ENDBRANCH   4   8
BRANCH   1  20
ATOM     20  C   UNL     1       0.122  -8.485   0.891  0.00  0.00    +0.019 C 
BRANCH  20  32
ATOM     21  C   UNL     1      -0.018   1.503   0.010  0.00  0.00    +0.044 C 
ATOM     22  C   UNL     1       0.002  -0.004   0.002  0.00  0.00    -0.049 A 
ATOM     23  C   UNL     1       0.006  -0.698  -1.199  0.00  0.00    +0.005 A 
ATOM     24  C   UNL     1       0.024  -2.068  -1.235  0.00  0.00    +0.029 A 
ATOM     25  C   UNL     1       0.040  -2.822  -0.038  0.00  0.00    +0.080 A 
ATOM     26  C   UNL     1       0.036  -2.081   1.166  0.00  0.00    +0.041 A 
ATOM     27  C   UNL     1       0.023  -0.709   1.191  0.00  0.00    +0.020 A 
ATOM     28  S   UNL     1       0.059  -3.361   2.397  0.00  0.00    -0.052 S 
ATOM     29  C   UNL     1       0.073  -4.752   1.275  0.00  0.00    +0.165 A 
ATOM     30  N   UNL     1       0.059  -4.165   0.101  0.00  0.00    -0.225 NA
ATOM     31  N   UNL     1       0.093  -6.106   1.569  0.00  0.00    -0.266 N 
ATOM     32  C   UNL     1       0.101  -7.012   0.571  0.00  0.00    +0.202 C 
ATOM     33  O   UNL     1       0.090  -6.643  -0.584  0.00  0.00    -0.277 OA
ATOM     34  H   UNL     1       0.101  -6.402   2.493  0.00  0.00    +0.157 HD
ENDBRANCH  20  32
ENDBRANCH   1  20
TORSDOF 4
