REMARK  Name = ZINC35564811
REMARK  6 active torsions:
REMARK  status: ('A' for Active; 'I' for Inactive)
REMARK    1  A    between atoms: C_1  and  O_2
REMARK    2  A    between atoms: O_2  and  C_3
REMARK    3  A    between atoms: C_6  and  C_9
REMARK    4  A    between atoms: C_9  and  N_10
REMARK    5  A    between atoms: C_23  and  C_25
REMARK    6  A    between atoms: C_25  and  N_26
REMARK                            x       y       z     vdW  Elec       q    Type
REMARK                         _______ _______ _______ _____ _____    ______ ____
ROOT
ATOM      1  N   UNL     1      -5.054  -2.826  -1.520  0.00  0.00    +0.383 N 
ATOM      2  C   UNL     1      -6.409  -3.294  -1.236  0.00  0.00    -0.077 C 
ATOM      3  C   UNL     1      -7.327  -2.881  -2.365  0.00  0.00    +0.000 C 
ATOM      4  C   UNL     1      -7.420  -4.022  -3.394  0.00  0.00    +0.106 C 
ATOM      5  N   UNL     1      -6.105  -4.662  -3.598  0.00  0.00    -0.303 N 
ATOM      6  C   UNL     1      -4.878  -3.898  -3.693  0.00  0.00    +0.089 C 
ATOM      7  C   UNL     1      -4.265  -3.715  -2.284  0.00  0.00    -0.059 C 
ATOM      8  C   UNL     1      -6.044  -6.026  -3.701  0.00  0.00    +0.198 A 
ATOM      9  N   UNL     1      -4.830  -6.637  -3.771  0.00  0.00    -0.295 N 
ATOM     10  H   UNL     1      -4.017  -6.108  -3.747  0.00  0.00    +0.172 HD
ATOM     11  C   UNL     1      -4.762  -7.981  -3.872  0.00  0.00    +0.253 A 
ATOM     12  O   UNL     1      -3.682  -8.546  -3.936  0.00  0.00    -0.268 OA
ATOM     13  C   UNL     1      -5.959  -8.719  -3.904  0.00  0.00    +0.094 A 
ATOM     14  C   UNL     1      -7.147  -8.051  -3.830  0.00  0.00    +0.064 A 
ATOM     15  N   UNL     1      -7.161  -6.724  -3.726  0.00  0.00    -0.219 NA
ATOM     16  H   UNL     1      -5.120  -1.951  -2.018  0.00  0.00    -0.081 HD
ENDROOT
BRANCH   1  17
ATOM     17  C   UNL     1      -4.371  -2.581  -0.243  0.00  0.00    -0.043 C 
BRANCH  17  21
ATOM     18  C   UNL     1      -0.687  -0.540  -0.966  0.00  0.00    +0.120 A 
ATOM     19  C   UNL     1      -1.851   0.183  -0.749  0.00  0.00    +0.046 A 
ATOM     20  C   UNL     1      -3.040  -0.479  -0.516  0.00  0.00    +0.005 A 
ATOM     21  C   UNL     1      -3.072  -1.861  -0.498  0.00  0.00    -0.064 A 
ATOM     22  C   UNL     1      -1.913  -2.584  -0.714  0.00  0.00    +0.005 A 
ATOM     23  C   UNL     1      -0.722  -1.927  -0.954  0.00  0.00    +0.046 A 
BRANCH  18  25
ATOM     24  C   UNL     1       0.447   1.537  -1.195  0.00  0.00    +0.277 C 
ATOM     25  O   UNL     1       0.485   0.108  -1.197  0.00  0.00    -0.495 OA
ENDBRANCH  18  25
ENDBRANCH  17  21
ENDBRANCH   1  17
BRANCH  14  26
ATOM     26  C   UNL     1      -8.444  -8.818  -3.862  0.00  0.00    +0.140 C 
BRANCH  26  27
ATOM     27  N   UNL     1      -9.138  -8.658  -2.577  0.00  0.00    -0.292 NA
ATOM     28  C   UNL     1     -10.298  -9.560  -2.489  0.00  0.00    +0.090 C 
ATOM     29  C   UNL     1     -10.753  -9.624  -1.031  0.00  0.00    +0.051 C 
ATOM     30  C   UNL     1     -10.916  -8.230  -0.481  0.00  0.00    -0.042 A 
ATOM     31  C   UNL     1     -11.651  -8.060   0.682  0.00  0.00    +0.004 A 
ATOM     32  C   UNL     1     -11.821  -6.801   1.222  0.00  0.00    +0.000 A 
ATOM     33  C   UNL     1     -11.256  -5.704   0.599  0.00  0.00    +0.000 A 
ATOM     34  C   UNL     1     -10.525  -5.872  -0.560  0.00  0.00    +0.005 A 
ATOM     35  C   UNL     1     -10.355  -7.136  -1.105  0.00  0.00    -0.030 A 
ATOM     36  C   UNL     1      -9.559  -7.268  -2.377  0.00  0.00    +0.120 C 
ENDBRANCH  26  27
ENDBRANCH  14  26
TORSDOF 5
