REMARK  Name = ZINC43772188
REMARK  19 active torsions:
REMARK  status: ('A' for Active; 'I' for Inactive)
REMARK    1  A    between atoms: C_1  and  C_2
REMARK    2  A    between atoms: C_2  and  C_3
REMARK    3  A    between atoms: C_3  and  C_4
REMARK    4  A    between atoms: C_4  and  C_5
REMARK    5  A    between atoms: C_5  and  C_6
REMARK    6  A    between atoms: C_6  and  C_8
REMARK    7  A    between atoms: C_6  and  O_31
REMARK    8  A    between atoms: C_9  and  C_10
REMARK    9  A    between atoms: C_12  and  O_30
REMARK   10  A    between atoms: C_15  and  O_29
REMARK   11  A    between atoms: C_17  and  C_19
REMARK   12  A    between atoms: C_19  and  C_20
REMARK   13  A    between atoms: C_21  and  C_22
REMARK   14  A    between atoms: C_22  and  C_23
REMARK   15  A    between atoms: C_23  and  C_24
REMARK   16  A    between atoms: C_24  and  C_25
REMARK   17  A    between atoms: C_25  and  N_26
REMARK   18  A    between atoms: N_26  and  C_27
REMARK   19  A    between atoms: N_26  and  C_28
REMARK                            x       y       z     vdW  Elec       q    Type
REMARK                         _______ _______ _______ _____ _____    ______ ____
ROOT
ATOM      1  C   UNL     1      -6.361  -5.940  -1.221  0.00  0.00    +0.046 C 
ATOM      2  C   UNL     1      -7.242  -5.533  -2.428  0.00  0.00    +0.124 C 
ATOM      3  C   UNL     1      -8.346  -6.620  -2.428  0.00  0.00    +0.063 C 
ATOM      4  C   UNL     1      -7.603  -7.914  -2.038  0.00  0.00    +0.121 C 
ATOM      5  C   UNL     1      -6.340  -7.482  -1.267  0.00  0.00    +0.031 C 
ENDROOT
BRANCH   2   6
ATOM      6  O   UNL     1      -7.805  -4.235  -2.230  0.00  0.00    -0.391 OA
ATOM      7  H   UNL     1      -8.365  -3.933  -2.958  0.00  0.00    +0.210 HD
ENDBRANCH   2   6
BRANCH   4   8
ATOM      8  O   UNL     1      -8.433  -8.722  -1.201  0.00  0.00    -0.391 OA
ATOM      9  H   UNL     1      -9.255  -9.009  -1.622  0.00  0.00    +0.210 HD
ENDBRANCH   4   8
BRANCH   1  11
ATOM     10  C   UNL     1      -4.461  -4.619  -0.444  0.00  0.00    -0.000 C 
ATOM     11  C   UNL     1      -4.967  -5.389  -1.375  0.00  0.00    -0.022 C 
BRANCH  10  12
ATOM     12  C   UNL     1      -3.067  -4.068  -0.598  0.00  0.00    +0.137 C 
BRANCH  12  13
ATOM     13  O   UNL     1      -2.253  -4.518   0.487  0.00  0.00    -0.388 OA
ATOM     14  H   UNL     1      -2.573  -4.245   1.358  0.00  0.00    +0.210 HD
ENDBRANCH  12  13
BRANCH  12  15
ATOM     15  C   UNL     1      -3.120  -2.539  -0.596  0.00  0.00    +0.035 C 
BRANCH  15  16
ATOM     16  C   UNL     1      -1.724  -1.980  -0.877  0.00  0.00    +0.003 C 
BRANCH  16  17
ATOM     17  C   UNL     1      -1.777  -0.451  -0.874  0.00  0.00    -0.000 C 
BRANCH  17  19
ATOM     18  C   UNL     1      -0.434   1.638  -1.152  0.00  0.00    +0.004 C 
ATOM     19  C   UNL     1      -0.381   0.109  -1.155  0.00  0.00    -0.003 C 
ENDBRANCH  17  19
ENDBRANCH  16  17
ENDBRANCH  15  16
ENDBRANCH  12  15
ENDBRANCH  10  12
ENDBRANCH   1  11
BRANCH   5  20
ATOM     20  C   UNL     1      -6.370  -8.049   0.154  0.00  0.00    +0.033 C 
BRANCH  20  21
ATOM     21  C   UNL     1      -6.226  -9.548   0.100  0.00  0.00    -0.031 C 
ATOM     22  C   UNL     1      -5.308 -10.144   0.820  0.00  0.00    -0.031 C 
BRANCH  22  23
ATOM     23  C   UNL     1      -4.512  -9.356   1.829  0.00  0.00    +0.027 C 
BRANCH  23  24
ATOM     24  C   UNL     1      -4.607 -10.035   3.196  0.00  0.00    +0.002 C 
BRANCH  24  25
ATOM     25  C   UNL     1      -3.799  -9.236   4.220  0.00  0.00    -0.018 C 
BRANCH  25  26
ATOM     26  C   UNL     1      -3.893  -9.915   5.588  0.00  0.00    -0.080 C 
BRANCH  26  27
ATOM     27  N   UNL     1      -3.117  -9.147   6.570  0.00  0.00    +0.376 N 
ATOM     28  C   UNL     1      -3.304  -9.730   7.906  0.00  0.00    -0.097 C 
ATOM     29  C   UNL     1      -1.693  -9.191   6.212  0.00  0.00    -0.097 C 
ATOM     30  H   UNL     1      -3.434  -8.189   6.574  0.00  0.00    -0.083 HD
ENDBRANCH  26  27
ENDBRANCH  25  26
ENDBRANCH  24  25
ENDBRANCH  23  24
ENDBRANCH  22  23
ENDBRANCH  20  21
ENDBRANCH   5  20
TORSDOF 16
