REMARK  Name = ZINC13633671
REMARK  9 active torsions:
REMARK  status: ('A' for Active; 'I' for Inactive)
REMARK    1  A    between atoms: C_1  and  C_2
REMARK    2  A    between atoms: C_2  and  O_3
REMARK    3  A    between atoms: O_3  and  C_4
REMARK    4  A    between atoms: C_4  and  C_6
REMARK    5  A    between atoms: C_10  and  N_11
REMARK    6  A    between atoms: C_12  and  C_14
REMARK    7  A    between atoms: N_16  and  O_17
REMARK    8  A    between atoms: O_17  and  C_18
REMARK    9  A    between atoms: C_18  and  C_20
REMARK                            x       y       z     vdW  Elec       q    Type
REMARK                         _______ _______ _______ _____ _____    ______ ____
ROOT
ATOM      1  C   UNL     1      -1.405   5.093   2.399  0.00  0.00    +0.091 A 
ATOM      2  C   UNL     1      -2.478   5.795   1.840  0.00  0.00    -0.015 A 
ATOM      3  C   UNL     1      -2.419   7.162   1.978  0.00  0.00    +0.042 A 
ATOM      4  S   UNL     1      -0.913   7.460   2.849  0.00  0.00    -0.071 S 
ATOM      5  C   UNL     1      -0.388   5.815   3.026  0.00  0.00    +0.087 A 
ATOM      6  C   UNL     1      -3.424   8.092   1.477  0.00  0.00    +0.095 C 
ATOM      7  N   UNL     1      -3.422   9.354   1.784  0.00  0.00    -0.078 NA
ATOM      8  C   UNL     1      -4.477   7.472   0.566  0.00  0.00    +0.060 C 
ATOM      9  C   UNL     1      -4.855   6.109   1.156  0.00  0.00    +0.011 C 
ATOM     10  C   UNL     1      -3.663   5.153   1.132  0.00  0.00    +0.037 C 
ENDROOT
BRANCH   5  11
ATOM     11  N   UNL     1       0.757   5.338   3.636  0.00  0.00    -0.280 N 
ATOM     12  C   UNL     1       1.633   6.198   4.193  0.00  0.00    +0.214 C 
ATOM     13  O   UNL     1       1.416   7.391   4.158  0.00  0.00    -0.276 OA
ATOM     14  C   UNL     1       2.881   5.678   4.858  0.00  0.00    +0.109 C 
ATOM     15  H   UNL     1       0.930   4.384   3.664  0.00  0.00    +0.155 HD
ENDBRANCH   5  11
BRANCH   1  16
ATOM     16  C   UNL     1      -1.348   3.630   2.324  0.00  0.00    +0.342 C 
ATOM     17  O   UNL     1      -1.840   2.955   3.209  0.00  0.00    -0.245 OA
BRANCH  16  18
ATOM     18  O   UNL     1      -0.749   3.031   1.275  0.00  0.00    -0.461 OA
BRANCH  18  20
ATOM     19  C   UNL     1      -0.013   1.086   0.008  0.00  0.00    +0.048 C 
ATOM     20  C   UNL     1      -0.729   1.579   1.267  0.00  0.00    +0.229 C 
ENDBRANCH  18  20
ENDBRANCH  16  18
ENDBRANCH   1  16
BRANCH   7  21
ATOM     21  O   UNL     1      -2.558   9.801   2.516  0.00  0.00    -0.316 OA
BRANCH  21  22
ATOM     22  C   UNL     1      -2.614  11.113   2.794  0.00  0.00    +0.342 C 
ATOM     23  O   UNL     1      -3.497  11.795   2.321  0.00  0.00    -0.248 OA
BRANCH  22  24
ATOM     24  C   UNL     1      -1.578  11.737   3.693  0.00  0.00    +0.071 C 
ATOM     25  C   UNL     1      -0.189  11.548   3.080  0.00  0.00    +0.021 C 
ATOM     26  C   UNL     1       0.862  12.182   3.993  0.00  0.00    -0.009 C 
ATOM     27  C   UNL     1       0.571  13.676   4.144  0.00  0.00    +0.007 C 
ATOM     28  C   UNL     1      -0.818  13.866   4.758  0.00  0.00    -0.009 C 
ATOM     29  C   UNL     1      -1.869  13.232   3.845  0.00  0.00    +0.021 C 
ATOM     30  C   UNL     1      -0.864  13.195   6.132  0.00  0.00    +0.007 C 
ATOM     31  C   UNL     1      -0.573  11.700   5.980  0.00  0.00    -0.009 C 
ATOM     32  C   UNL     1       0.816  11.511   5.367  0.00  0.00    +0.007 C 
ATOM     33  C   UNL     1      -1.625  11.066   5.067  0.00  0.00    +0.021 C 
ENDBRANCH  22  24
ENDBRANCH  21  22
ENDBRANCH   7  21
TORSDOF 7
