REMARK  Name = ZINC05071566
REMARK  10 active torsions:
REMARK  status: ('A' for Active; 'I' for Inactive)
REMARK    1  A    between atoms: C_1  and  C_2
REMARK    2  A    between atoms: C_2  and  N_3
REMARK    3  A    between atoms: C_7  and  S_26
REMARK    4  A    between atoms: C_11  and  S_12
REMARK    5  A    between atoms: S_12  and  C_13
REMARK    6  A    between atoms: C_13  and  C_15
REMARK    7  A    between atoms: C_13  and  C_16
REMARK    8  A    between atoms: N_18  and  C_19
REMARK    9  A    between atoms: C_19  and  C_20
REMARK   10  A    between atoms: S_26  and  N_29
REMARK                            x       y       z     vdW  Elec       q    Type
REMARK                         _______ _______ _______ _____ _____    ______ ____
ROOT
ATOM      1  N   UNL     1      -2.080   0.474  -9.944  0.00  0.00    -0.319 N 
ATOM      2  C   UNL     1      -3.074   1.204 -10.576  0.00  0.00    +0.070 A 
ATOM      3  C   UNL     1      -3.654   1.150 -11.834  0.00  0.00    +0.030 A 
ATOM      4  C   UNL     1      -4.650   2.043 -12.170  0.00  0.00    +0.030 A 
ATOM      5  C   UNL     1      -5.077   2.996 -11.256  0.00  0.00    +0.107 A 
ATOM      6  C   UNL     1      -4.512   3.064 -10.002  0.00  0.00    +0.058 A 
ATOM      7  C   UNL     1      -3.502   2.167  -9.647  0.00  0.00    +0.092 A 
ATOM      8  N   UNL     1      -2.773   1.983  -8.515  0.00  0.00    -0.222 NA
ATOM      9  C   UNL     1      -1.933   0.992  -8.688  0.00  0.00    +0.171 A 
ENDROOT
BRANCH   5  10
ATOM     10  S   UNL     1      -6.351   4.127 -11.704  0.00  0.00    +0.056 S 
ATOM     11  O   UNL     1      -6.192   5.268 -10.872  0.00  0.00    -0.153 OA
ATOM     12  O   UNL     1      -6.340   4.211 -13.123  0.00  0.00    -0.153 OA
BRANCH  10  13
ATOM     13  N   UNL     1      -7.794   3.432 -11.283  0.00  0.00    -0.204 NA
ATOM     14  H   UNL     1      -8.546   3.990 -11.031  0.00  0.00    +0.144 HD
ATOM     15  H   UNL     1      -7.887   2.466 -11.289  0.00  0.00    +0.144 HD
ENDBRANCH  10  13
ENDBRANCH   5  10
BRANCH   1  17
ATOM     16  C   UNL     1      -2.060  -1.956 -10.217  0.00  0.00    +0.027 C 
ATOM     17  C   UNL     1      -1.328  -0.646 -10.515  0.00  0.00    +0.121 C 
ENDBRANCH   1  17
BRANCH   9  18
ATOM     18  S   UNL     1      -0.790   0.411  -7.480  0.00  0.00    -0.075 S 
BRANCH  18  19
ATOM     19  C   UNL     1      -1.163   1.547  -6.121  0.00  0.00    +0.137 C 
ATOM     20  C   UNL     1      -0.793   2.973  -6.532  0.00  0.00    +0.029 C 
BRANCH  19  21
ATOM     21  C   UNL     1      -0.368   1.152  -4.904  0.00  0.00    +0.226 C 
ATOM     22  O   UNL     1       0.669   0.537  -5.030  0.00  0.00    -0.275 OA
ATOM     23  N   UNL     1      -0.810   1.483  -3.674  0.00  0.00    -0.314 N 
ATOM     24  H   UNL     1      -1.639   1.975  -3.573  0.00  0.00    +0.149 HD
BRANCH  23  25
ATOM     25  C   UNL     1      -0.037   1.099  -2.490  0.00  0.00    +0.107 C 
BRANCH  25  26
ATOM     26  C   UNL     1      -0.753   1.593  -1.232  0.00  0.00    +0.006 C 
ATOM     27  C   UNL     1      -0.013   1.086   0.008  0.00  0.00    +0.005 C 
ATOM     28  C   UNL     1      -0.729   1.579   1.267  0.00  0.00    +0.000 C 
ATOM     29  C   UNL     1      -0.750   3.109   1.275  0.00  0.00    +0.000 C 
ATOM     30  C   UNL     1      -1.490   3.616   0.036  0.00  0.00    +0.000 C 
ATOM     31  C   UNL     1      -0.773   3.123  -1.223  0.00  0.00    +0.005 C 
ENDBRANCH  25  26
ENDBRANCH  23  25
ENDBRANCH  19  21
ENDBRANCH  18  19
ENDBRANCH   9  18
TORSDOF 8
