REMARK  Name = ZINC00921232
REMARK  10 active torsions:
REMARK  status: ('A' for Active; 'I' for Inactive)
REMARK    1  A    between atoms: C_1  and  C_2
REMARK    2  A    between atoms: C_5  and  C_39
REMARK    3  A    between atoms: C_6  and  N_8
REMARK    4  A    between atoms: N_8  and  C_9
REMARK    5  A    between atoms: C_9  and  C_11
REMARK    6  A    between atoms: C_9  and  C_18
REMARK    7  A    between atoms: C_14  and  O_17
REMARK    8  A    between atoms: N_20  and  C_21
REMARK    9  A    between atoms: C_27  and  C_29
REMARK   10  A    between atoms: C_29  and  N_30
REMARK                            x       y       z     vdW  Elec       q    Type
REMARK                         _______ _______ _______ _____ _____    ______ ____
ROOT
ATOM      1  N   UNL     1      -5.268   2.488  -2.502  0.00  0.00    -0.254 N 
ATOM      2  C   UNL     1      -3.932   2.660  -2.462  0.00  0.00    +0.242 C 
ATOM      3  O   UNL     1      -3.429   3.631  -2.988  0.00  0.00    -0.273 OA
ENDROOT
BRANCH   1   9
ATOM      4  C   UNL     1      -7.276   0.388   1.464  0.00  0.00    +0.044 C 
ATOM      5  C   UNL     1      -6.830   0.323   0.026  0.00  0.00    -0.049 A 
ATOM      6  C   UNL     1      -6.994  -0.846  -0.696  0.00  0.00    +0.004 A 
ATOM      7  C   UNL     1      -6.586  -0.910  -2.015  0.00  0.00    +0.005 A 
ATOM      8  C   UNL     1      -6.019   0.196  -2.619  0.00  0.00    -0.029 A 
ATOM      9  C   UNL     1      -5.848   1.368  -1.895  0.00  0.00    +0.041 A 
ATOM     10  C   UNL     1      -6.258   1.429  -0.570  0.00  0.00    +0.027 A 
ATOM     11  C   UNL     1      -5.581   0.127  -4.059  0.00  0.00    +0.045 C 
ENDBRANCH   1   9
BRANCH   1  12
ATOM     12  C   UNL     1      -6.113   3.473  -3.182  0.00  0.00    +0.197 C 
BRANCH  12  13
ATOM     13  C   UNL     1      -5.930   4.822  -2.536  0.00  0.00    -0.018 A 
ATOM     14  C   UNL     1      -5.970   4.940  -1.159  0.00  0.00    +0.009 A 
ATOM     15  C   UNL     1      -5.796   6.175  -0.565  0.00  0.00    +0.046 A 
ATOM     16  C   UNL     1      -5.594   7.300  -1.352  0.00  0.00    +0.117 A 
ATOM     17  C   UNL     1      -5.560   7.180  -2.734  0.00  0.00    +0.046 A 
ATOM     18  C   UNL     1      -5.728   5.942  -3.323  0.00  0.00    +0.009 A 
BRANCH  16  19
ATOM     19  O   UNL     1      -5.429   8.517  -0.770  0.00  0.00    -0.507 OA
ATOM     20  H   UNL     1      -6.255   9.003  -0.635  0.00  0.00    +0.292 HD
ENDBRANCH  16  19
ENDBRANCH  12  13
BRANCH  12  21
ATOM     21  C   UNL     1      -7.557   3.056  -3.072  0.00  0.00    +0.239 C 
ATOM     22  O   UNL     1      -7.986   2.625  -2.023  0.00  0.00    -0.273 OA
ATOM     23  N   UNL     1      -8.372   3.162  -4.141  0.00  0.00    -0.311 N 
ATOM     24  H   UNL     1      -8.028   3.506  -4.980  0.00  0.00    +0.149 HD
BRANCH  23  25
ATOM     25  C   UNL     1      -9.776   2.756  -4.035  0.00  0.00    +0.073 C 
ATOM     26  C   UNL     1      -9.892   1.251  -4.280  0.00  0.00    +0.022 C 
ATOM     27  C   UNL     1     -11.358   0.827  -4.169  0.00  0.00    +0.002 C 
ATOM     28  C   UNL     1     -12.186   1.579  -5.213  0.00  0.00    +0.000 C 
ATOM     29  C   UNL     1     -12.070   3.085  -4.968  0.00  0.00    +0.002 C 
ATOM     30  C   UNL     1     -10.604   3.508  -5.079  0.00  0.00    +0.022 C 
ENDBRANCH  23  25
ENDBRANCH  12  21
ENDBRANCH   1  12
BRANCH   2  31
ATOM     31  C   UNL     1      -3.062   1.647  -1.763  0.00  0.00    +0.242 C 
BRANCH  31  32
ATOM     32  N   UNL     1      -1.659   2.059  -1.858  0.00  0.00    -0.235 N 
ATOM     33  C   UNL     1      -0.771   1.728  -2.853  0.00  0.00    +0.090 A 
ATOM     34  C   UNL     1      -0.860   0.969  -4.015  0.00  0.00    +0.029 A 
ATOM     35  C   UNL     1       0.237   0.824  -4.818  0.00  0.00    +0.002 A 
ATOM     36  C   UNL     1       1.439   1.437  -4.489  0.00  0.00    +0.002 A 
ATOM     37  C   UNL     1       1.551   2.191  -3.357  0.00  0.00    +0.032 A 
ATOM     38  C   UNL     1       0.443   2.351  -2.515  0.00  0.00    +0.113 A 
ATOM     39  N   UNL     1       0.252   3.018  -1.359  0.00  0.00    -0.129 NA
ATOM     40  N   UNL     1      -0.959   2.869  -0.952  0.00  0.00    -0.064 NA
ENDBRANCH  31  32
ENDBRANCH   2  31
TORSDOF 8
