REMARK  Name = ZINC40154903
REMARK  14 active torsions:
REMARK  status: ('A' for Active; 'I' for Inactive)
REMARK    1  A    between atoms: C_1  and  C_2
REMARK    2  A    between atoms: C_2  and  O_3
REMARK    3  A    between atoms: O_3  and  C_4
REMARK    4  A    between atoms: N_6  and  C_7
REMARK    5  A    between atoms: C_7  and  C_9
REMARK    6  A    between atoms: C_7  and  C_13
REMARK    7  A    between atoms: C_9  and  C_10
REMARK    8  A    between atoms: C_10  and  C_11
REMARK    9  A    between atoms: C_10  and  C_12
REMARK   10  A    between atoms: C_13  and  N_14
REMARK   11  A    between atoms: C_15  and  C_17
REMARK   12  A    between atoms: C_18  and  C_30
REMARK   13  A    between atoms: N_20  and  C_23
REMARK   14  A    between atoms: C_21  and  C_22
REMARK                            x       y       z     vdW  Elec       q    Type
REMARK                         _______ _______ _______ _____ _____    ______ ____
ROOT
ATOM      1  N   UNL     1       0.835  -3.573   4.963  0.00  0.00    -0.309 N 
ATOM      2  C   UNL     1       0.630  -3.785   6.278  0.00  0.00    +0.248 C 
ATOM      3  O   UNL     1       1.390  -4.498   6.905  0.00  0.00    -0.270 OA
ATOM      4  H   UNL     1       0.228  -3.004   4.463  0.00  0.00    +0.149 HD
ENDROOT
BRANCH   2   5
ATOM      5  C   UNL     1      -0.515  -3.152   6.957  0.00  0.00    +0.080 A 
ATOM      6  C   UNL     1      -1.810  -3.699   7.103  0.00  0.00    +0.073 A 
ATOM      7  N   UNL     1      -2.540  -2.840   7.761  0.00  0.00    -0.171 NA
ATOM      8  N   UNL     1      -1.759  -1.719   8.065  0.00  0.00    -0.236 N 
ATOM      9  C   UNL     1      -0.521  -1.918   7.575  0.00  0.00    +0.054 A 
ATOM     10  C   UNL     1       0.643  -0.966   7.680  0.00  0.00    +0.066 C 
ATOM     11  C   UNL     1      -2.269  -5.038   6.588  0.00  0.00    +0.068 C 
BRANCH   8  12
ATOM     12  C   UNL     1      -2.191  -0.584   8.764  0.00  0.00    +0.066 A 
ATOM     13  C   UNL     1      -2.993  -0.723   9.889  0.00  0.00    +0.029 A 
ATOM     14  C   UNL     1      -3.417   0.397  10.576  0.00  0.00    +0.017 A 
ATOM     15  C   UNL     1      -3.044   1.657  10.144  0.00  0.00    +0.018 A 
ATOM     16  C   UNL     1      -2.245   1.799   9.024  0.00  0.00    +0.017 A 
ATOM     17  C   UNL     1      -1.814   0.682   8.336  0.00  0.00    +0.029 A 
ATOM     18 BR   UNL     1      -3.627   3.189  11.088  0.00  0.00    -0.050 Br
ENDBRANCH   8  12
ENDBRANCH   2   5
BRANCH   1  19
ATOM     19  C   UNL     1       1.972  -4.202   4.288  0.00  0.00    +0.126 C 
BRANCH  19  20
ATOM     20  C   UNL     1       1.974  -3.802   2.811  0.00  0.00    +0.093 C 
BRANCH  20  23
ATOM     21  C   UNL     1       1.471  -1.751   1.595  0.00  0.00    +0.401 C 
ATOM     22  O   UNL     1       1.034  -2.432   0.688  0.00  0.00    -0.226 OA
ATOM     23  N   UNL     1       1.965  -2.341   2.702  0.00  0.00    -0.277 N 
ATOM     24  H   UNL     1       2.314  -1.798   3.426  0.00  0.00    +0.152 HD
BRANCH  21  25
ATOM     25  O   UNL     1       1.462  -0.409   1.494  0.00  0.00    -0.451 OA
BRANCH  25  27
ATOM     26  C   UNL     1       0.998   1.675   0.360  0.00  0.00    +0.048 C 
ATOM     27  C   UNL     1       0.924   0.148   0.293  0.00  0.00    +0.230 C 
ENDBRANCH  25  27
ENDBRANCH  21  25
ENDBRANCH  20  23
BRANCH  20  28
ATOM     28  C   UNL     1       3.230  -4.356   2.134  0.00  0.00    +0.027 C 
BRANCH  28  29
ATOM     29  C   UNL     1       3.171  -4.063   0.634  0.00  0.00    -0.015 C 
ATOM     30  C   UNL     1       4.480  -4.505  -0.023  0.00  0.00    +0.007 C 
ATOM     31  C   UNL     1       2.003  -4.829   0.010  0.00  0.00    +0.007 C 
ENDBRANCH  28  29
ENDBRANCH  20  28
ENDBRANCH  19  20
ENDBRANCH   1  19
TORSDOF 9
