REMARK  Name = ZINC05444699
REMARK  10 active torsions:
REMARK  status: ('A' for Active; 'I' for Inactive)
REMARK    1  A    between atoms: C_1  and  C_2
REMARK    2  A    between atoms: C_2  and  O_3
REMARK    3  A    between atoms: O_3  and  C_4
REMARK    4  A    between atoms: C_10  and  O_29
REMARK    5  A    between atoms: C_11  and  C_14
REMARK    6  A    between atoms: C_17  and  C_28
REMARK    7  A    between atoms: C_23  and  N_27
REMARK    8  A    between atoms: C_24  and  C_25
REMARK    9  A    between atoms: O_29  and  C_30
REMARK   10  A    between atoms: C_30  and  C_31
REMARK                            x       y       z     vdW  Elec       q    Type
REMARK                         _______ _______ _______ _____ _____    ______ ____
ROOT
ATOM      1  C   UNL     1      -1.921  -1.578   2.726  0.00  0.00    +0.121 A 
ATOM      2  C   UNL     1      -2.582  -1.101   3.863  0.00  0.00    +0.046 A 
ATOM      3  C   UNL     1      -2.634   0.231   4.134  0.00  0.00    +0.012 A 
ATOM      4  C   UNL     1      -2.018   1.145   3.262  0.00  0.00    -0.017 A 
ATOM      5  C   UNL     1      -2.054   2.527   3.514  0.00  0.00    +0.012 A 
ATOM      6  C   UNL     1      -1.447   3.386   2.651  0.00  0.00    +0.046 A 
ATOM      7  C   UNL     1      -0.780   2.914   1.517  0.00  0.00    +0.125 A 
ATOM      8  C   UNL     1      -0.730   1.578   1.239  0.00  0.00    +0.015 A 
ATOM      9  C   UNL     1      -1.347   0.664   2.109  0.00  0.00    -0.007 A 
ATOM     10  C   UNL     1      -1.311  -0.718   1.858  0.00  0.00    +0.054 A 
ENDROOT
BRANCH   8  11
ATOM     11  C   UNL     1      -0.013   1.086   0.008  0.00  0.00    +0.105 C 
ATOM     12  C   UNL     1       1.416   1.565   0.027  0.00  0.00    +0.049 A 
ATOM     13  C   UNL     1       2.473   1.145   0.824  0.00  0.00    +0.068 A 
ATOM     14  N   UNL     1       3.534   1.843   0.493  0.00  0.00    -0.176 NA
ATOM     15  N   UNL     1       3.177   2.734  -0.531  0.00  0.00    -0.246 N 
ATOM     16  H   UNL     1       3.785   3.390  -0.979  0.00  0.00    +0.192 HD
ATOM     17  C   UNL     1       1.876   2.547  -0.804  0.00  0.00    +0.222 A 
ATOM     18  O   UNL     1       1.084   3.167  -1.715  0.00  0.00    -0.423 OA
ATOM     19  C   UNL     1      -0.115   2.609  -1.982  0.00  0.00    +0.200 C 
ATOM     20  C   UNL     1      -0.679   1.641  -1.226  0.00  0.00    +0.098 C 
ATOM     21  C   UNL     1       2.413   0.075   1.882  0.00  0.00    +0.068 C 
BRANCH  19  22
ATOM     22  N   UNL     1      -0.802   3.051  -3.085  0.00  0.00    -0.328 N 
ATOM     23  H   UNL     1      -0.423   3.745  -3.646  0.00  0.00    +0.145 HD
ATOM     24  H   UNL     1      -1.666   2.669  -3.303  0.00  0.00    +0.145 HD
ENDBRANCH  19  22
BRANCH  20  25
ATOM     25  C   UNL     1      -1.956   1.121  -1.613  0.00  0.00    +0.101 C 
ATOM     26  N   UNL     1      -2.969   0.709  -1.920  0.00  0.00    -0.191 NA
ENDBRANCH  20  25
ENDBRANCH   8  11
BRANCH   1  27
ATOM     27  O   UNL     1      -1.885  -2.914   2.483  0.00  0.00    -0.492 OA
BRANCH  27  29
ATOM     28  C   UNL     1      -2.395  -5.222   2.988  0.00  0.00    +0.048 C 
ATOM     29  C   UNL     1      -2.541  -3.764   3.426  0.00  0.00    +0.225 C 
ENDBRANCH  27  29
ENDBRANCH   1  27
BRANCH   7  30
ATOM     30  O   UNL     1      -0.178   3.796   0.677  0.00  0.00    -0.492 OA
BRANCH  30  31
ATOM     31  C   UNL     1      -0.263   5.181   1.020  0.00  0.00    +0.225 C 
ATOM     32  C   UNL     1       0.467   6.014  -0.035  0.00  0.00    +0.048 C 
ENDBRANCH  30  31
ENDBRANCH   7  30
TORSDOF 7
