REMARK  Name = ZINC09641151
REMARK  8 active torsions:
REMARK  status: ('A' for Active; 'I' for Inactive)
REMARK    1  A    between atoms: C_3  and  C_6
REMARK    2  A    between atoms: C_6  and  C_8
REMARK    3  A    between atoms: C_6  and  N_53
REMARK    4  A    between atoms: C_8  and  N_9
REMARK    5  A    between atoms: C_10  and  C_12
REMARK    6  A    between atoms: C_15  and  N_18
REMARK    7  A    between atoms: N_18  and  S_19
REMARK    8  A    between atoms: S_19  and  C_22
REMARK                            x       y       z     vdW  Elec       q    Type
REMARK                         _______ _______ _______ _____ _____    ______ ____
ROOT
ATOM      1  N   UNL     1      -0.001   2.163  -2.561  0.00  0.00    -0.312 N 
ATOM      2  C   UNL     1      -0.335   2.587  -3.796  0.00  0.00    +0.244 C 
ATOM      3  O   UNL     1      -1.277   3.341  -3.946  0.00  0.00    -0.270 OA
ATOM      4  H   UNL     1       0.751   1.562  -2.442  0.00  0.00    +0.149 HD
ENDROOT
BRANCH   2   5
ATOM      5  C   UNL     1       0.444   2.138  -4.966  0.00  0.00    +0.037 A 
ATOM      6  C   UNL     1       1.532   1.276  -4.794  0.00  0.00    +0.015 A 
ATOM      7  C   UNL     1       2.252   0.855  -5.888  0.00  0.00    +0.025 A 
ATOM      8  C   UNL     1       1.906   1.294  -7.163  0.00  0.00    +0.048 A 
ATOM      9  C   UNL     1       0.828   2.157  -7.336  0.00  0.00    +0.025 A 
ATOM     10  C   UNL     1       0.099   2.578  -6.247  0.00  0.00    +0.015 A 
BRANCH   8  11
ATOM     11  N   UNL     1       2.640   0.871  -8.266  0.00  0.00    -0.216 N 
ATOM     12  H   UNL     1       2.538  -0.035  -8.597  0.00  0.00    +0.174 HD
BRANCH  11  13
ATOM     13  S   UNL     1       3.687   1.913  -9.014  0.00  0.00    +0.079 S 
ATOM     14  O   UNL     1       4.322   1.177 -10.050  0.00  0.00    -0.149 OA
ATOM     15  O   UNL     1       2.960   3.108  -9.264  0.00  0.00    -0.149 OA
BRANCH  13  16
ATOM     16  C   UNL     1       4.940   2.321  -7.845  0.00  0.00    +0.147 A 
ATOM     17  C   UNL     1       6.159   1.755  -7.669  0.00  0.00    +0.038 A 
ATOM     18  C   UNL     1       6.989   2.244  -6.676  0.00  0.00    +0.030 A 
ATOM     19  C   UNL     1       6.557   3.277  -5.910  0.00  0.00    +0.080 A 
ATOM     20  S   UNL     1       4.938   3.592  -6.591  0.00  0.00    -0.057 S 
ATOM     21 CL   UNL     1       7.372   4.087  -4.608  0.00  0.00    -0.076 Cl
ENDBRANCH  13  16
ENDBRANCH  11  13
ENDBRANCH   8  11
ENDBRANCH   2   5
BRANCH   1  22
ATOM     22  C   UNL     1      -0.774   2.608  -1.399  0.00  0.00    +0.097 C 
BRANCH  22  23
ATOM     23  C   UNL     1      -0.192   1.985  -0.129  0.00  0.00    +0.016 C 
BRANCH  23  28
ATOM     24  C   UNL     1       1.468   3.766  -0.184  0.00  0.00    -0.078 C 
ATOM     25  C   UNL     1       2.869   3.969   0.446  0.00  0.00    -0.020 C 
ATOM     26  C   UNL     1       2.859   2.985   1.638  0.00  0.00    -0.020 C 
ATOM     27  C   UNL     1       1.781   1.942   1.289  0.00  0.00    -0.078 C 
ATOM     28  N   UNL     1       1.261   2.318  -0.027  0.00  0.00    +0.387 N 
ATOM     29  H   UNL     1       1.774   1.813  -0.759  0.00  0.00    -0.081 HD
ENDBRANCH  23  28
BRANCH  23  32
ATOM     30  C   UNL     1      -2.216   2.767   2.849  0.00  0.00    +0.041 A 
ATOM     31  C   UNL     1      -1.802   1.877   1.832  0.00  0.00    +0.043 A 
ATOM     32  C   UNL     1      -0.907   2.539   1.076  0.00  0.00    +0.093 A 
ATOM     33  O   UNL     1      -0.765   3.778   1.573  0.00  0.00    -0.469 OA
ATOM     34  C   UNL     1      -1.556   3.922   2.649  0.00  0.00    +0.195 A 
ENDBRANCH  23  32
ENDBRANCH  22  23
ENDBRANCH   1  22
TORSDOF 8
