REMARK  Name = ZINC09377807
REMARK  7 active torsions:
REMARK  status: ('A' for Active; 'I' for Inactive)
REMARK    1  A    between atoms: C_4  and  N_7
REMARK    2  A    between atoms: C_16  and  S_18
REMARK    3  A    between atoms: S_18  and  C_19
REMARK    4  A    between atoms: C_19  and  C_20
REMARK    5  A    between atoms: N_22  and  C_23
REMARK    6  A    between atoms: C_23  and  C_24
REMARK    7  A    between atoms: C_24  and  C_25
REMARK                            x       y       z     vdW  Elec       q    Type
REMARK                         _______ _______ _______ _____ _____    ______ ____
ROOT
ATOM      1  S   UNL     1       5.813  -0.681  -0.055  0.00  0.00    -0.078 S 
ENDROOT
BRANCH   1  11
ATOM      2  N   UNL     1       1.297   1.787  -0.001  0.00  0.00    -0.214 N 
ATOM      3  C   UNL     1       2.147   0.722  -0.015  0.00  0.00    +0.171 A 
ATOM      4  C   UNL     1       1.346  -0.432  -0.013  0.00  0.00    +0.103 A 
ATOM      5  C   UNL     1       0.002  -0.004   0.002  0.00  0.00    +0.150 A 
ATOM      6  N   UNL     1      -0.016   1.300   0.009  0.00  0.00    -0.172 NA
ATOM      7  C   UNL     1       1.978  -1.700  -0.025  0.00  0.00    +0.263 A 
ATOM      8  O   UNL     1       1.321  -2.726  -0.024  0.00  0.00    -0.267 OA
ATOM      9  N   UNL     1       3.329  -1.742  -0.038  0.00  0.00    -0.301 N 
ATOM     10  H   UNL     1       3.786  -2.598  -0.047  0.00  0.00    +0.171 HD
ATOM     11  C   UNL     1       4.054  -0.585  -0.039  0.00  0.00    +0.172 A 
ATOM     12  N   UNL     1       3.481   0.598  -0.028  0.00  0.00    -0.204 NA
BRANCH   2  16
ATOM     13  C   UNL     1       2.413   5.802   0.008  0.00  0.00    +0.000 A 
ATOM     14  C   UNL     1       1.276   5.403  -0.671  0.00  0.00    +0.002 A 
ATOM     15  C   UNL     1       0.903   4.074  -0.675  0.00  0.00    +0.028 A 
ATOM     16  C   UNL     1       1.672   3.136   0.002  0.00  0.00    +0.068 A 
ATOM     17  C   UNL     1       2.810   3.541   0.687  0.00  0.00    +0.028 A 
ATOM     18  C   UNL     1       3.180   4.872   0.683  0.00  0.00    +0.002 A 
ENDBRANCH   2  16
ENDBRANCH   1  11
BRANCH   1  19
ATOM     19  C   UNL     1       6.224   1.082  -0.050  0.00  0.00    +0.173 C 
BRANCH  19  20
ATOM     20  C   UNL     1       7.722   1.249  -0.063  0.00  0.00    +0.223 C 
ATOM     21  O   UNL     1       8.441   0.272  -0.074  0.00  0.00    -0.275 OA
ATOM     22  N   UNL     1       8.262   2.483  -0.061  0.00  0.00    -0.314 N 
ATOM     23  H   UNL     1       7.687   3.265  -0.052  0.00  0.00    +0.149 HD
BRANCH  22  24
ATOM     24  C   UNL     1       9.718   2.646  -0.074  0.00  0.00    +0.109 C 
BRANCH  24  25
ATOM     25  C   UNL     1      10.065   4.136  -0.069  0.00  0.00    +0.056 C 
BRANCH  25  26
ATOM     26  C   UNL     1      11.563   4.303  -0.082  0.00  0.00    -0.021 A 
ATOM     27  C   UNL     1      12.355   4.486   0.986  0.00  0.00    +0.087 A 
ATOM     28  N   UNL     1      13.659   4.594   0.587  0.00  0.00    -0.360 N 
ATOM     29  H   UNL     1      14.414   4.729   1.181  0.00  0.00    +0.165 HD
ATOM     30  C   UNL     1      13.739   4.490  -0.784  0.00  0.00    +0.047 A 
ATOM     31  C   UNL     1      12.430   4.303  -1.263  0.00  0.00    +0.003 A 
ATOM     32  C   UNL     1      12.203   4.164  -2.633  0.00  0.00    +0.010 A 
ATOM     33  C   UNL     1      13.255   4.211  -3.503  0.00  0.00    +0.001 A 
ATOM     34  C   UNL     1      14.549   4.395  -3.036  0.00  0.00    +0.002 A 
ATOM     35  C   UNL     1      14.796   4.535  -1.687  0.00  0.00    +0.026 A 
ENDBRANCH  25  26
ENDBRANCH  24  25
ENDBRANCH  22  24
ENDBRANCH  19  20
ENDBRANCH   1  19
TORSDOF 7
