REMARK  Name = ZINC05941604
REMARK  14 active torsions:
REMARK  status: ('A' for Active; 'I' for Inactive)
REMARK    1  A    between atoms: C_1  and  C_2
REMARK    2  A    between atoms: C_3  and  C_34
REMARK    3  A    between atoms: C_6  and  N_7
REMARK    4  A    between atoms: N_7  and  S_8
REMARK    5  A    between atoms: S_8  and  C_11
REMARK    6  A    between atoms: C_14  and  N_17
REMARK    7  A    between atoms: C_18  and  C_20
REMARK    8  A    between atoms: C_20  and  C_22
REMARK    9  A    between atoms: C_20  and  O_23
REMARK   10  A    between atoms: O_23  and  C_24
REMARK   11  A    between atoms: C_27  and  C_30
REMARK   12  A    between atoms: C_30  and  C_31
REMARK   13  A    between atoms: C_30  and  C_32
REMARK   14  A    between atoms: C_30  and  C_33
REMARK                            x       y       z     vdW  Elec       q    Type
REMARK                         _______ _______ _______ _____ _____    ______ ____
ROOT
ATOM      1  C   UNL     1      -2.168   4.584   4.054  0.00  0.00    +0.109 A 
ATOM      2  C   UNL     1      -2.496   5.756   3.397  0.00  0.00    +0.030 A 
ATOM      3  C   UNL     1      -1.814   6.923   3.681  0.00  0.00    +0.025 A 
ATOM      4  C   UNL     1      -0.792   6.916   4.621  0.00  0.00    +0.034 A 
ATOM      5  C   UNL     1      -0.461   5.737   5.275  0.00  0.00    +0.025 A 
ATOM      6  C   UNL     1      -1.150   4.574   4.990  0.00  0.00    +0.030 A 
ENDROOT
BRANCH   4   7
ATOM      7  N   UNL     1      -0.096   8.096   4.908  0.00  0.00    -0.282 N 
ATOM      8  C   UNL     1       1.211   8.045   5.233  0.00  0.00    +0.258 C 
ATOM      9  O   UNL     1       1.807   6.990   5.187  0.00  0.00    -0.271 OA
ATOM     10  H   UNL     1      -0.554   8.950   4.873  0.00  0.00    +0.155 HD
BRANCH   8  11
ATOM     11  C   UNL     1       1.933   9.300   5.652  0.00  0.00    +0.256 C 
ATOM     12  C   UNL     1       1.873  10.326   4.518  0.00  0.00    +0.062 C 
BRANCH  11  13
ATOM     13  O   UNL     1       3.297   8.991   5.943  0.00  0.00    -0.480 OA
BRANCH  13  14
ATOM     14  C   UNL     1       3.948   9.819   6.801  0.00  0.00    +0.122 A 
ATOM     15  C   UNL     1       5.233   9.512   7.223  0.00  0.00    +0.046 A 
ATOM     16  C   UNL     1       5.896  10.359   8.090  0.00  0.00    +0.008 A 
ATOM     17  C   UNL     1       5.274  11.506   8.548  0.00  0.00    -0.042 A 
ATOM     18  C   UNL     1       3.991  11.812   8.133  0.00  0.00    +0.008 A 
ATOM     19  C   UNL     1       3.327  10.971   7.261  0.00  0.00    +0.046 A 
BRANCH  17  20
ATOM     20  C   UNL     1       5.996  12.425   9.499  0.00  0.00    -0.013 C 
ATOM     21  C   UNL     1       5.202  12.535  10.803  0.00  0.00    +0.015 C 
ATOM     22  C   UNL     1       7.387  11.861   9.796  0.00  0.00    +0.015 C 
ATOM     23  C   UNL     1       6.132  13.811   8.866  0.00  0.00    +0.015 C 
ENDBRANCH  17  20
ENDBRANCH  13  14
ENDBRANCH  11  13
ENDBRANCH   8  11
ENDBRANCH   4   7
BRANCH   1  24
ATOM     24  S   UNL     1      -3.045   3.099   3.693  0.00  0.00    +0.075 S 
ATOM     25  O   UNL     1      -2.182   2.024   4.039  0.00  0.00    -0.150 OA
ATOM     26  O   UNL     1      -3.585   3.253   2.388  0.00  0.00    -0.150 OA
BRANCH  24  27
ATOM     27  N   UNL     1      -4.332   3.025   4.732  0.00  0.00    -0.183 N 
ATOM     28  H   UNL     1      -4.380   2.320   5.396  0.00  0.00    +0.177 HD
BRANCH  27  34
ATOM     29  C   UNL     1      -6.862   3.133   6.567  0.00  0.00    +0.051 C 
ATOM     30  C   UNL     1      -6.456   4.045   5.438  0.00  0.00    +0.035 A 
ATOM     31  C   UNL     1      -7.140   5.173   4.944  0.00  0.00    +0.085 A 
ATOM     32  N   UNL     1      -6.415   5.651   3.972  0.00  0.00    -0.081 NA
ATOM     33  O   UNL     1      -5.413   4.999   3.795  0.00  0.00    -0.338 OA
ATOM     34  C   UNL     1      -5.339   3.969   4.653  0.00  0.00    +0.240 A 
ATOM     35  C   UNL     1      -8.451   5.723   5.446  0.00  0.00    +0.069 C 
ENDBRANCH  27  34
ENDBRANCH  24  27
ENDBRANCH   1  24
TORSDOF 8
