REMARK  Name = ZINC05275007
REMARK  3 active torsions:
REMARK  status: ('A' for Active; 'I' for Inactive)
REMARK    1  A    between atoms: C_1  and  C_2
REMARK    2  A    between atoms: C_9  and  C_13
REMARK    3  A    between atoms: C_9  and  O_17
REMARK                            x       y       z     vdW  Elec       q    Type
REMARK                         _______ _______ _______ _____ _____    ______ ____
ROOT
ATOM      1  C   UNL     1       2.959  -9.751   1.515  0.00  0.00    +0.007 C 
ATOM      2  C   UNL     1       3.349  -8.633   0.547  0.00  0.00    -0.013 C 
ATOM      3  C   UNL     1       4.793  -8.216   0.818  0.00  0.00    +0.009 C 
ATOM      4  C   UNL     1       5.240  -7.165  -0.192  0.00  0.00    +0.053 C 
ATOM      5  C   UNL     1       4.189  -6.074  -0.202  0.00  0.00    +0.045 C 
ATOM      6  N   UNL     1       4.341  -4.832  -0.036  0.00  0.00    -0.184 NA
ATOM      7  N   UNL     1       3.148  -4.112   0.051  0.00  0.00    -0.160 N 
ATOM      8  C   UNL     1       2.019  -5.057  -0.037  0.00  0.00    +0.258 C 
ATOM      9  C   UNL     1       2.708  -6.397  -0.331  0.00  0.00    +0.096 C 
ATOM     10  C   UNL     1       2.390  -7.451   0.732  0.00  0.00    +0.017 C 
ATOM     11  C   UNL     1       3.042  -2.744   0.201  0.00  0.00    +0.184 A 
ATOM     12  N   UNL     1       1.959  -2.006   0.289  0.00  0.00    -0.223 NA
ATOM     13  C   UNL     1       2.006  -0.664   0.435  0.00  0.00    +0.080 A 
ATOM     14  C   UNL     1       0.924   0.241   0.542  0.00  0.00    +0.029 A 
ATOM     15  C   UNL     1       1.148   1.585   0.687  0.00  0.00    +0.002 A 
ATOM     16  C   UNL     1       2.433   2.106   0.734  0.00  0.00    +0.001 A 
ATOM     17  C   UNL     1       3.514   1.250   0.633  0.00  0.00    +0.017 A 
ATOM     18  C   UNL     1       3.300  -0.098   0.487  0.00  0.00    +0.041 A 
ATOM     19  S   UNL     1       4.345  -1.526   0.324  0.00  0.00    -0.051 S 
ENDROOT
BRANCH   8  20
ATOM     20  C   UNL     1       1.259  -5.116   1.289  0.00  0.00    +0.438 C 
ATOM     21  F   UNL     1       0.634  -3.887   1.523  0.00  0.00    -0.166 F 
ATOM     22  F   UNL     1       0.293  -6.127   1.228  0.00  0.00    -0.166 F 
ATOM     23  F   UNL     1       2.155  -5.390   2.328  0.00  0.00    -0.166 F 
ENDBRANCH   8  20
BRANCH   8  24
ATOM     24  O   UNL     1       1.143  -4.697  -1.107  0.00  0.00    -0.363 OA
ATOM     25  H   UNL     1       0.739  -3.824  -1.008  0.00  0.00    +0.212 HD
ENDBRANCH   8  24
TORSDOF 2
