REMARK  Name = ZINC37067872
REMARK  8 active torsions:
REMARK  status: ('A' for Active; 'I' for Inactive)
REMARK    1  A    between atoms: C_1  and  C_2
REMARK    2  A    between atoms: C_7  and  N_8
REMARK    3  A    between atoms: C_12  and  N_20
REMARK    4  A    between atoms: C_13  and  O_15
REMARK    5  A    between atoms: O_15  and  C_16
REMARK    6  A    between atoms: C_16  and  C_17
REMARK    7  A    between atoms: C_17  and  C_18
REMARK    8  A    between atoms: C_17  and  C_19
REMARK                            x       y       z     vdW  Elec       q    Type
REMARK                         _______ _______ _______ _____ _____    ______ ____
ROOT
ATOM      1  N   UNL     1       0.025  -0.015   2.416  0.00  0.00    -0.299 N 
ATOM      2  C   UNL     1       0.151  -0.719   3.612  0.00  0.00    +0.127 A 
ATOM      3  C   UNL     1       0.280  -2.102   3.585  0.00  0.00    +0.046 A 
ATOM      4  C   UNL     1       0.405  -2.794   4.779  0.00  0.00    +0.031 A 
ATOM      5  C   UNL     1       0.398  -2.073   5.968  0.00  0.00    +0.087 A 
ATOM      6  C   UNL     1       0.265  -0.687   5.921  0.00  0.00    +0.238 A 
ATOM      7  N   UNL     1       0.152  -0.060   4.762  0.00  0.00    -0.196 NA
ATOM      8  H   UNL     1       0.121  -0.478   1.569  0.00  0.00    +0.154 HD
ENDROOT
BRANCH   1  15
ATOM      9  C   UNL     1       1.122   1.594   0.342  0.00  0.00    +0.045 C 
ATOM     10  C   UNL     1       0.276   2.180   1.443  0.00  0.00    -0.029 A 
ATOM     11  C   UNL     1       0.008   3.535   1.463  0.00  0.00    +0.006 A 
ATOM     12  C   UNL     1      -0.767   4.073   2.472  0.00  0.00    +0.020 A 
ATOM     13  C   UNL     1      -1.279   3.257   3.467  0.00  0.00    +0.043 A 
ATOM     14  C   UNL     1      -1.014   1.901   3.453  0.00  0.00    +0.043 A 
ATOM     15  C   UNL     1      -0.239   1.357   2.436  0.00  0.00    +0.037 A 
ATOM     16 CL   UNL     1      -2.252   3.938   4.733  0.00  0.00    -0.083 Cl
ENDBRANCH   1  15
BRANCH   5  17
ATOM     17  N   UNL     1       0.521  -2.733   7.200  0.00  0.00    -0.354 N 
ATOM     18  H   UNL     1       0.613  -3.699   7.226  0.00  0.00    +0.142 HD
ATOM     19  H   UNL     1       0.515  -2.224   8.026  0.00  0.00    +0.142 HD
ENDBRANCH   5  17
BRANCH   6  20
ATOM     20  O   UNL     1       0.256   0.027   7.075  0.00  0.00    -0.475 OA
BRANCH  20  21
ATOM     21  C   UNL     1       0.117   1.445   6.960  0.00  0.00    +0.233 C 
BRANCH  21  22
ATOM     22  C   UNL     1       0.128   2.073   8.355  0.00  0.00    +0.020 C 
ATOM     23  C   UNL     1       0.104   3.598   8.228  0.00  0.00    +0.010 C 
ATOM     24  C   UNL     1      -1.104   1.607   9.134  0.00  0.00    +0.010 C 
ENDBRANCH  21  22
ENDBRANCH  20  21
ENDBRANCH   6  20
TORSDOF 5
