REMARK  Name = ZINC13506697
REMARK  9 active torsions:
REMARK  status: ('A' for Active; 'I' for Inactive)
REMARK    1  A    between atoms: C_3  and  C_6
REMARK    2  A    between atoms: C_6  and  C_8
REMARK    3  A    between atoms: C_6  and  N_16
REMARK    4  A    between atoms: N_10  and  C_11
REMARK    5  A    between atoms: N_16  and  C_17
REMARK    6  A    between atoms: C_17  and  C_18
REMARK    7  A    between atoms: C_27  and  C_29
REMARK    8  A    between atoms: C_29  and  N_30
REMARK    9  A    between atoms: C_31  and  C_33
REMARK                            x       y       z     vdW  Elec       q    Type
REMARK                         _______ _______ _______ _____ _____    ______ ____
ROOT
ATOM      1  N   UNL     1       0.444   1.415   6.210  0.00  0.00    -0.278 N 
ATOM      2  C   UNL     1       1.108   0.508   6.953  0.00  0.00    +0.234 C 
ATOM      3  O   UNL     1       2.224   0.159   6.629  0.00  0.00    -0.274 OA
ENDROOT
BRANCH   1   4
ATOM      4  C   UNL     1       1.098   2.037   5.056  0.00  0.00    +0.228 C 
BRANCH   4   7
ATOM      5  C   UNL     1       2.389   5.418   5.750  0.00  0.00    +0.041 A 
ATOM      6  C   UNL     1       2.594   4.049   5.464  0.00  0.00    +0.047 A 
ATOM      7  C   UNL     1       1.376   3.487   5.357  0.00  0.00    +0.134 A 
ATOM      8  O   UNL     1       0.451   4.437   5.571  0.00  0.00    -0.465 OA
ATOM      9  C   UNL     1       1.059   5.610   5.809  0.00  0.00    +0.195 A 
ENDBRANCH   4   7
BRANCH   4  10
ATOM     10  C   UNL     1       0.194   1.938   3.854  0.00  0.00    +0.241 C 
ATOM     11  O   UNL     1      -0.848   1.322   3.927  0.00  0.00    -0.273 OA
ATOM     12  N   UNL     1       0.545   2.535   2.697  0.00  0.00    -0.311 N 
ATOM     13  H   UNL     1       1.378   3.028   2.638  0.00  0.00    +0.149 HD
BRANCH  12  14
ATOM     14  C   UNL     1      -0.334   2.439   1.528  0.00  0.00    +0.073 C 
ATOM     15  C   UNL     1       0.478   2.614   0.228  0.00  0.00    +0.022 C 
ATOM     16  C   UNL     1      -0.406   3.423  -0.738  0.00  0.00    +0.002 C 
ATOM     17  C   UNL     1      -1.724   3.713   0.009  0.00  0.00    +0.002 C 
ATOM     18  C   UNL     1      -1.341   3.616   1.507  0.00  0.00    +0.022 C 
ENDBRANCH  12  14
ENDBRANCH   4  10
ENDBRANCH   1   4
BRANCH   1  19
ATOM     19  C   UNL     1      -0.932   1.780   6.557  0.00  0.00    +0.144 C 
BRANCH  19  20
ATOM     20  C   UNL     1      -0.920   2.995   7.448  0.00  0.00    -0.026 A 
ATOM     21  C   UNL     1      -0.434   2.900   8.739  0.00  0.00    +0.009 A 
ATOM     22  C   UNL     1      -0.416   4.013   9.558  0.00  0.00    +0.050 A 
ATOM     23  C   UNL     1      -0.896   5.226   9.091  0.00  0.00    +0.166 A 
ATOM     24  C   UNL     1      -1.390   5.321   7.792  0.00  0.00    +0.167 A 
ATOM     25  C   UNL     1      -1.400   4.202   6.975  0.00  0.00    +0.054 A 
ATOM     26  O   UNL     1      -1.798   6.605   7.574  0.00  0.00    -0.453 OA
ATOM     27  C   UNL     1      -1.927   7.195   8.881  0.00  0.00    +0.466 C 
ATOM     28  O   UNL     1      -0.994   6.450   9.686  0.00  0.00    -0.453 OA
ENDBRANCH  19  20
ENDBRANCH   1  19
BRANCH   2  29
ATOM     29  C   UNL     1       0.465  -0.074   8.185  0.00  0.00    +0.200 C 
BRANCH  29  30
ATOM     30  N   UNL     1       0.885  -1.468   8.343  0.00  0.00    -0.300 N 
ATOM     31  C   UNL     1       0.432  -2.195   9.384  0.00  0.00    +0.280 C 
ATOM     32  O   UNL     1      -0.327  -1.693  10.192  0.00  0.00    -0.267 OA
ATOM     33  H   UNL     1       1.490  -1.869   7.699  0.00  0.00    +0.150 HD
BRANCH  31  34
ATOM     34  C   UNL     1       0.853  -3.591   9.542  0.00  0.00    +0.189 A 
ATOM     35  C   UNL     1       0.470  -4.435  10.545  0.00  0.00    +0.054 A 
ATOM     36  C   UNL     1       1.107  -5.663  10.304  0.00  0.00    +0.042 A 
ATOM     37  C   UNL     1       1.841  -5.516   9.179  0.00  0.00    +0.196 A 
ATOM     38  O   UNL     1       1.681  -4.268   8.720  0.00  0.00    -0.458 OA
ENDBRANCH  31  34
ENDBRANCH  29  30
ENDBRANCH   2  29
TORSDOF 9
