REMARK  Name = ZINC39697807
REMARK  5 active torsions:
REMARK  status: ('A' for Active; 'I' for Inactive)
REMARK    1  A    between atoms: C_1  and  C_2
REMARK    2  A    between atoms: C_4  and  C_8
REMARK    3  A    between atoms: N_10  and  N_11
REMARK    4  A    between atoms: C_12  and  C_13
REMARK    5  A    between atoms: C_16  and  N_19
REMARK                            x       y       z     vdW  Elec       q    Type
REMARK                         _______ _______ _______ _____ _____    ______ ____
ROOT
ATOM      1  C   UNL     1      -0.957  -2.942   1.228  0.00  0.00    +0.264 C 
ATOM      2  O   UNL     1      -0.189  -3.060   2.159  0.00  0.00    -0.271 OA
ATOM      3  N   UNL     1      -2.190  -3.480   1.298  0.00  0.00    -0.205 N 
ATOM      4  H   UNL     1      -2.804  -3.385   0.553  0.00  0.00    +0.177 HD
ENDROOT
BRANCH   1   8
ATOM      5  C   UNL     1      -0.018   1.503   0.010  0.00  0.00    +0.068 C 
ATOM      6  C   UNL     1       0.002  -0.004   0.002  0.00  0.00    +0.073 C 
ATOM      7  C   UNL     1      -1.088  -0.778   0.003  0.00  0.00    +0.053 C 
ATOM      8  C   UNL     1      -0.532  -2.191  -0.008  0.00  0.00    +0.253 C 
ATOM      9  N   UNL     1       0.925  -1.973  -0.014  0.00  0.00    -0.169 NA
ATOM     10  N   UNL     1       1.123  -0.756  -0.013  0.00  0.00    -0.157 NA
ATOM     11 BR   UNL     1      -2.901  -0.240   0.015  0.00  0.00    -0.050 Br
ENDBRANCH   1   8
BRANCH   3  12
ATOM     12  N   UNL     1      -2.585  -4.178   2.447  0.00  0.00    -0.188 NA
ATOM     13  C   UNL     1      -3.773  -4.696   2.515  0.00  0.00    +0.138 C 
BRANCH  13  14
ATOM     14  C   UNL     1      -4.189  -5.431   3.724  0.00  0.00    -0.005 A 
ATOM     15  C   UNL     1      -3.309  -5.565   4.801  0.00  0.00    +0.012 A 
ATOM     16  C   UNL     1      -3.705  -6.253   5.929  0.00  0.00    +0.033 A 
ATOM     17  C   UNL     1      -4.970  -6.810   5.996  0.00  0.00    +0.126 A 
ATOM     18  C   UNL     1      -5.846  -6.681   4.933  0.00  0.00    +0.033 A 
ATOM     19  C   UNL     1      -5.466  -5.990   3.801  0.00  0.00    +0.012 A 
BRANCH  17  20
ATOM     20  N   UNL     1      -5.387  -7.547   7.209  0.00  0.00    +0.056 N 
ATOM     21  O   UNL     1      -4.623  -7.662   8.140  0.00  0.00    -0.126 OA
ATOM     22  O   UNL     1      -6.492  -8.035   7.270  0.00  0.00    -0.126 OA
ENDBRANCH  17  20
ENDBRANCH  13  14
ENDBRANCH   3  12
TORSDOF 4
