REMARK  Name = ZINC41036518
REMARK  3 active torsions:
REMARK  status: ('A' for Active; 'I' for Inactive)
REMARK    1  A    between atoms: C_1  and  C_2
REMARK    2  A    between atoms: N_11  and  C_15
REMARK    3  A    between atoms: C_19  and  N_21
REMARK                            x       y       z     vdW  Elec       q    Type
REMARK                         _______ _______ _______ _____ _____    ______ ____
ROOT
ATOM      1  C   UNL     1       0.035   1.559   0.050  0.00  0.00    +0.007 C 
ATOM      2  C   UNL     1       0.041   0.029   0.022  0.00  0.00    -0.012 C 
ATOM      3  C   UNL     1      -1.400  -0.486   0.014  0.00  0.00    +0.003 C 
ATOM      4  C   UNL     1      -1.395  -2.016  -0.026  0.00  0.00    +0.003 C 
ATOM      5  C   UNL     1      -0.678  -2.555   1.214  0.00  0.00    +0.035 C 
ATOM      6  C   UNL     1       0.752  -2.026   1.248  0.00  0.00    +0.113 C 
ATOM      7  C   UNL     1       0.764  -0.502   1.262  0.00  0.00    +0.038 C 
ATOM      8  C   UNL     1       1.536  -2.549   0.067  0.00  0.00    +0.251 C 
ATOM      9  O   UNL     1       1.306  -2.360  -1.109  0.00  0.00    -0.272 OA
ATOM     10  N   UNL     1       2.546  -3.271   0.595  0.00  0.00    -0.192 N 
ATOM     11  C   UNL     1       2.503  -3.272   1.933  0.00  0.00    +0.314 C 
ATOM     12  O   UNL     1       3.308  -3.853   2.635  0.00  0.00    -0.252 OA
ATOM     13  N   UNL     1       1.468  -2.557   2.415  0.00  0.00    -0.285 N 
ATOM     14  H   UNL     1       1.242  -2.420   3.348  0.00  0.00    +0.151 HD
ENDROOT
BRANCH  10  15
ATOM     15  C   UNL     1       3.519  -3.937  -0.162  0.00  0.00    +0.047 A 
ATOM     16  C   UNL     1       4.590  -4.555   0.470  0.00  0.00    +0.024 A 
ATOM     17  C   UNL     1       5.550  -5.212  -0.275  0.00  0.00    +0.004 A 
ATOM     18  C   UNL     1       5.449  -5.256  -1.652  0.00  0.00    +0.023 A 
ATOM     19  C   UNL     1       4.380  -4.639  -2.291  0.00  0.00    +0.026 A 
ATOM     20  C   UNL     1       3.411  -3.984  -1.544  0.00  0.00    +0.046 A 
BRANCH  19  21
ATOM     21  N   UNL     1       4.278  -4.684  -3.684  0.00  0.00    -0.358 N 
ATOM     22  H   UNL     1       4.954  -5.145  -4.205  0.00  0.00    +0.142 HD
ATOM     23  H   UNL     1       3.532  -4.253  -4.129  0.00  0.00    +0.142 HD
ENDBRANCH  19  21
ENDBRANCH  10  15
TORSDOF 2
