REMARK  Name = ZINC28445786
REMARK  7 active torsions:
REMARK  status: ('A' for Active; 'I' for Inactive)
REMARK    1  A    between atoms: C_1  and  C_2
REMARK    2  A    between atoms: C_9  and  C_11
REMARK    3  A    between atoms: C_11  and  S_12
REMARK    4  A    between atoms: S_12  and  C_13
REMARK    5  A    between atoms: C_16  and  C_25
REMARK    6  A    between atoms: N_17  and  C_18
REMARK    7  A    between atoms: C_18  and  C_19
REMARK                            x       y       z     vdW  Elec       q    Type
REMARK                         _______ _______ _______ _____ _____    ______ ____
ROOT
ATOM      1  C   UNL     1       3.306   6.215   0.855  0.00  0.00    +0.192 A 
ATOM      2  N   UNL     1       4.092   5.221   1.202  0.00  0.00    -0.122 NA
ATOM      3  N   UNL     1       3.391   4.186   1.497  0.00  0.00    -0.128 NA
ATOM      4  C   UNL     1       2.112   4.451   1.347  0.00  0.00    +0.172 A 
ATOM      5  N   UNL     1       2.018   5.762   0.935  0.00  0.00    -0.299 N 
ENDROOT
BRANCH   4   6
ATOM      6  C   UNL     1       0.992   3.525   1.583  0.00  0.00    +0.056 A 
ATOM      7  C   UNL     1       1.013   2.160   1.720  0.00  0.00    +0.019 A 
ATOM      8  C   UNL     1      -0.175   1.500   1.935  0.00  0.00    +0.008 A 
ATOM      9  C   UNL     1      -1.328   2.215   2.001  0.00  0.00    +0.046 A 
ATOM     10  S   UNL     1      -0.747   3.886   1.763  0.00  0.00    -0.094 S 
ENDBRANCH   4   6
BRANCH   1  11
ATOM     11  S   UNL     1       3.816   7.832   0.375  0.00  0.00    -0.077 S 
BRANCH  11  12
ATOM     12  C   UNL     1       5.611   7.650   0.517  0.00  0.00    +0.173 C 
BRANCH  12  20
ATOM     13  C   UNL     1       7.248  11.337  -0.618  0.00  0.00    +0.028 C 
ATOM     14  C   UNL     1       8.294  10.269  -0.294  0.00  0.00    +0.073 C 
ATOM     15  C   UNL     1       9.224  10.776   0.818  0.00  0.00    +0.022 C 
ATOM     16  C   UNL     1      10.178   9.652   1.228  0.00  0.00    +0.003 C 
ATOM     17  C   UNL     1       9.373   8.471   1.776  0.00  0.00    +0.019 C 
ATOM     18  C   UNL     1       8.444   7.940   0.679  0.00  0.00    +0.108 C 
ATOM     19  N   UNL     1       7.623   9.050   0.177  0.00  0.00    -0.298 N 
ATOM     20  C   UNL     1       6.279   8.949   0.145  0.00  0.00    +0.226 C 
ATOM     21  O   UNL     1       5.607   9.903  -0.185  0.00  0.00    -0.275 OA
ENDBRANCH  12  20
ENDBRANCH  11  12
ENDBRANCH   1  11
BRANCH   5  22
ATOM     22  C   UNL     1       0.795   6.513   0.643  0.00  0.00    +0.157 C 
BRANCH  22  23
ATOM     23  C   UNL     1       0.304   7.203   1.917  0.00  0.00    +0.138 C 
ATOM     24  C   UNL     1      -0.959   8.049   1.619  0.00  0.00    +0.035 C 
ATOM     25  C   UNL     1      -1.622   8.094   3.022  0.00  0.00    +0.031 C 
ATOM     26  C   UNL     1      -1.258   6.710   3.602  0.00  0.00    +0.160 C 
ATOM     27  O   UNL     1      -0.117   6.227   2.883  0.00  0.00    -0.375 OA
ENDBRANCH  22  23
ENDBRANCH   5  22
TORSDOF 6
