REMARK  Name = ZINC50363504
REMARK  8 active torsions:
REMARK  status: ('A' for Active; 'I' for Inactive)
REMARK    1  A    between atoms: C_1  and  C_2
REMARK    2  A    between atoms: C_2  and  C_4
REMARK    3  A    between atoms: C_2  and  N_10
REMARK    4  A    between atoms: N_10  and  C_11
REMARK    5  A    between atoms: C_14  and  C_20
REMARK    6  A    between atoms: CA_16  and  C_17
REMARK    7  A    between atoms: C_20  and  C_21
REMARK    8  A    between atoms: C_20  and  C_22
REMARK                            x       y       z     vdW  Elec       q    Type
REMARK                         _______ _______ _______ _____ _____    ______ ____
ROOT
ATOM      1  C   UNL     1       2.094  -0.585   1.178  0.00  0.00    +0.079 A 
ATOM      2  C   UNL     1       2.825  -0.337   0.010  0.00  0.00    +0.138 A 
ATOM      3  N   UNL     1       4.136  -0.474   0.034  0.00  0.00    -0.238 NA
ATOM      4  C   UNL     1       4.765  -0.840   1.136  0.00  0.00    +0.133 A 
ATOM      5  N   UNL     1       4.127  -1.085   2.258  0.00  0.00    -0.223 NA
ATOM      6  CA  UNL     1       2.801  -0.966   2.330  0.00  0.00    +0.176 A 
ENDROOT
BRANCH   6   7
ATOM      7  C   UNL     1       2.088  -1.235   3.596  0.00  0.00    +0.406 C 
ATOM      8  O   UNL     1       2.594  -1.963   4.439  0.00  0.00    -0.239 OA
ATOM      9  OXT UNL     1       0.994  -0.731   3.800  0.00  0.00    -0.239 OA
ENDBRANCH   6   7
BRANCH   4  10
ATOM     10  C   UNL     1       6.265  -0.981   1.106  0.00  0.00    +0.051 C 
ATOM     11  C   UNL     1       6.657  -2.037   0.070  0.00  0.00    +0.015 C 
ATOM     12  C   UNL     1       6.896   0.361   0.729  0.00  0.00    +0.015 C 
ENDBRANCH   4  10
BRANCH   1  13
ATOM     13  N   UNL     1       0.714  -0.452   1.199  0.00  0.00    -0.336 N 
ATOM     14  H   UNL     1       0.214  -0.712   1.988  0.00  0.00    +0.147 HD
BRANCH  13  16
ATOM     15  C   UNL     1       0.012   1.608   0.084  0.00  0.00    +0.030 C 
ATOM     16  C   UNL     1       0.012   0.079   0.028  0.00  0.00    +0.096 C 
BRANCH  16  17
ATOM     17  C   UNL     1      -1.431  -0.431   0.024  0.00  0.00    +0.138 C 
ATOM     18  C   UNL     1      -1.456  -1.976   0.130  0.00  0.00    +0.035 C 
ATOM     19  C   UNL     1      -2.863  -2.207   0.745  0.00  0.00    +0.031 C 
ATOM     20  C   UNL     1      -3.026  -0.975   1.661  0.00  0.00    +0.160 C 
ATOM     21  O   UNL     1      -2.129   0.038   1.189  0.00  0.00    -0.375 OA
ENDBRANCH  16  17
ENDBRANCH  13  16
ENDBRANCH   1  13
TORSDOF 5
