REMARK  Name = ZINC12311994
REMARK  12 active torsions:
REMARK  status: ('A' for Active; 'I' for Inactive)
REMARK    1  A    between atoms: C_1  and  C_2
REMARK    2  A    between atoms: C_5  and  N_9
REMARK    3  A    between atoms: C_6  and  C_8
REMARK    4  A    between atoms: N_9  and  S_10
REMARK    5  A    between atoms: S_10  and  C_13
REMARK    6  A    between atoms: C_15  and  N_33
REMARK    7  A    between atoms: C_18  and  N_19
REMARK    8  A    between atoms: N_19  and  N_20
REMARK    9  A    between atoms: C_21  and  C_22
REMARK   10  A    between atoms: C_21  and  C_23
REMARK   11  A    between atoms: C_28  and  O_29
REMARK   12  A    between atoms: O_29  and  C_30
REMARK                            x       y       z     vdW  Elec       q    Type
REMARK                         _______ _______ _______ _____ _____    ______ ____
ROOT
ATOM      1  C   UNL     1       2.814   1.169  -2.264  0.00  0.00    +0.133 A 
ATOM      2  C   UNL     1       3.877   1.112  -3.144  0.00  0.00    +0.063 A 
ATOM      3  C   UNL     1       3.682   1.382  -4.486  0.00  0.00    +0.128 A 
ATOM      4  C   UNL     1       2.421   1.709  -4.953  0.00  0.00    +0.035 A 
ATOM      5  C   UNL     1       1.353   1.767  -4.079  0.00  0.00    +0.029 A 
ATOM      6  C   UNL     1       1.545   1.492  -2.730  0.00  0.00    +0.075 A 
ENDROOT
BRANCH   1   7
ATOM      7  S   UNL     1       3.064   0.824  -0.555  0.00  0.00    +0.074 S 
ATOM      8  O   UNL     1       2.467   1.892   0.167  0.00  0.00    -0.150 OA
ATOM      9  O   UNL     1       4.434   0.477  -0.407  0.00  0.00    -0.150 OA
BRANCH   7  10
ATOM     10  N   UNL     1       2.190  -0.536  -0.196  0.00  0.00    -0.216 N 
ATOM     11  H   UNL     1       1.490  -0.500   0.473  0.00  0.00    +0.174 HD
BRANCH  10  16
ATOM     12  C   UNL     1       3.296  -5.407  -2.883  0.00  0.00    +0.044 C 
ATOM     13  C   UNL     1       3.002  -4.112  -2.169  0.00  0.00    -0.050 A 
ATOM     14  C   UNL     1       4.034  -3.243  -1.865  0.00  0.00    +0.005 A 
ATOM     15  C   UNL     1       3.769  -2.059  -1.206  0.00  0.00    +0.025 A 
ATOM     16  C   UNL     1       2.463  -1.736  -0.858  0.00  0.00    +0.051 A 
ATOM     17  C   UNL     1       1.428  -2.609  -1.171  0.00  0.00    -0.028 A 
ATOM     18  C   UNL     1       1.701  -3.794  -1.825  0.00  0.00    +0.008 A 
ATOM     19  C   UNL     1       0.010  -2.263  -0.795  0.00  0.00    +0.046 C 
ENDBRANCH  10  16
ENDBRANCH   7  10
ENDBRANCH   1   7
BRANCH   3  20
ATOM     20  N   UNL     1       4.824   1.321  -5.426  0.00  0.00    +0.056 N 
ATOM     21  O   UNL     1       5.935   1.033  -5.016  0.00  0.00    -0.126 OA
ATOM     22  O   UNL     1       4.654   1.558  -6.608  0.00  0.00    -0.126 OA
ENDBRANCH   3  20
BRANCH   6  23
ATOM     23  N   UNL     1       0.468   1.544  -1.846  0.00  0.00    -0.236 N 
ATOM     24  H   UNL     1       0.584   1.270  -0.923  0.00  0.00    +0.174 HD
BRANCH  23  25
ATOM     25  N   UNL     1      -0.783   1.993  -2.291  0.00  0.00    -0.187 NA
ATOM     26  C   UNL     1      -1.759   2.135  -1.447  0.00  0.00    +0.067 C 
ATOM     27  C   UNL     1      -1.550   1.810   0.009  0.00  0.00    +0.068 C 
BRANCH  26  28
ATOM     28  C   UNL     1      -3.072   2.616  -1.914  0.00  0.00    +0.039 A 
ATOM     29  C   UNL     1      -4.125   2.771  -1.009  0.00  0.00    +0.013 A 
ATOM     30  C   UNL     1      -5.351   3.221  -1.452  0.00  0.00    +0.001 A 
ATOM     31  C   UNL     1      -5.543   3.521  -2.790  0.00  0.00    +0.004 A 
ATOM     32  C   UNL     1      -4.508   3.372  -3.695  0.00  0.00    +0.046 A 
ATOM     33  C   UNL     1      -3.269   2.925  -3.266  0.00  0.00    +0.136 A 
BRANCH  33  34
ATOM     34  O   UNL     1      -2.251   2.784  -4.154  0.00  0.00    -0.434 OA
BRANCH  34  35
ATOM     35  C   UNL     1      -2.525   3.119  -5.516  0.00  0.00    +0.541 C 
ATOM     36  F   UNL     1      -3.558   2.306  -5.996  0.00  0.00    -0.166 F 
ATOM     37  F   UNL     1      -2.911   4.461  -5.597  0.00  0.00    -0.166 F 
ENDBRANCH  34  35
ENDBRANCH  33  34
ENDBRANCH  26  28
ENDBRANCH  23  25
ENDBRANCH   6  23
TORSDOF 9
