REMARK  Name = ZINC14746851
REMARK  9 active torsions:
REMARK  status: ('A' for Active; 'I' for Inactive)
REMARK    1  A    between atoms: C_1  and  O_2
REMARK    2  A    between atoms: O_2  and  C_3
REMARK    3  A    between atoms: C_3  and  C_4
REMARK    4  A    between atoms: C_4  and  C_5
REMARK    5  A    between atoms: C_5  and  N_6
REMARK    6  A    between atoms: N_9  and  C_29
REMARK    7  A    between atoms: C_17  and  C_18
REMARK    8  A    between atoms: C_17  and  N_69
REMARK    9  A    between atoms: C_29  and  C_30
REMARK                            x       y       z     vdW  Elec       q    Type
REMARK                         _______ _______ _______ _____ _____    ______ ____
ROOT
ATOM      1  N   UNL     1      -3.090  -0.199   3.535  0.00  0.00    -0.271 N 
ATOM      2  C   UNL     1      -2.738  -0.065   2.242  0.00  0.00    +0.312 C 
ATOM      3  O   UNL     1      -2.200  -0.940   1.593  0.00  0.00    -0.252 OA
ATOM      4  N   UNL     1      -3.044   1.143   1.753  0.00  0.00    -0.220 N 
ATOM      5  C   UNL     1      -3.640   1.919   2.682  0.00  0.00    +0.247 C 
ATOM      6  O   UNL     1      -4.037   3.056   2.544  0.00  0.00    -0.273 OA
ATOM      7  C   UNL     1      -3.708   1.072   3.931  0.00  0.00    +0.112 C 
ATOM      8  C   UNL     1      -5.158   0.854   4.351  0.00  0.00    +0.017 C 
ATOM      9  C   UNL     1      -5.195   0.016   5.632  0.00  0.00    -0.076 C 
ATOM     10  C   UNL     1      -3.027   0.857   6.320  0.00  0.00    -0.076 C 
ATOM     11  C   UNL     1      -2.917   1.722   5.062  0.00  0.00    +0.017 C 
ATOM     12  N   UNL     1      -4.453   0.732   6.692  0.00  0.00    +0.383 N 
ATOM     13  H   UNL     1      -4.851   1.672   6.801  0.00  0.00    -0.081 HD
ENDROOT
BRANCH   1  14
ATOM     14  C   UNL     1      -2.898  -1.382   4.378  0.00  0.00    +0.112 C 
BRANCH  14  15
ATOM     15  C   UNL     1      -1.402  -1.608   4.608  0.00  0.00    +0.047 C 
BRANCH  15  16
ATOM     16  C   UNL     1      -1.206  -2.764   5.590  0.00  0.00    +0.161 C 
BRANCH  16  18
ATOM     17  C   UNL     1       0.485  -4.040   6.712  0.00  0.00    +0.193 C 
ATOM     18  O   UNL     1       0.191  -2.975   5.805  0.00  0.00    -0.383 OA
ENDBRANCH  16  18
ENDBRANCH  15  16
ENDBRANCH  14  15
ENDBRANCH   1  14
BRANCH  12  19
ATOM     19  C   UNL     1      -4.578   0.006   7.973  0.00  0.00    -0.024 C 
BRANCH  19  20
ATOM     20  C   UNL     1      -6.025  -0.349   8.199  0.00  0.00    +0.009 A 
ATOM     21  C   UNL     1      -6.605  -1.529   7.901  0.00  0.00    +0.021 A 
ATOM     22  C   UNL     1      -7.962  -1.440   8.272  0.00  0.00    +0.020 A 
ATOM     23  C   UNL     1      -8.162  -0.208   8.784  0.00  0.00    +0.093 A 
ATOM     24  N   UNL     1      -6.974   0.467   8.748  0.00  0.00    -0.307 N 
ATOM     25  C   UNL     1      -6.766   1.775   9.194  0.00  0.00    +0.138 A 
ATOM     26  C   UNL     1      -7.825   2.495   9.733  0.00  0.00    +0.047 A 
ATOM     27  C   UNL     1      -7.605   3.789  10.172  0.00  0.00    +0.005 A 
ATOM     28  C   UNL     1      -6.328   4.320  10.055  0.00  0.00    +0.020 A 
ATOM     29  C   UNL     1      -5.322   3.546   9.508  0.00  0.00    +0.113 A 
ATOM     30  N   UNL     1      -5.561   2.314   9.104  0.00  0.00    -0.238 NA
ENDBRANCH  19  20
ENDBRANCH  12  19
BRANCH   4  31
ATOM     31  C   UNL     1      -2.772   1.568   0.378  0.00  0.00    +0.153 C 
BRANCH  31  32
ATOM     32  C   UNL     1      -1.409   2.206   0.309  0.00  0.00    -0.030 A 
ATOM     33  C   UNL     1      -0.295   1.431   0.045  0.00  0.00    +0.005 A 
ATOM     34  C   UNL     1       0.955   2.017  -0.024  0.00  0.00    +0.000 A 
ATOM     35  C   UNL     1       1.092   3.377   0.178  0.00  0.00    +0.000 A 
ATOM     36  C   UNL     1      -0.021   4.152   0.447  0.00  0.00    +0.000 A 
ATOM     37  C   UNL     1      -1.271   3.566   0.516  0.00  0.00    +0.005 A 
ENDBRANCH  31  32
ENDBRANCH   4  31
TORSDOF 8
