REMARK  Name = ZINC13034036
REMARK  10 active torsions:
REMARK  status: ('A' for Active; 'I' for Inactive)
REMARK    1  A    between atoms: C_1  and  C_2
REMARK    2  A    between atoms: C_2  and  C_3
REMARK    3  A    between atoms: C_10  and  C_15
REMARK    4  A    between atoms: C_15  and  N_72
REMARK    5  A    between atoms: C_16  and  N_72
REMARK    6  A    between atoms: C_22  and  C_24
REMARK    7  A    between atoms: C_22  and  C_26
REMARK    8  A    between atoms: C_22  and  N_72
REMARK    9  A    between atoms: C_24  and  C_25
REMARK   10  A    between atoms: N_30  and  C_31
REMARK                            x       y       z     vdW  Elec       q    Type
REMARK                         _______ _______ _______ _____ _____    ______ ____
ROOT
ATOM      1  N   UNL     1       3.198  -2.182  -1.326  0.00  0.00    +0.391 N 
ATOM      2  H   UNL     1       4.172  -1.976  -1.074  0.00  0.00    -0.080 HD
ENDROOT
BRANCH   1   3
ATOM      3  C   UNL     1       2.927  -1.644  -2.675  0.00  0.00    -0.067 C 
ATOM      4  C   UNL     1       1.545  -2.085  -3.162  0.00  0.00    -0.015 C 
ATOM      5  C   UNL     1       1.292  -1.519  -4.560  0.00  0.00    -0.002 C 
ATOM      6  C   UNL     1       2.361  -2.039  -5.523  0.00  0.00    -0.000 C 
ATOM      7  C   UNL     1       3.743  -1.597  -5.037  0.00  0.00    -0.002 C 
ATOM      8  C   UNL     1       3.997  -2.164  -3.638  0.00  0.00    -0.015 C 
ENDBRANCH   1   3
BRANCH   1   9
ATOM      9  C   UNL     1       2.999  -3.646  -1.316  0.00  0.00    -0.036 C 
BRANCH   9  17
ATOM     10  C   UNL     1       3.913  -6.525   4.084  0.00  0.00    -0.047 A 
ATOM     11  C   UNL     1       5.298  -6.418   4.085  0.00  0.00    +0.005 A 
ATOM     12  C   UNL     1       5.956  -5.798   3.045  0.00  0.00    +0.026 A 
ATOM     13  C   UNL     1       5.228  -5.273   1.982  0.00  0.00    +0.049 A 
ATOM     14  C   UNL     1       3.824  -5.383   1.985  0.00  0.00    -0.001 A 
ATOM     15  C   UNL     1       3.178  -6.017   3.051  0.00  0.00    +0.013 A 
ATOM     16  C   UNL     1       3.067  -4.824   0.864  0.00  0.00    +0.017 A 
ATOM     17  C   UNL     1       3.748  -4.227  -0.145  0.00  0.00    +0.001 A 
ATOM     18  C   UNL     1       5.156  -4.143  -0.099  0.00  0.00    +0.251 A 
ATOM     19  O   UNL     1       5.749  -3.597  -1.014  0.00  0.00    -0.268 OA
ATOM     20  N   UNL     1       5.860  -4.649   0.929  0.00  0.00    -0.322 N 
ATOM     21  H   UNL     1       6.827  -4.574   0.928  0.00  0.00    +0.169 HD
BRANCH  10  23
ATOM     22  C   UNL     1       3.078  -8.701   4.931  0.00  0.00    +0.009 C 
ATOM     23  C   UNL     1       3.216  -7.207   5.233  0.00  0.00    +0.032 C 
ENDBRANCH  10  23
ENDBRANCH   9  17
ENDBRANCH   1   9
BRANCH   1  24
ATOM     24  C   UNL     1       2.302  -1.544  -0.339  0.00  0.00    +0.003 C 
BRANCH  24  25
ATOM     25  C   UNL     1       2.221  -0.066  -0.624  0.00  0.00    +0.138 A 
ATOM     26  N   UNL     1       3.220   0.731  -0.916  0.00  0.00    -0.115 NA
ATOM     27  N   UNL     1       2.747   1.916  -1.090  0.00  0.00    -0.023 NA
ATOM     28  N   UNL     1       1.471   1.896  -0.916  0.00  0.00    -0.044 NA
ATOM     29  N   UNL     1       1.109   0.692  -0.627  0.00  0.00    -0.228 N 
BRANCH  29  30
ATOM     30  C   UNL     1      -0.256   0.236  -0.354  0.00  0.00    +0.111 C 
ATOM     31  C   UNL     1      -1.169   0.549  -1.557  0.00  0.00    +0.027 C 
ATOM     32  C   UNL     1      -2.521   0.949  -0.914  0.00  0.00    +0.002 C 
ATOM     33  C   UNL     1      -2.081   1.751   0.336  0.00  0.00    +0.002 C 
ATOM     34  C   UNL     1      -0.836   0.999   0.850  0.00  0.00    +0.027 C 
ENDBRANCH  29  30
ENDBRANCH  24  25
BRANCH  24  35
ATOM     35  C   UNL     1       2.880  -1.762   1.061  0.00  0.00    -0.011 C 
ATOM     36  C   UNL     1       1.945  -1.142   2.102  0.00  0.00    +0.002 C 
ENDBRANCH  24  35
ENDBRANCH   1  24
TORSDOF 8
