REMARK  Name = ZINC57933411
REMARK  3 active torsions:
REMARK  status: ('A' for Active; 'I' for Inactive)
REMARK    1  A    between atoms: N_9  and  C_14
REMARK    2  A    between atoms: C_14  and  C_15
REMARK    3  A    between atoms: N_17  and  C_18
REMARK                            x       y       z     vdW  Elec       q    Type
REMARK                         _______ _______ _______ _____ _____    ______ ____
ROOT
ATOM      1  C   UNL     1      -0.017   1.381   0.010  0.00  0.00    +0.066 A 
ATOM      2  C   UNL     1       1.175   2.084   0.002  0.00  0.00    +0.052 A 
ATOM      3  C   UNL     1       2.393   1.403  -0.016  0.00  0.00    +0.061 A 
ATOM      4  C   UNL     1       2.405   0.017  -0.021  0.00  0.00    +0.066 A 
ATOM      5  C   UNL     1       1.211  -0.683  -0.012  0.00  0.00    +0.160 A 
ATOM      6  C   UNL     1       0.002  -0.004   0.002  0.00  0.00    +0.160 A 
ATOM      7  F   UNL     1      -1.159  -0.694   0.009  0.00  0.00    -0.202 F 
ATOM      8  F   UNL     1       1.223  -2.034  -0.017  0.00  0.00    -0.202 F 
ATOM      9  N   UNL     1       3.591   2.129  -0.035  0.00  0.00    -0.259 N 
ATOM     10  C   UNL     1       3.601   3.445   0.249  0.00  0.00    +0.237 C 
ATOM     11  O   UNL     1       4.642   4.064   0.185  0.00  0.00    -0.274 OA
ATOM     12  C   UNL     1       2.334   4.159   0.646  0.00  0.00    +0.198 C 
ATOM     13  N   UNL     1       1.188   3.487   0.016  0.00  0.00    -0.334 N 
ATOM     14  H   UNL     1       0.464   3.998  -0.379  0.00  0.00    +0.147 HD
ENDROOT
BRANCH   9  15
ATOM     15  C   UNL     1       4.845   1.450  -0.368  0.00  0.00    +0.209 C 
BRANCH  15  16
ATOM     16  C   UNL     1       5.072   1.515  -1.856  0.00  0.00    +0.231 C 
ATOM     17  O   UNL     1       4.266   2.074  -2.569  0.00  0.00    -0.274 OA
ATOM     18  N   UNL     1       6.172   0.952  -2.395  0.00  0.00    -0.311 N 
ATOM     19  H   UNL     1       6.817   0.505  -1.825  0.00  0.00    +0.149 HD
BRANCH  18  20
ATOM     20  C   UNL     1       6.393   1.015  -3.842  0.00  0.00    +0.073 C 
ATOM     21  C   UNL     1       5.649  -0.136  -4.522  0.00  0.00    +0.022 C 
ATOM     22  C   UNL     1       5.880  -0.070  -6.033  0.00  0.00    +0.002 C 
ATOM     23  C   UNL     1       7.377  -0.186  -6.326  0.00  0.00    +0.000 C 
ATOM     24  C   UNL     1       8.121   0.965  -5.646  0.00  0.00    +0.002 C 
ATOM     25  C   UNL     1       7.890   0.899  -4.135  0.00  0.00    +0.022 C 
ENDBRANCH  18  20
ENDBRANCH  15  16
ENDBRANCH   9  15
TORSDOF 3
