REMARK  Name = ZINC03979011
REMARK  9 active torsions:
REMARK  status: ('A' for Active; 'I' for Inactive)
REMARK    1  A    between atoms: C_1  and  C_2
REMARK    2  A    between atoms: C_2  and  C_34
REMARK    3  A    between atoms: C_9  and  C_13
REMARK    4  A    between atoms: C_10  and  O_11
REMARK    5  A    between atoms: O_11  and  C_12
REMARK    6  A    between atoms: C_22  and  O_24
REMARK    7  A    between atoms: C_26  and  O_32
REMARK    8  A    between atoms: C_28  and  C_30
REMARK    9  A    between atoms: C_28  and  C_31
REMARK                            x       y       z     vdW  Elec       q    Type
REMARK                         _______ _______ _______ _____ _____    ______ ____
ROOT
ATOM      1  C   UNL     1       4.839  -0.202  -3.765  0.00  0.00    +0.031 C 
ATOM      2  C   UNL     1       5.815  -0.995  -3.346  0.00  0.00    +0.202 C 
ATOM      3  O   UNL     1       6.699  -1.561  -4.193  0.00  0.00    -0.463 OA
ATOM      4  C   UNL     1       6.401  -1.657  -5.512  0.00  0.00    +0.137 A 
ATOM      5  C   UNL     1       7.095  -2.556  -6.309  0.00  0.00    +0.092 A 
ATOM      6  C   UNL     1       6.801  -2.665  -7.662  0.00  0.00    +0.128 A 
ATOM      7  C   UNL     1       5.807  -1.875  -8.214  0.00  0.00    -0.003 A 
ATOM      8  C   UNL     1       5.117  -0.977  -7.417  0.00  0.00    +0.017 A 
ATOM      9  C   UNL     1       5.410  -0.865  -6.072  0.00  0.00    +0.028 A 
ATOM     10  C   UNL     1       4.648   0.114  -5.221  0.00  0.00    +0.182 C 
ATOM     11  C   UNL     1       5.449  -1.971  -9.676  0.00  0.00    +0.074 C 
ATOM     12  C   UNL     1       6.583  -2.658 -10.440  0.00  0.00    +0.162 C 
ATOM     13  C   UNL     1       6.976  -3.930  -9.679  0.00  0.00    +0.131 C 
ATOM     14  O   UNL     1       7.510  -3.549  -8.410  0.00  0.00    -0.483 OA
ATOM     15  C   UNL     1       8.032  -4.701 -10.473  0.00  0.00    +0.058 C 
ATOM     16  C   UNL     1       5.741  -4.811  -9.474  0.00  0.00    +0.058 C 
ENDROOT
BRANCH   1  25
ATOM     17  C   UNL     1      -0.765   2.003  -1.227  0.00  0.00    +0.060 C 
ATOM     18  C   UNL     1      -0.018   1.502   0.010  0.00  0.00    +0.124 C 
ATOM     19  C   UNL     1       0.002  -0.004   0.002  0.00  0.00    +0.020 C 
ATOM     20  C   UNL     1       0.990  -0.653  -0.610  0.00  0.00    +0.015 C 
ATOM     21  C   UNL     1       2.052   0.146  -1.257  0.00  0.00    +0.059 A 
ATOM     22  C   UNL     1       2.173   1.501  -0.912  0.00  0.00    +0.132 A 
ATOM     23  C   UNL     1       3.155   2.280  -1.498  0.00  0.00    +0.047 A 
ATOM     24  C   UNL     1       4.019   1.726  -2.422  0.00  0.00    +0.015 A 
ATOM     25  C   UNL     1       3.911   0.380  -2.775  0.00  0.00    +0.026 A 
ATOM     26  C   UNL     1       2.920  -0.418  -2.188  0.00  0.00    +0.138 A 
ATOM     27  O   UNL     1       1.312   2.022   0.000  0.00  0.00    -0.482 OA
ATOM     28  C   UNL     1      -0.742   1.990   1.267  0.00  0.00    +0.060 C 
BRANCH  26  29
ATOM     29  O   UNL     1       2.806  -1.729  -2.525  0.00  0.00    -0.494 OA
ATOM     30  C   UNL     1       1.948  -2.045  -3.623  0.00  0.00    +0.277 C 
ENDBRANCH  26  29
ENDBRANCH   1  25
BRANCH  10  31
ATOM     31  O   UNL     1       5.125   1.435  -5.485  0.00  0.00    -0.382 OA
ATOM     32  H   UNL     1       4.673   2.125  -4.980  0.00  0.00    +0.211 HD
ENDBRANCH  10  31
BRANCH  12  33
ATOM     33  O   UNL     1       7.708  -1.781 -10.525  0.00  0.00    -0.388 OA
ATOM     34  H   UNL     1       7.528  -0.955 -10.996  0.00  0.00    +0.210 HD
ENDBRANCH  12  33
TORSDOF 4
