REMARK  Name = ZINC63254475
REMARK  5 active torsions:
REMARK  status: ('A' for Active; 'I' for Inactive)
REMARK    1  A    between atoms: C_1  and  C_2
REMARK    2  A    between atoms: C_2  and  O_3
REMARK    3  A    between atoms: O_3  and  C_4
REMARK    4  A    between atoms: N_8  and  C_10
REMARK    5  A    between atoms: C_11  and  C_16
REMARK                            x       y       z     vdW  Elec       q    Type
REMARK                         _______ _______ _______ _____ _____    ______ ____
ROOT
ATOM      1  C   UNL     1       0.840  -1.792  -1.351  0.00  0.00    +0.135 C 
ATOM      2  C   UNL     1      -0.436  -2.331  -2.003  0.00  0.00    +0.035 C 
ATOM      3  C   UNL     1      -0.413  -3.861  -1.984  0.00  0.00    +0.021 C 
ATOM      4  C   UNL     1       0.791  -4.359  -2.791  0.00  0.00    +0.106 C 
ATOM      5  N   UNL     1       2.008  -3.731  -2.261  0.00  0.00    -0.320 N 
ATOM      6  C   UNL     1       2.057  -2.267  -2.150  0.00  0.00    +0.137 C 
ENDROOT
BRANCH   5   7
ATOM      7  C   UNL     1       3.087  -4.503  -1.873  0.00  0.00    +0.107 A 
ATOM      8  C   UNL     1       4.176  -4.925  -2.639  0.00  0.00    +0.118 A 
ATOM      9  C   UNL     1       5.103  -5.701  -1.941  0.00  0.00    +0.157 A 
ATOM     10  N   UNL     1       4.859  -5.941  -0.683  0.00  0.00    -0.196 NA
ATOM     11  S   UNL     1       3.416  -5.158  -0.364  0.00  0.00    +0.030 S 
ATOM     12 CL   UNL     1       6.525  -6.323  -2.718  0.00  0.00    -0.060 Cl
BRANCH   8  13
ATOM     13  C   UNL     1       4.327  -4.592  -4.024  0.00  0.00    +0.105 C 
ATOM     14  N   UNL     1       4.448  -4.327  -5.122  0.00  0.00    -0.191 NA
ENDBRANCH   8  13
ENDBRANCH   5   7
BRANCH   1  15
ATOM     15  O   UNL     1       0.803  -0.364  -1.340  0.00  0.00    -0.375 OA
BRANCH  15  17
ATOM     16  C   UNL     1       0.220   1.721  -0.266  0.00  0.00    +0.034 C 
ATOM     17  C   UNL     1       0.205   0.194  -0.169  0.00  0.00    +0.157 C 
ENDBRANCH  15  17
ENDBRANCH   1  15
TORSDOF 4
