REMARK  Name = ZINC35577791
REMARK  6 active torsions:
REMARK  status: ('A' for Active; 'I' for Inactive)
REMARK    1  A    between atoms: C_1  and  C_2
REMARK    2  A    between atoms: C_6  and  N_8
REMARK    3  A    between atoms: C_9  and  N_32
REMARK    4  A    between atoms: C_11  and  C_25
REMARK    5  A    between atoms: N_17  and  C_18
REMARK    6  A    between atoms: C_18  and  C_19
REMARK                            x       y       z     vdW  Elec       q    Type
REMARK                         _______ _______ _______ _____ _____    ______ ____
ROOT
ATOM      1  N   UNL     1      -0.313  -2.635   2.565  0.00  0.00    -0.216 N 
ATOM      2  C   UNL     1      -0.858  -3.853   2.758  0.00  0.00    +0.131 A 
ATOM      3  C   UNL     1      -0.466  -4.292   4.016  0.00  0.00    +0.086 A 
ATOM      4  C   UNL     1      -0.686  -5.447   4.799  0.00  0.00    +0.091 A 
ATOM      5  N   UNL     1      -0.124  -5.509   6.000  0.00  0.00    -0.214 NA
ATOM      6  C   UNL     1       0.630  -4.526   6.479  0.00  0.00    +0.218 A 
ATOM      7  N   UNL     1       0.887  -3.416   5.818  0.00  0.00    -0.193 NA
ATOM      8  C   UNL     1       0.378  -3.225   4.586  0.00  0.00    +0.189 A 
ATOM      9  N   UNL     1       0.442  -2.269   3.685  0.00  0.00    -0.144 NA
ATOM     10  N   UNL     1       1.176  -4.676   7.742  0.00  0.00    -0.311 N 
ATOM     11  H   UNL     1       1.004  -5.483   8.252  0.00  0.00    +0.149 HD
ENDROOT
BRANCH   1  17
ATOM     12  C   UNL     1      -0.774   1.796   0.483  0.00  0.00    +0.044 C 
ATOM     13  C   UNL     1      -0.700   0.294   0.376  0.00  0.00    -0.048 A 
ATOM     14  C   UNL     1      -0.791  -0.315  -0.863  0.00  0.00    +0.003 A 
ATOM     15  C   UNL     1      -0.724  -1.692  -0.966  0.00  0.00    +0.002 A 
ATOM     16  C   UNL     1      -0.565  -2.464   0.168  0.00  0.00    +0.028 A 
ATOM     17  C   UNL     1      -0.473  -1.856   1.413  0.00  0.00    +0.068 A 
ATOM     18  C   UNL     1      -0.535  -0.471   1.513  0.00  0.00    +0.031 A 
ENDBRANCH   1  17
BRANCH   4  19
ATOM     19  C   UNL     1      -1.522  -6.559   4.294  0.00  0.00    +0.036 A 
ATOM     20  C   UNL     1      -1.184  -7.205   3.104  0.00  0.00    +0.013 A 
ATOM     21  C   UNL     1      -1.966  -8.241   2.638  0.00  0.00    +0.001 A 
ATOM     22  C   UNL     1      -3.087  -8.640   3.347  0.00  0.00    +0.003 A 
ATOM     23  C   UNL     1      -3.429  -8.005   4.526  0.00  0.00    +0.039 A 
ATOM     24  C   UNL     1      -2.651  -6.969   5.008  0.00  0.00    +0.133 A 
ATOM     25  F   UNL     1      -2.983  -6.353   6.163  0.00  0.00    -0.205 F 
ENDBRANCH   4  19
BRANCH   2  26
ATOM     26  N   UNL     1      -1.661  -4.539   1.866  0.00  0.00    -0.342 N 
ATOM     27  H   UNL     1      -1.952  -4.110   1.046  0.00  0.00    +0.144 HD
ATOM     28  H   UNL     1      -1.933  -5.449   2.060  0.00  0.00    +0.144 HD
ENDBRANCH   2  26
BRANCH  10  29
ATOM     29  C   UNL     1       2.014  -3.616   8.308  0.00  0.00    +0.136 C 
BRANCH  29  30
ATOM     30  C   UNL     1       2.487  -4.031   9.703  0.00  0.00    +0.135 C 
ATOM     31  C   UNL     1       3.270  -2.872  10.356  0.00  0.00    +0.035 C 
ATOM     32  C   UNL     1       4.422  -3.620  11.082  0.00  0.00    +0.031 C 
ATOM     33  C   UNL     1       4.673  -4.793  10.101  0.00  0.00    +0.160 C 
ATOM     34  O   UNL     1       3.373  -5.152   9.603  0.00  0.00    -0.375 OA
ENDBRANCH  29  30
ENDBRANCH  10  29
TORSDOF 5
