REMARK  Name = ZINC03840233
REMARK  10 active torsions:
REMARK  status: ('A' for Active; 'I' for Inactive)
REMARK    1  A    between atoms: C_3  and  O_37
REMARK    2  A    between atoms: C_6  and  C_7
REMARK    3  A    between atoms: C_7  and  C_8
REMARK    4  A    between atoms: C_8  and  C_10
REMARK    5  A    between atoms: C_8  and  N_13
REMARK    6  A    between atoms: C_14  and  C_16
REMARK    7  A    between atoms: C_18  and  O_27
REMARK    8  A    between atoms: C_20  and  O_26
REMARK    9  A    between atoms: C_22  and  O_25
REMARK   10  A    between atoms: O_27  and  C_28
REMARK                            x       y       z     vdW  Elec       q    Type
REMARK                         _______ _______ _______ _____ _____    ______ ____
ROOT
ATOM      1  C   UNL     1      -1.107  -1.604  -4.239  0.00  0.00    +0.016 C 
ATOM      2  C   UNL     1      -1.280  -1.482  -5.537  0.00  0.00    +0.028 C 
ATOM      3  C   UNL     1      -2.619  -1.293  -6.187  0.00  0.00    +0.228 C 
ATOM      4  C   UNL     1      -3.737  -1.671  -5.214  0.00  0.00    +0.188 C 
ATOM      5  C   UNL     1      -3.481  -0.962  -3.878  0.00  0.00    +0.151 C 
ATOM      6  C   UNL     1      -2.227  -1.565  -3.241  0.00  0.00    +0.074 C 
ENDROOT
BRANCH   1   8
ATOM      7  N   UNL     1       0.485  -1.904  -2.412  0.00  0.00    -0.300 N 
ATOM      8  C   UNL     1       0.264  -1.781  -3.736  0.00  0.00    +0.241 C 
ATOM      9  O   UNL     1       1.197  -1.817  -4.514  0.00  0.00    -0.271 OA
ATOM     10  H   UNL     1      -0.260  -1.875  -1.791  0.00  0.00    +0.150 HD
BRANCH   7  11
ATOM     11  C   UNL     1       1.850  -2.081  -1.911  0.00  0.00    +0.163 C 
BRANCH  11  12
ATOM     12  C   UNL     1       2.219  -3.542  -1.962  0.00  0.00    +0.231 C 
ATOM     13  O   UNL     1       1.419  -4.354  -2.376  0.00  0.00    -0.274 OA
ATOM     14  N   UNL     1       3.436  -3.944  -1.547  0.00  0.00    -0.328 N 
ATOM     15  H   UNL     1       4.075  -3.294  -1.216  0.00  0.00    +0.145 HD
ATOM     16  H   UNL     1       3.673  -4.884  -1.579  0.00  0.00    +0.145 HD
ENDBRANCH  11  12
BRANCH  11  17
ATOM     17  C   UNL     1       1.932  -1.584  -0.466  0.00  0.00    +0.067 C 
BRANCH  17  23
ATOM     18  C   UNL     1       0.396   0.383  -0.281  0.00  0.00    +0.007 A 
ATOM     19  C   UNL     1       0.166   1.745  -0.248  0.00  0.00    +0.045 A 
ATOM     20  C   UNL     1       1.228   2.630  -0.366  0.00  0.00    +0.117 A 
ATOM     21  C   UNL     1       2.519   2.144  -0.516  0.00  0.00    +0.045 A 
ATOM     22  C   UNL     1       2.744   0.781  -0.549  0.00  0.00    +0.007 A 
ATOM     23  C   UNL     1       1.683  -0.098  -0.431  0.00  0.00    -0.045 A 
BRANCH  20  24
ATOM     24  O   UNL     1       1.004   3.970  -0.334  0.00  0.00    -0.507 OA
ATOM     25  H   UNL     1       1.041   4.354   0.552  0.00  0.00    +0.292 HD
ENDBRANCH  20  24
ENDBRANCH  17  23
ENDBRANCH  11  17
ENDBRANCH   7  11
ENDBRANCH   1   8
BRANCH   5  26
ATOM     26  O   UNL     1      -3.278   0.434  -4.107  0.00  0.00    -0.389 OA
ATOM     27  H   UNL     1      -3.095   0.942  -3.305  0.00  0.00    +0.210 HD
ENDBRANCH   5  26
BRANCH   4  28
ATOM     28  O   UNL     1      -4.997  -1.255  -5.744  0.00  0.00    -0.385 OA
ATOM     29  H   UNL     1      -5.750  -1.451  -5.169  0.00  0.00    +0.210 HD
ENDBRANCH   4  28
BRANCH   3  30
ATOM     30  O   UNL     1      -2.704  -2.119  -7.350  0.00  0.00    -0.482 OA
BRANCH  30  31
ATOM     31  C   UNL     1      -2.166  -1.628  -8.497  0.00  0.00    +0.122 A 
ATOM     32  C   UNL     1      -1.473  -0.426  -8.481  0.00  0.00    +0.046 A 
ATOM     33  C   UNL     1      -0.928   0.069  -9.649  0.00  0.00    +0.007 A 
ATOM     34  C   UNL     1      -1.071  -0.628 -10.837  0.00  0.00    -0.044 A 
ATOM     35  C   UNL     1      -1.761  -1.826 -10.855  0.00  0.00    -0.041 A 
ATOM     36  C   UNL     1      -2.304  -2.328  -9.685  0.00  0.00    +0.049 A 
ATOM     37  C   UNL     1      -1.776  -2.387 -12.262  0.00  0.00    +0.036 C 
ATOM     38  C   UNL     1      -0.655  -1.633 -13.008  0.00  0.00    +0.009 C 
ATOM     39  C   UNL     1      -0.574  -0.303 -12.229  0.00  0.00    +0.036 C 
ENDBRANCH  30  31
ENDBRANCH   3  30
TORSDOF 10
