REMARK  Name = ZINC05993461
REMARK  5 active torsions:
REMARK  status: ('A' for Active; 'I' for Inactive)
REMARK    1  A    between atoms: C_1  and  C_2
REMARK    2  A    between atoms: C_5  and  N_9
REMARK    3  A    between atoms: C_7  and  C_8
REMARK    4  A    between atoms: C_19  and  S_20
REMARK    5  A    between atoms: S_20  and  C_21
REMARK                            x       y       z     vdW  Elec       q    Type
REMARK                         _______ _______ _______ _____ _____    ______ ____
ROOT
ATOM      1  N   UNL     1       3.585   2.124  -0.021  0.00  0.00    -0.255 N 
ATOM      2  C   UNL     1       4.761   1.460   0.066  0.00  0.00    +0.267 A 
ATOM      3  O   UNL     1       4.795   0.247   0.152  0.00  0.00    -0.267 OA
ATOM      4  C   UNL     1       5.994   2.258   0.053  0.00  0.00    +0.065 A 
ATOM      5  C   UNL     1       7.255   1.667   0.137  0.00  0.00    +0.015 A 
ATOM      6  C   UNL     1       8.371   2.457   0.121  0.00  0.00    +0.001 A 
ATOM      7  C   UNL     1       8.263   3.838   0.020  0.00  0.00    +0.002 A 
ATOM      8  C   UNL     1       7.041   4.443  -0.064  0.00  0.00    +0.028 A 
ATOM      9  C   UNL     1       5.880   3.663  -0.049  0.00  0.00    +0.079 A 
ATOM     10  N   UNL     1       4.650   4.221  -0.131  0.00  0.00    -0.223 NA
ATOM     11  C   UNL     1       3.564   3.488  -0.123  0.00  0.00    +0.177 A 
ENDROOT
BRANCH   1  16
ATOM     12  C   UNL     1      -1.293  -0.775   0.012  0.00  0.00    +0.044 C 
ATOM     13  C   UNL     1       0.003  -0.005   0.003  0.00  0.00    -0.047 A 
ATOM     14  C   UNL     1       0.639   0.261  -1.196  0.00  0.00    +0.005 A 
ATOM     15  C   UNL     1       1.826   0.967  -1.207  0.00  0.00    +0.026 A 
ATOM     16  C   UNL     1       2.381   1.409  -0.013  0.00  0.00    +0.052 A 
ATOM     17  C   UNL     1       1.739   1.140   1.188  0.00  0.00    +0.030 A 
ATOM     18  C   UNL     1       0.552   0.434   1.193  0.00  0.00    -0.046 A 
ATOM     19  C   UNL     1      -0.145   0.143   2.497  0.00  0.00    +0.044 C 
ENDBRANCH   1  16
BRANCH  11  20
ATOM     20  S   UNL     1       2.003   4.297  -0.241  0.00  0.00    -0.076 S 
BRANCH  20  21
ATOM     21  C   UNL     1       2.549   6.020  -0.348  0.00  0.00    +0.120 C 
ATOM     22  C   UNL     1       1.339   6.930  -0.577  0.00  0.00    +0.022 C 
ATOM     23  C   UNL     1       1.785   8.392  -0.526  0.00  0.00    +0.002 C 
ATOM     24  C   UNL     1       2.316   8.724   0.870  0.00  0.00    +0.008 C 
ATOM     25  C   UNL     1       3.564   7.880   1.153  0.00  0.00    +0.075 C 
ATOM     26  C   UNL     1       3.220   6.421   0.947  0.00  0.00    +0.147 C 
ATOM     27  O   UNL     1       3.469   5.599   1.796  0.00  0.00    -0.296 OA
ENDBRANCH  20  21
ENDBRANCH  11  20
TORSDOF 3
