REMARK  Name = ZINC33279351
REMARK  7 active torsions:
REMARK  status: ('A' for Active; 'I' for Inactive)
REMARK    1  A    between atoms: C_1  and  C_2
REMARK    2  A    between atoms: C_2  and  C_3
REMARK    3  A    between atoms: C_5  and  C_8
REMARK    4  A    between atoms: C_10  and  S_13
REMARK    5  A    between atoms: S_13  and  N_16
REMARK    6  A    between atoms: C_20  and  C_23
REMARK    7  A    between atoms: N_25  and  C_26
REMARK                            x       y       z     vdW  Elec       q    Type
REMARK                         _______ _______ _______ _____ _____    ______ ____
ROOT
ATOM      1  N   UNL     1       1.228   5.809   1.604  0.00  0.00    -0.175 NA
ATOM      2  C   UNL     1       0.132   6.462   2.332  0.00  0.00    +0.109 C 
ATOM      3  C   UNL     1       0.645   7.768   2.938  0.00  0.00    +0.018 C 
ATOM      4  C   UNL     1       1.882   7.480   3.791  0.00  0.00    +0.015 C 
ATOM      5  C   UNL     1       2.985   6.888   2.910  0.00  0.00    +0.091 C 
ATOM      6  C   UNL     1       2.497   5.567   2.306  0.00  0.00    +0.122 C 
ENDROOT
BRANCH   5   7
ATOM      7  C   UNL     1       4.214   6.635   3.745  0.00  0.00    +0.218 C 
ATOM      8  O   UNL     1       4.657   5.510   3.847  0.00  0.00    -0.275 OA
ATOM      9  N   UNL     1       4.821   7.658   4.378  0.00  0.00    -0.312 N 
ATOM     10  H   UNL     1       4.420   8.678   4.285  0.00  0.00    +0.149 HD
BRANCH   9  11
ATOM     11  C   UNL     1       6.016   7.412   5.189  0.00  0.00    +0.073 C 
ATOM     12  C   UNL     1       5.579   6.946   6.593  0.00  0.00    +0.022 C 
ATOM     13  C   UNL     1       6.731   6.221   7.236  0.00  0.00    +0.002 C 
ATOM     14  C   UNL     1       7.586   7.145   8.124  0.00  0.00    +0.000 C 
ATOM     15  C   UNL     1       7.828   8.528   7.488  0.00  0.00    +0.000 C 
ATOM     16  C   UNL     1       8.130   8.439   6.016  0.00  0.00    +0.002 C 
ATOM     17  C   UNL     1       6.814   8.628   5.234  0.00  0.00    +0.022 C 
ENDBRANCH   9  11
ENDBRANCH   5   7
BRANCH   1  18
ATOM     18  S   UNL     1       1.041   5.360   0.021  0.00  0.00    +0.067 S 
ATOM     19  O   UNL     1       2.344   5.305  -0.542  0.00  0.00    -0.152 OA
ATOM     20  O   UNL     1       0.013   6.181  -0.515  0.00  0.00    -0.152 OA
BRANCH  18  23
ATOM     21  C   UNL     1      -1.091   1.912   0.017  0.00  0.00    +0.031 A 
ATOM     22  C   UNL     1      -0.863   3.287   0.028  0.00  0.00    +0.048 A 
ATOM     23  C   UNL     1       0.421   3.710   0.018  0.00  0.00    +0.143 A 
ATOM     24  S   UNL     1       1.328   2.175   0.001  0.00  0.00    -0.076 S 
ATOM     25  C   UNL     1      -0.013   1.076   0.008  0.00  0.00    +0.058 A 
BRANCH  21  28
ATOM     26  C   UNL     1      -4.132   0.053   0.018  0.00  0.00    +0.227 A 
ATOM     27  N   UNL     1      -2.822   0.066   0.008  0.00  0.00    -0.191 NA
ATOM     28  C   UNL     1      -2.471   1.372   0.019  0.00  0.00    +0.203 A 
ATOM     29  N   UNL     1      -3.579   2.069   0.026  0.00  0.00    -0.056 NA
ATOM     30  O   UNL     1      -4.538   1.327   0.026  0.00  0.00    -0.338 OA
BRANCH  26  32
ATOM     31  C   UNL     1      -5.310  -1.588   1.456  0.00  0.00    +0.014 C 
ATOM     32  C   UNL     1      -5.016  -1.168   0.014  0.00  0.00    +0.095 C 
ENDBRANCH  26  32
ENDBRANCH  21  28
ENDBRANCH  18  23
ENDBRANCH   1  18
TORSDOF 6
