REMARK  Name = ZINC20581903
REMARK  13 active torsions:
REMARK  status: ('A' for Active; 'I' for Inactive)
REMARK    1  A    between atoms: C_1  and  C_2
REMARK    2  A    between atoms: C_2  and  C_3
REMARK    3  A    between atoms: C_3  and  C_4
REMARK    4  A    between atoms: C_5  and  C_26
REMARK    5  A    between atoms: C_14  and  N_22
REMARK    6  A    between atoms: C_15  and  C_16
REMARK    7  A    between atoms: C_16  and  O_18
REMARK    8  A    between atoms: O_18  and  C_19
REMARK    9  A    between atoms: C_19  and  C_20
REMARK   10  A    between atoms: C_19  and  C_21
REMARK   11  A    between atoms: C_26  and  O_28
REMARK   12  A    between atoms: O_28  and  C_29
REMARK   13  A    between atoms: C_29  and  C_30
REMARK                            x       y       z     vdW  Elec       q    Type
REMARK                         _______ _______ _______ _____ _____    ______ ____
ROOT
ATOM      1  C   UNL     1      -0.408   4.525  -1.333  0.00  0.00    +0.121 C 
ATOM      2  C   UNL     1       0.743   3.846  -1.477  0.00  0.00    +0.100 C 
ATOM      3  C   UNL     1       1.147   3.425  -0.081  0.00  0.00    +0.164 C 
ATOM      4  C   UNL     1       2.461   4.049   0.288  0.00  0.00    -0.000 A 
ATOM      5  C   UNL     1       2.521   5.402   0.572  0.00  0.00    +0.007 A 
ATOM      6  C   UNL     1       3.725   5.990   0.910  0.00  0.00    +0.000 A 
ATOM      7  C   UNL     1       4.878   5.228   0.968  0.00  0.00    +0.002 A 
ATOM      8  C   UNL     1       4.827   3.877   0.688  0.00  0.00    +0.023 A 
ATOM      9  C   UNL     1       3.617   3.284   0.348  0.00  0.00    +0.037 A 
ATOM     10  N   UNL     1       3.570   1.915   0.072  0.00  0.00    -0.302 N 
ATOM     11  C   UNL     1       2.375   1.247   0.096  0.00  0.00    +0.097 C 
ATOM     12  C   UNL     1       1.188   1.932   0.024  0.00  0.00    +0.098 C 
ATOM     13  C   UNL     1       0.040   3.985   0.786  0.00  0.00    +0.332 C 
ATOM     14  O   UNL     1      -0.063   3.895   1.987  0.00  0.00    -0.249 OA
ATOM     15  O   UNL     1      -0.804   4.604  -0.057  0.00  0.00    -0.429 OA
ATOM     16  H   UNL     1       4.496   1.369  -0.167  0.00  0.00    +0.153 HD
ENDROOT
BRANCH  11  17
ATOM     17  N   UNL     1       2.364  -0.121   0.189  0.00  0.00    -0.346 N 
ATOM     18  H   UNL     1       1.407  -0.663   0.209  0.00  0.00    +0.143 HD
ATOM     19  H   UNL     1       3.312  -0.676   0.243  0.00  0.00    +0.143 HD
ENDBRANCH  11  17
BRANCH  12  20
ATOM     20  C   UNL     1      -0.016   1.217   0.054  0.00  0.00    +0.340 C 
ATOM     21  O   UNL     1      -0.625   1.007  -0.980  0.00  0.00    -0.245 OA
BRANCH  20  22
ATOM     22  O   UNL     1      -0.504   0.766   1.230  0.00  0.00    -0.459 OA
BRANCH  22  23
ATOM     23  C   UNL     1      -1.739   0.049   1.188  0.00  0.00    +0.171 C 
ATOM     24  C   UNL     1      -1.775  -0.974   2.325  0.00  0.00    +0.052 C 
ATOM     25  C   UNL     1      -2.903   1.030   1.347  0.00  0.00    +0.052 C 
ENDBRANCH  22  23
ENDBRANCH  20  22
ENDBRANCH  12  20
BRANCH   2  26
ATOM     26  C   UNL     1       1.435   3.580  -2.686  0.00  0.00    +0.340 C 
ATOM     27  O   UNL     1       0.989   3.983  -3.743  0.00  0.00    -0.245 OA
BRANCH  26  28
ATOM     28  O   UNL     1       2.587   2.879  -2.663  0.00  0.00    -0.462 OA
BRANCH  28  29
ATOM     29  C   UNL     1       3.231   2.648  -3.918  0.00  0.00    +0.229 C 
ATOM     30  C   UNL     1       4.513   1.844  -3.693  0.00  0.00    +0.048 C 
ENDBRANCH  28  29
ENDBRANCH  26  28
ENDBRANCH   2  26
BRANCH   1  31
ATOM     31  C   UNL     1      -1.170   5.131  -2.484  0.00  0.00    +0.075 C 
BRANCH  31  33
ATOM     32  C   UNL     1      -3.028   4.772  -4.114  0.00  0.00    +0.004 C 
ATOM     33  C   UNL     1      -2.255   4.157  -2.946  0.00  0.00    +0.004 C 
ENDBRANCH  31  33
ENDBRANCH   1  31
TORSDOF 9
