REMARK  Name = ZINC15636342
REMARK  13 active torsions:
REMARK  status: ('A' for Active; 'I' for Inactive)
REMARK    1  A    between atoms: C_1  and  C_2
REMARK    2  A    between atoms: C_2  and  N_68
REMARK    3  A    between atoms: C_3  and  C_4
REMARK    4  A    between atoms: C_3  and  N_68
REMARK    5  A    between atoms: C_5  and  C_6
REMARK    6  A    between atoms: C_5  and  N_68
REMARK    7  A    between atoms: C_11  and  C_12
REMARK    8  A    between atoms: C_12  and  N_13
REMARK    9  A    between atoms: C_14  and  C_16
REMARK   10  A    between atoms: C_20  and  S_22
REMARK   11  A    between atoms: S_22  and  N_25
REMARK   12  A    between atoms: C_27  and  C_34
REMARK   13  A    between atoms: C_30  and  C_33
REMARK                            x       y       z     vdW  Elec       q    Type
REMARK                         _______ _______ _______ _____ _____    ______ ____
ROOT
ATOM      1  N   UNL     1      -2.633  -0.700  -0.092  0.00  0.00    -0.307 N 
ATOM      2  C   UNL     1      -2.684   0.643  -0.190  0.00  0.00    +0.244 C 
ATOM      3  O   UNL     1      -3.755   1.216  -0.148  0.00  0.00    -0.270 OA
ATOM      4  H   UNL     1      -1.778  -1.157  -0.126  0.00  0.00    +0.149 HD
ENDROOT
BRANCH   2   5
ATOM      5  C   UNL     1      -1.436   1.421  -0.349  0.00  0.00    +0.039 A 
ATOM      6  C   UNL     1      -0.204   0.766  -0.399  0.00  0.00    +0.013 A 
ATOM      7  C   UNL     1       0.956   1.497  -0.553  0.00  0.00    +0.003 A 
ATOM      8  C   UNL     1       0.900   2.876  -0.653  0.00  0.00    +0.028 A 
ATOM      9  C   UNL     1      -0.317   3.531  -0.599  0.00  0.00    +0.106 A 
ATOM     10  C   UNL     1      -1.485   2.812  -0.445  0.00  0.00    +0.041 A 
BRANCH   9  11
ATOM     11  S   UNL     1      -0.377   5.287  -0.728  0.00  0.00    +0.061 S 
ATOM     12  O   UNL     1      -1.584   5.700  -0.102  0.00  0.00    -0.153 OA
ATOM     13  O   UNL     1       0.896   5.768  -0.318  0.00  0.00    -0.153 OA
BRANCH  11  14
ATOM     14  N   UNL     1      -0.527   5.656  -2.335  0.00  0.00    -0.172 NA
ATOM     15  C   UNL     1       0.661   5.865  -3.179  0.00  0.00    +0.140 C 
ATOM     16  C   UNL     1       0.513   4.995  -4.438  0.00  0.00    +0.131 C 
ATOM     17  O   UNL     1      -0.752   5.263  -5.047  0.00  0.00    -0.371 OA
ATOM     18  C   UNL     1      -1.877   4.929  -4.229  0.00  0.00    +0.131 C 
ATOM     19  C   UNL     1      -1.852   5.790  -2.961  0.00  0.00    +0.140 C 
ATOM     20  C   UNL     1      -1.808   3.450  -3.845  0.00  0.00    +0.039 C 
ATOM     21  C   UNL     1       1.635   5.331  -5.422  0.00  0.00    +0.039 C 
ENDBRANCH  11  14
ENDBRANCH   9  11
ENDBRANCH   2   5
BRANCH   1  22
ATOM     22  C   UNL     1      -3.869  -1.470   0.065  0.00  0.00    +0.140 C 
BRANCH  22  28
ATOM     23  C   UNL     1      -3.065  -3.472   1.333  0.00  0.00    -0.059 A 
ATOM     24  C   UNL     1      -2.762  -4.819   1.411  0.00  0.00    +0.002 A 
ATOM     25  C   UNL     1      -2.935  -5.631   0.306  0.00  0.00    +0.000 A 
ATOM     26  C   UNL     1      -3.410  -5.097  -0.877  0.00  0.00    +0.000 A 
ATOM     27  C   UNL     1      -3.717  -3.751  -0.954  0.00  0.00    +0.005 A 
ATOM     28  C   UNL     1      -3.539  -2.938   0.150  0.00  0.00    -0.029 A 
BRANCH  23  29
ATOM     29  C   UNL     1      -2.877  -2.587   2.538  0.00  0.00    -0.043 C 
BRANCH  29  30
ATOM     30  N   UNL     1      -4.204  -2.276   3.111  0.00  0.00    +0.382 N 
ATOM     31  H   UNL     1      -4.831  -1.975   2.356  0.00  0.00    -0.081 HD
BRANCH  30  33
ATOM     32  C   UNL     1      -6.224  -3.196   4.138  0.00  0.00    -0.017 C 
ATOM     33  C   UNL     1      -4.771  -3.480   3.754  0.00  0.00    -0.082 C 
ENDBRANCH  30  33
BRANCH  30  34
ATOM     34  C   UNL     1      -4.084  -1.184   4.099  0.00  0.00    -0.082 C 
ATOM     35  C   UNL     1      -3.955   0.144   3.350  0.00  0.00    -0.017 C 
ENDBRANCH  30  34
ENDBRANCH  29  30
ENDBRANCH  23  29
ENDBRANCH  22  28
ENDBRANCH   1  22
TORSDOF 9
