REMARK  Name = ZINC11880529
REMARK  8 active torsions:
REMARK  status: ('A' for Active; 'I' for Inactive)
REMARK    1  A    between atoms: C_4  and  C_7
REMARK    2  A    between atoms: C_7  and  C_8
REMARK    3  A    between atoms: C_8  and  C_10
REMARK    4  A    between atoms: C_8  and  N_23
REMARK    5  A    between atoms: C_15  and  C_16
REMARK    6  A    between atoms: C_15  and  N_68
REMARK    7  A    between atoms: N_23  and  C_24
REMARK    8  A    between atoms: C_27  and  C_29
REMARK                            x       y       z     vdW  Elec       q    Type
REMARK                         _______ _______ _______ _____ _____    ______ ____
ROOT
ATOM      1  C   UNL     1      -0.583  -2.501   0.390  0.00  0.00    +0.084 C 
ENDROOT
BRANCH   1   2
ATOM      2  C   UNL     1      -1.510  -3.359  -0.473  0.00  0.00    +0.006 C 
ATOM      3  C   UNL     1      -1.243  -3.070  -1.953  0.00  0.00    -0.013 C 
ATOM      4  C   UNL     1      -2.214  -3.886  -2.810  0.00  0.00    -0.078 C 
ATOM      5  C   UNL     1      -3.889  -3.837  -1.060  0.00  0.00    -0.078 C 
ATOM      6  C   UNL     1      -2.968  -3.021  -0.151  0.00  0.00    -0.013 C 
ATOM      7  N   UNL     1      -3.599  -3.496  -2.469  0.00  0.00    +0.380 N 
ATOM      8  H   UNL     1      -3.700  -2.482  -2.593  0.00  0.00    -0.082 HD
BRANCH   7   9
ATOM      9  C   UNL     1      -4.552  -4.186  -3.362  0.00  0.00    -0.075 C 
BRANCH   9  10
ATOM     10  C   UNL     1      -4.374  -3.647  -4.783  0.00  0.00    -0.024 C 
ATOM     11  C   UNL     1      -5.283  -4.421  -5.746  0.00  0.00    +0.006 C 
ATOM     12  C   UNL     1      -4.956  -3.986  -7.176  0.00  0.00    +0.027 C 
ATOM     13  C   UNL     1      -4.941  -2.488  -7.270  0.00  0.00    -0.031 C 
ATOM     14  C   UNL     1      -4.856  -1.698  -6.248  0.00  0.00    -0.031 C 
ATOM     15  C   UNL     1      -4.771  -2.169  -4.826  0.00  0.00    +0.028 C 
ENDBRANCH   9  10
ENDBRANCH   7   9
ENDBRANCH   1   2
BRANCH   1  16
ATOM     16  N   UNL     1       0.811  -2.825   0.081  0.00  0.00    -0.288 N 
ATOM     17  C   UNL     1       1.679  -1.841  -0.228  0.00  0.00    +0.282 C 
ATOM     18  O   UNL     1       2.786  -2.117  -0.651  0.00  0.00    -0.267 OA
BRANCH  17  19
ATOM     19  C   UNL     1       1.290  -0.438  -0.052  0.00  0.00    +0.189 A 
ATOM     20  C   UNL     1       1.997   0.650  -0.477  0.00  0.00    +0.054 A 
ATOM     21  C   UNL     1       1.260   1.783  -0.100  0.00  0.00    +0.042 A 
ATOM     22  C   UNL     1       0.149   1.342   0.531  0.00  0.00    +0.196 A 
ATOM     23  O   UNL     1       0.171   0.004   0.558  0.00  0.00    -0.458 OA
ENDBRANCH  17  19
BRANCH  16  24
ATOM     24  C   UNL     1       1.262  -4.219   0.106  0.00  0.00    +0.077 C 
ATOM     25  C   UNL     1       2.770  -4.472   0.165  0.00  0.00    +0.024 C 
ATOM     26  C   UNL     1       1.998  -4.746  -1.128  0.00  0.00    +0.024 C 
ENDBRANCH  16  24
ENDBRANCH   1  16
BRANCH   1  27
ATOM     27  C   UNL     1      -0.857  -2.784   1.869  0.00  0.00    +0.058 C 
BRANCH  27  31
ATOM     28  C   UNL     1       1.479  -0.143   4.280  0.00  0.00    +0.000 A 
ATOM     29  C   UNL     1       0.210   0.229   3.878  0.00  0.00    +0.000 A 
ATOM     30  C   UNL     1      -0.546  -0.626   3.098  0.00  0.00    +0.004 A 
ATOM     31  C   UNL     1      -0.033  -1.853   2.719  0.00  0.00    -0.046 A 
ATOM     32  C   UNL     1       1.235  -2.227   3.126  0.00  0.00    +0.004 A 
ATOM     33  C   UNL     1       1.992  -1.370   3.903  0.00  0.00    +0.000 A 
ENDBRANCH  27  31
ENDBRANCH   1  27
TORSDOF 8
