REMARK  Name = ZINC12561265
REMARK  6 active torsions:
REMARK  status: ('A' for Active; 'I' for Inactive)
REMARK    1  A    between atoms: C_7  and  C_17
REMARK    2  A    between atoms: C_9  and  C_11
REMARK    3  A    between atoms: N_19  and  N_20
REMARK    4  A    between atoms: C_21  and  C_22
REMARK    5  A    between atoms: C_25  and  O_29
REMARK    6  A    between atoms: C_27  and  O_28
REMARK                            x       y       z     vdW  Elec       q    Type
REMARK                         _______ _______ _______ _____ _____    ______ ____
ROOT
ATOM      1  C   UNL     1      -4.711  -3.038   0.345  0.00  0.00    +0.001 A 
ATOM      2  C   UNL     1      -4.649  -4.430   0.334  0.00  0.00    +0.002 A 
ATOM      3  C   UNL     1      -3.459  -5.079   0.216  0.00  0.00    +0.028 A 
ATOM      4  C   UNL     1      -2.268  -4.337   0.103  0.00  0.00    +0.072 A 
ATOM      5  C   UNL     1      -2.335  -2.921   0.121  0.00  0.00    +0.013 A 
ATOM      6  C   UNL     1      -3.579  -2.287   0.238  0.00  0.00    +0.011 A 
ATOM      7  C   UNL     1      -1.136  -2.172   0.001  0.00  0.00    +0.050 A 
ATOM      8  C   UNL     1       0.057  -2.870  -0.117  0.00  0.00    +0.043 A 
ATOM      9  C   UNL     1       0.037  -4.273  -0.121  0.00  0.00    +0.091 A 
ATOM     10  N   UNL     1      -1.089  -4.949  -0.014  0.00  0.00    -0.245 NA
ENDROOT
BRANCH   9  11
ATOM     11  C   UNL     1       1.317  -5.013  -0.248  0.00  0.00    +0.089 A 
ATOM     12  C   UNL     1       1.312  -6.407  -0.247  0.00  0.00    +0.030 A 
ATOM     13  C   UNL     1       2.513  -7.084  -0.372  0.00  0.00    +0.004 A 
ATOM     14  C   UNL     1       3.681  -6.344  -0.483  0.00  0.00    +0.020 A 
ATOM     15  C   UNL     1       3.613  -4.963  -0.471  0.00  0.00    +0.111 A 
ATOM     16  N   UNL     1       2.457  -4.343  -0.357  0.00  0.00    -0.253 NA
ENDBRANCH   9  11
BRANCH   7  17
ATOM     17  C   UNL     1      -1.156  -0.694   0.009  0.00  0.00    +0.264 C 
ATOM     18  O   UNL     1      -2.217  -0.100   0.007  0.00  0.00    -0.268 OA
ATOM     19  N   UNL     1       0.002  -0.004   0.020  0.00  0.00    -0.203 N 
ATOM     20  H   UNL     1       0.849  -0.478   0.022  0.00  0.00    +0.178 HD
BRANCH  19  21
ATOM     21  N   UNL     1      -0.017   1.397   0.028  0.00  0.00    -0.187 NA
ATOM     22  C   UNL     1       1.099   2.061   0.038  0.00  0.00    +0.142 C 
BRANCH  22  23
ATOM     23  C   UNL     1       1.079   3.534   0.046  0.00  0.00    +0.036 A 
ATOM     24  C   UNL     1       2.278   4.252   0.057  0.00  0.00    +0.016 A 
ATOM     25  C   UNL     1       2.255   5.629   0.064  0.00  0.00    +0.046 A 
ATOM     26  C   UNL     1       1.042   6.309   0.060  0.00  0.00    +0.120 A 
ATOM     27  C   UNL     1      -0.153   5.605   0.049  0.00  0.00    +0.091 A 
ATOM     28  C   UNL     1      -0.143   4.221   0.037  0.00  0.00    +0.129 A 
BRANCH  28  29
ATOM     29  O   UNL     1      -1.313   3.532   0.021  0.00  0.00    -0.506 OA
ATOM     30  H   UNL     1      -1.661   3.327   0.899  0.00  0.00    +0.292 HD
ENDBRANCH  28  29
BRANCH  26  31
ATOM     31  O   UNL     1       1.028   7.667   0.067  0.00  0.00    -0.507 OA
ATOM     32  H   UNL     1       1.029   8.064  -0.815  0.00  0.00    +0.292 HD
ENDBRANCH  26  31
ENDBRANCH  22  23
ENDBRANCH  19  21
ENDBRANCH   7  17
TORSDOF 6
