REMARK  Name = ZINC20289265
REMARK  14 active torsions:
REMARK  status: ('A' for Active; 'I' for Inactive)
REMARK    1  A    between atoms: C_1  and  C_2
REMARK    2  A    between atoms: C_2  and  C_4
REMARK    3  A    between atoms: C_2  and  N_25
REMARK    4  A    between atoms: C_4  and  C_6
REMARK    5  A    between atoms: C_4  and  N_11
REMARK    6  A    between atoms: N_14  and  C_17
REMARK    7  A    between atoms: C_20  and  O_23
REMARK    8  A    between atoms: O_23  and  C_24
REMARK    9  A    between atoms: C_26  and  C_28
REMARK   10  A    between atoms: N_30  and  C_31
REMARK   11  A    between atoms: C_31  and  C_32
REMARK   12  A    between atoms: C_32  and  N_33
REMARK   13  A    between atoms: N_33  and  C_34
REMARK   14  A    between atoms: N_33  and  C_35
REMARK                            x       y       z     vdW  Elec       q    Type
REMARK                         _______ _______ _______ _____ _____    ______ ____
ROOT
ATOM      1  C   UNL     1       0.720  -0.418   1.307  0.00  0.00    +0.114 C 
ENDROOT
BRANCH   1   2
ATOM      2  N   UNL     1       2.051   0.203   1.336  0.00  0.00    -0.290 NA
ATOM      3  C   UNL     1       1.950   1.668   1.305  0.00  0.00    +0.104 C 
ATOM      4  C   UNL     1       3.350   2.271   1.154  0.00  0.00    +0.120 C 
ATOM      5  N   UNL     1       4.210   1.729   2.218  0.00  0.00    -0.327 N 
ATOM      6  C   UNL     1       4.256   0.271   2.399  0.00  0.00    +0.120 C 
ATOM      7  C   UNL     1       2.820  -0.254   2.502  0.00  0.00    +0.104 C 
BRANCH   5   8
ATOM      8  C   UNL     1       4.963   2.579   3.035  0.00  0.00    +0.030 A 
ATOM      9  C   UNL     1       5.682   2.059   4.103  0.00  0.00    +0.027 A 
ATOM     10  C   UNL     1       6.425   2.898   4.909  0.00  0.00    +0.047 A 
ATOM     11  C   UNL     1       6.455   4.261   4.652  0.00  0.00    +0.120 A 
ATOM     12  C   UNL     1       5.737   4.782   3.585  0.00  0.00    +0.047 A 
ATOM     13  C   UNL     1       4.997   3.943   2.775  0.00  0.00    +0.027 A 
BRANCH  11  14
ATOM     14  O   UNL     1       7.187   5.087   5.446  0.00  0.00    -0.495 OA
ATOM     15  C   UNL     1       7.172   6.479   5.123  0.00  0.00    +0.277 C 
ENDBRANCH  11  14
ENDBRANCH   5   8
ENDBRANCH   1   2
BRANCH   1  16
ATOM     16  C   UNL     1       0.864  -1.917   1.367  0.00  0.00    +0.009 A 
ATOM     17  C   UNL     1       0.113  -2.820   2.044  0.00  0.00    +0.013 A 
ATOM     18  C   UNL     1       0.432  -4.162   1.950  0.00  0.00    +0.008 A 
ATOM     19  C   UNL     1       1.486  -4.535   1.183  0.00  0.00    +0.045 A 
ATOM     20  S   UNL     1       2.061  -2.965   0.557  0.00  0.00    -0.100 S 
ENDBRANCH   1  16
BRANCH   1  22
ATOM     21  C   UNL     1      -1.368  -0.703  -0.034  0.00  0.00    +0.030 C 
ATOM     22  C   UNL     1       0.002  -0.025   0.014  0.00  0.00    +0.092 C 
BRANCH  22  23
ATOM     23  N   UNL     1       0.800  -0.454  -1.137  0.00  0.00    -0.303 N 
ATOM     24  C   UNL     1       0.672   0.180  -2.319  0.00  0.00    +0.299 C 
ATOM     25  O   UNL     1      -0.104   1.106  -2.430  0.00  0.00    -0.265 OA
ATOM     26  H   UNL     1       1.421  -1.194  -1.048  0.00  0.00    +0.149 HD
BRANCH  24  27
ATOM     27  C   UNL     1       1.486  -0.257  -3.494  0.00  0.00    +0.299 C 
ATOM     28  O   UNL     1       2.263  -1.183  -3.383  0.00  0.00    -0.265 OA
ATOM     29  N   UNL     1       1.358   0.377  -4.676  0.00  0.00    -0.309 N 
ATOM     30  H   UNL     1       0.737   1.117  -4.765  0.00  0.00    +0.149 HD
BRANCH  29  31
ATOM     31  C   UNL     1       2.156  -0.051  -5.828  0.00  0.00    +0.086 C 
BRANCH  31  32
ATOM     32  C   UNL     1       1.821   0.827  -7.035  0.00  0.00    -0.061 C 
BRANCH  32  33
ATOM     33  N   UNL     1       2.621   0.397  -8.190  0.00  0.00    +0.377 N 
ATOM     34  C   UNL     1       2.228  -0.964  -8.578  0.00  0.00    -0.097 C 
ATOM     35  C   UNL     1       2.390   1.313  -9.314  0.00  0.00    -0.097 C 
ATOM     36  H   UNL     1       3.600   0.407  -7.944  0.00  0.00    -0.083 HD
ENDBRANCH  32  33
ENDBRANCH  31  32
ENDBRANCH  29  31
ENDBRANCH  24  27
ENDBRANCH  22  23
ENDBRANCH   1  22
TORSDOF 10
