REMARK  Name = ZINC13508056
REMARK  8 active torsions:
REMARK  status: ('A' for Active; 'I' for Inactive)
REMARK    1  A    between atoms: C_3  and  C_6
REMARK    2  A    between atoms: N_8  and  C_9
REMARK    3  A    between atoms: C_9  and  C_10
REMARK    4  A    between atoms: N_12  and  C_13
REMARK    5  A    between atoms: N_12  and  C_20
REMARK    6  A    between atoms: C_20  and  C_22
REMARK    7  A    between atoms: C_20  and  C_28
REMARK    8  A    between atoms: N_30  and  C_31
REMARK                            x       y       z     vdW  Elec       q    Type
REMARK                         _______ _______ _______ _____ _____    ______ ____
ROOT
ATOM      1  C   UNL     1       1.085  -0.758  -0.676  0.00  0.00    +0.238 C 
ATOM      2  O   UNL     1       0.672  -1.320  -1.669  0.00  0.00    -0.274 OA
ATOM      3  N   UNL     1       0.231  -0.413   0.307  0.00  0.00    -0.254 N 
ENDROOT
BRANCH   3   4
ATOM      4  C   UNL     1       0.693   0.312   1.412  0.00  0.00    +0.038 A 
ATOM      5  C   UNL     1       1.071   1.640   1.264  0.00  0.00    +0.025 A 
ATOM      6  C   UNL     1       1.521   2.354   2.357  0.00  0.00    +0.022 A 
ATOM      7  C   UNL     1       1.605   1.744   3.597  0.00  0.00    +0.041 A 
ATOM      8  C   UNL     1       1.234   0.420   3.746  0.00  0.00    +0.022 A 
ATOM      9  C   UNL     1       0.779  -0.298   2.657  0.00  0.00    +0.025 A 
ATOM     10 CL   UNL     1       2.177   2.643   4.967  0.00  0.00    -0.084 Cl
ENDBRANCH   3   4
BRANCH   1  11
ATOM     11  C   UNL     1       2.554  -0.448  -0.543  0.00  0.00    +0.201 C 
BRANCH  11  14
ATOM     12  C   UNL     1       4.581  -0.659  -1.879  0.00  0.00    +0.280 C 
ATOM     13  O   UNL     1       5.204  -0.164  -0.958  0.00  0.00    -0.267 OA
ATOM     14  N   UNL     1       3.250  -0.844  -1.770  0.00  0.00    -0.300 N 
ATOM     15  H   UNL     1       2.754  -1.239  -2.503  0.00  0.00    +0.150 HD
BRANCH  12  18
ATOM     16  C   UNL     1       6.844  -1.430  -4.637  0.00  0.00    +0.042 A 
ATOM     17  C   UNL     1       6.616  -0.926  -3.348  0.00  0.00    +0.054 A 
ATOM     18  C   UNL     1       5.278  -1.056  -3.107  0.00  0.00    +0.189 A 
ATOM     19  O   UNL     1       4.711  -1.619  -4.194  0.00  0.00    -0.458 OA
ATOM     20  C   UNL     1       5.651  -1.841  -5.121  0.00  0.00    +0.196 A 
ENDBRANCH  12  18
ENDBRANCH  11  14
ENDBRANCH   1  11
BRANCH   3  21
ATOM     21  C   UNL     1      -1.180  -0.795   0.220  0.00  0.00    +0.197 C 
BRANCH  21  22
ATOM     22  C   UNL     1      -1.877  -0.442   1.508  0.00  0.00    -0.015 A 
ATOM     23  C   UNL     1      -1.853   0.856   1.996  0.00  0.00    +0.025 A 
ATOM     24  C   UNL     1      -2.507   1.143   3.179  0.00  0.00    +0.111 A 
ATOM     25  N   UNL     1      -3.140   0.198   3.847  0.00  0.00    -0.263 NA
ATOM     26  C   UNL     1      -3.179  -1.048   3.416  0.00  0.00    +0.111 A 
ATOM     27  C   UNL     1      -2.552  -1.409   2.238  0.00  0.00    +0.025 A 
ENDBRANCH  21  22
BRANCH  21  28
ATOM     28  C   UNL     1      -1.831  -0.058  -0.922  0.00  0.00    +0.239 C 
ATOM     29  O   UNL     1      -1.180   0.712  -1.596  0.00  0.00    -0.273 OA
ATOM     30  N   UNL     1      -3.136  -0.253  -1.193  0.00  0.00    -0.311 N 
ATOM     31  H   UNL     1      -3.657  -0.869  -0.654  0.00  0.00    +0.149 HD
BRANCH  30  32
ATOM     32  C   UNL     1      -3.769   0.464  -2.303  0.00  0.00    +0.073 C 
ATOM     33  C   UNL     1      -4.226   1.844  -1.824  0.00  0.00    +0.022 C 
ATOM     34  C   UNL     1      -4.887   2.593  -2.983  0.00  0.00    +0.002 C 
ATOM     35  C   UNL     1      -6.097   1.799  -3.480  0.00  0.00    +0.000 C 
ATOM     36  C   UNL     1      -5.640   0.419  -3.959  0.00  0.00    +0.002 C 
ATOM     37  C   UNL     1      -4.979  -0.330  -2.800  0.00  0.00    +0.022 C 
ENDBRANCH  30  32
ENDBRANCH  21  28
ENDBRANCH   3  21
TORSDOF 8
