REMARK  Name = ZINC17196436
REMARK  6 active torsions:
REMARK  status: ('A' for Active; 'I' for Inactive)
REMARK    1  A    between atoms: C_1  and  O_2
REMARK    2  A    between atoms: O_2  and  C_3
REMARK    3  A    between atoms: C_7  and  C_11
REMARK    4  A    between atoms: C_8  and  O_9
REMARK    5  A    between atoms: O_9  and  C_10
REMARK    6  A    between atoms: N_16  and  C_17
REMARK                            x       y       z     vdW  Elec       q    Type
REMARK                         _______ _______ _______ _____ _____    ______ ____
ROOT
ATOM      1  C   UNL     1       1.340  -4.074  -2.315  0.00  0.00    +0.032 C 
ATOM      2  C   UNL     1       1.853  -4.665  -3.424  0.00  0.00    +0.078 C 
ATOM      3  C   UNL     1       1.916  -6.096  -3.777  0.00  0.00    +0.256 C 
ATOM      4  N   UNL     1       2.477  -6.404  -4.934  0.00  0.00    -0.260 N 
ATOM      5  C   UNL     1       2.974  -5.418  -5.758  0.00  0.00    +0.166 C 
ATOM      6  N   UNL     1       3.556  -5.548  -6.930  0.00  0.00    -0.226 NA
ATOM      7  S   UNL     1       2.629  -3.920  -4.851  0.00  0.00    -0.049 S 
ATOM      8  O   UNL     1       1.472  -6.954  -3.037  0.00  0.00    -0.269 OA
ATOM      9  H   UNL     1       2.539  -7.334  -5.206  0.00  0.00    +0.157 HD
ENDROOT
BRANCH   6  10
ATOM     10  C   UNL     1       3.729  -6.793  -7.473  0.00  0.00    +0.067 A 
ATOM     11  C   UNL     1       4.199  -7.844  -6.682  0.00  0.00    +0.029 A 
ATOM     12  C   UNL     1       4.371  -9.095  -7.236  0.00  0.00    +0.017 A 
ATOM     13  C   UNL     1       4.080  -9.310  -8.573  0.00  0.00    +0.018 A 
ATOM     14  C   UNL     1       3.615  -8.273  -9.362  0.00  0.00    +0.017 A 
ATOM     15  C   UNL     1       3.432  -7.018  -8.819  0.00  0.00    +0.029 A 
ATOM     16 BR   UNL     1       4.320 -11.030  -9.323  0.00  0.00    -0.050 Br
ENDBRANCH   6  10
BRANCH   1  21
ATOM     17  C   UNL     1       0.886  -0.580  -1.001  0.00  0.00    +0.162 A 
ATOM     18  C   UNL     1       1.879   0.092  -1.697  0.00  0.00    +0.049 A 
ATOM     19  C   UNL     1       2.692  -0.588  -2.590  0.00  0.00    +0.004 A 
ATOM     20  C   UNL     1       2.522  -1.939  -2.795  0.00  0.00    +0.012 A 
ATOM     21  C   UNL     1       1.525  -2.633  -2.100  0.00  0.00    +0.022 A 
ATOM     22  C   UNL     1       0.705  -1.945  -1.192  0.00  0.00    +0.169 A 
BRANCH  17  24
ATOM     23  C   UNL     1       0.334   1.496   0.019  0.00  0.00    +0.277 C 
ATOM     24  O   UNL     1       0.093   0.095  -0.127  0.00  0.00    -0.491 OA
ENDBRANCH  17  24
BRANCH  22  25
ATOM     25  O   UNL     1      -0.263  -2.607  -0.508  0.00  0.00    -0.491 OA
ATOM     26  C   UNL     1      -1.553  -2.683  -1.119  0.00  0.00    +0.277 C 
ENDBRANCH  22  25
ENDBRANCH   1  21
TORSDOF 4
