REMARK  Name = ZINC11969255
REMARK  5 active torsions:
REMARK  status: ('A' for Active; 'I' for Inactive)
REMARK    1  A    between atoms: C_5  and  C_7
REMARK    2  A    between atoms: C_7  and  C_8
REMARK    3  A    between atoms: C_8  and  C_15
REMARK    4  A    between atoms: C_20  and  C_21
REMARK    5  A    between atoms: C_20  and  N_57
REMARK                            x       y       z     vdW  Elec       q    Type
REMARK                         _______ _______ _______ _____ _____    ______ ____
ROOT
ATOM      1  C   UNL     1      -2.031   3.565  -4.730  0.00  0.00    +0.119 C 
ATOM      2  C   UNL     1      -3.169   2.575  -4.887  0.00  0.00    +0.245 C 
ATOM      3  O   UNL     1      -4.049   2.339  -4.088  0.00  0.00    -0.273 OA
ATOM      4  N   UNL     1      -2.997   2.011  -6.099  0.00  0.00    -0.238 N 
ATOM      5  C   UNL     1      -1.920   2.502  -6.723  0.00  0.00    +0.307 C 
ATOM      6  O   UNL     1      -1.561   2.148  -7.829  0.00  0.00    -0.252 OA
ATOM      7  N   UNL     1      -1.280   3.431  -5.990  0.00  0.00    -0.284 N 
ATOM      8  H   UNL     1      -3.582   1.333  -6.472  0.00  0.00    +0.159 HD
ATOM      9  H   UNL     1      -0.480   3.917  -6.243  0.00  0.00    +0.151 HD
ENDROOT
BRANCH   1  10
ATOM     10  C   UNL     1      -1.151   3.189  -3.537  0.00  0.00    +0.018 C 
ATOM     11  C   UNL     1      -0.771   1.708  -3.627  0.00  0.00    -0.013 C 
ATOM     12  C   UNL     1       0.058   1.323  -2.400  0.00  0.00    -0.078 C 
ATOM     13  C   UNL     1      -1.059   2.996  -1.049  0.00  0.00    -0.078 C 
ATOM     14  C   UNL     1      -1.922   3.431  -2.236  0.00  0.00    -0.013 C 
ATOM     15  N   UNL     1      -0.749   1.556  -1.184  0.00  0.00    +0.382 N 
ATOM     16  H   UNL     1      -1.628   1.032  -1.261  0.00  0.00    -0.081 HD
BRANCH  15  17
ATOM     17  C   UNL     1      -0.013   1.086   0.008  0.00  0.00    -0.043 C 
BRANCH  17  18
ATOM     18  C   UNL     1      -0.718   1.572   1.248  0.00  0.00    -0.063 A 
ATOM     19  C   UNL     1      -0.362   2.779   1.821  0.00  0.00    +0.005 A 
ATOM     20  C   UNL     1      -1.005   3.229   2.955  0.00  0.00    +0.046 A 
ATOM     21  C   UNL     1      -2.012   2.465   3.540  0.00  0.00    +0.124 A 
ATOM     22  C   UNL     1      -2.362   1.255   2.955  0.00  0.00    -0.002 A 
ATOM     23  C   UNL     1      -1.721   0.809   1.820  0.00  0.00    +0.009 A 
ATOM     24  C   UNL     1      -3.481   0.665   3.790  0.00  0.00    +0.080 C 
ATOM     25  C   UNL     1      -3.935   1.886   4.625  0.00  0.00    +0.234 C 
ATOM     26  O   UNL     1      -2.756   2.707   4.654  0.00  0.00    -0.491 OA
ENDBRANCH  17  18
ENDBRANCH  15  17
ENDBRANCH   1  10
BRANCH   1  27
ATOM     27  C   UNL     1      -2.569   4.988  -4.573  0.00  0.00    +0.073 C 
BRANCH  27  32
ATOM     28  C   UNL     1      -3.679   6.328  -7.923  0.00  0.00    +0.000 A 
ATOM     29  C   UNL     1      -5.014   5.967  -7.938  0.00  0.00    +0.003 A 
ATOM     30  C   UNL     1      -5.559   5.290  -6.864  0.00  0.00    +0.038 A 
ATOM     31  C   UNL     1      -4.768   4.972  -5.773  0.00  0.00    +0.127 A 
ATOM     32  C   UNL     1      -3.432   5.333  -5.760  0.00  0.00    -0.010 A 
ATOM     33  C   UNL     1      -2.890   6.016  -6.832  0.00  0.00    +0.006 A 
ATOM     34  F   UNL     1      -5.300   4.310  -4.722  0.00  0.00    -0.205 F 
ENDBRANCH  27  32
ENDBRANCH   1  27
TORSDOF 5
