REMARK  Name = ZINC22093014
REMARK  12 active torsions:
REMARK  status: ('A' for Active; 'I' for Inactive)
REMARK    1  A    between atoms: C_1  and  C_2
REMARK    2  A    between atoms: C_2  and  C_3
REMARK    3  A    between atoms: C_2  and  C_4
REMARK    4  A    between atoms: C_2  and  C_5
REMARK    5  A    between atoms: C_7  and  C_16
REMARK    6  A    between atoms: C_8  and  O_15
REMARK    7  A    between atoms: C_9  and  C_11
REMARK    8  A    between atoms: C_11  and  C_12
REMARK    9  A    between atoms: C_11  and  C_13
REMARK   10  A    between atoms: C_11  and  C_14
REMARK   11  A    between atoms: C_16  and  N_17
REMARK   12  A    between atoms: N_20  and  C_23
REMARK                            x       y       z     vdW  Elec       q    Type
REMARK                         _______ _______ _______ _____ _____    ______ ____
ROOT
ATOM      1  C   UNL     1       6.560   0.408   2.043  0.00  0.00    -0.041 A 
ATOM      2  C   UNL     1       5.367  -0.284   1.949  0.00  0.00    +0.012 A 
ATOM      3  C   UNL     1       4.205   0.267   2.455  0.00  0.00    +0.009 A 
ATOM      4  C   UNL     1       4.236   1.520   3.051  0.00  0.00    +0.125 A 
ATOM      5  C   UNL     1       5.435   2.210   3.148  0.00  0.00    +0.000 A 
ATOM      6  C   UNL     1       6.594   1.654   2.642  0.00  0.00    +0.012 A 
ENDROOT
BRANCH   1   8
ATOM      7  C   UNL     1       7.515  -1.567   0.888  0.00  0.00    +0.015 C 
ATOM      8  C   UNL     1       7.826  -0.196   1.491  0.00  0.00    -0.013 C 
ATOM      9  C   UNL     1       8.398   0.720   0.408  0.00  0.00    +0.015 C 
ATOM     10  C   UNL     1       8.848  -0.354   2.618  0.00  0.00    +0.015 C 
ENDBRANCH   1   8
BRANCH   5  11
ATOM     11  C   UNL     1       5.473   3.568   3.801  0.00  0.00    -0.009 C 
ATOM     12  C   UNL     1       6.904   4.108   3.772  0.00  0.00    +0.015 C 
ATOM     13  C   UNL     1       4.551   4.524   3.042  0.00  0.00    +0.015 C 
ATOM     14  C   UNL     1       5.002   3.450   5.252  0.00  0.00    +0.015 C 
ENDBRANCH   5  11
BRANCH   4  15
ATOM     15  O   UNL     1       3.094   2.067   3.544  0.00  0.00    -0.506 OA
ATOM     16  H   UNL     1       3.119   3.060   4.017  0.00  0.00    +0.292 HD
ENDBRANCH   4  15
BRANCH   3  17
ATOM     17  C   UNL     1       2.905  -0.488   2.352  0.00  0.00    +0.123 C 
BRANCH  17  18
ATOM     18  N   UNL     1       2.123   0.034   1.224  0.00  0.00    -0.302 NA
ATOM     19  C   UNL     1       0.757  -0.508   1.234  0.00  0.00    +0.066 C 
ATOM     20  C   UNL     1       0.002  -0.004   0.002  0.00  0.00    -0.063 C 
ATOM     21  N   UNL     1      -0.018   1.465   0.010  0.00  0.00    +0.384 N 
ATOM     22  C   UNL     1       1.348   2.008   0.000  0.00  0.00    -0.063 C 
ATOM     23  C   UNL     1       2.103   1.504   1.232  0.00  0.00    +0.066 C 
ATOM     24  H   UNL     1      -0.507   1.793   0.939  0.00  0.00    -0.081 HD
BRANCH  21  25
ATOM     25  C   UNL     1      -0.800   1.987  -1.118  0.00  0.00    -0.046 C 
ATOM     26  C   UNL     1      -0.907   3.518  -1.012  0.00  0.00    +0.009 C 
ATOM     27  C   UNL     1      -1.442   4.103  -2.342  0.00  0.00    +0.164 C 
ATOM     28  S   UNL     1      -0.871   2.872  -3.583  0.00  0.00    -0.033 S 
ATOM     29  O   UNL     1      -2.004   2.276  -4.199  0.00  0.00    -0.174 OA
ATOM     30  O   UNL     1       0.134   3.465  -4.394  0.00  0.00    -0.174 OA
ATOM     31  C   UNL     1      -0.086   1.643  -2.457  0.00  0.00    +0.151 C 
ENDBRANCH  21  25
ENDBRANCH  17  18
ENDBRANCH   3  17
TORSDOF 6
