REMARK  Name = ZINC09252225
REMARK  9 active torsions:
REMARK  status: ('A' for Active; 'I' for Inactive)
REMARK    1  A    between atoms: C_1  and  C_2
REMARK    2  A    between atoms: C_2  and  C_3
REMARK    3  A    between atoms: C_8  and  N_9
REMARK    4  A    between atoms: C_10  and  C_12
REMARK    5  A    between atoms: N_14  and  C_15
REMARK    6  A    between atoms: C_15  and  C_16
REMARK    7  A    between atoms: C_16  and  C_18
REMARK    8  A    between atoms: C_16  and  N_65
REMARK    9  A    between atoms: N_26  and  C_29
REMARK                            x       y       z     vdW  Elec       q    Type
REMARK                         _______ _______ _______ _____ _____    ______ ____
ROOT
ATOM      1  C   UNL     1      -3.143   0.581  -0.278  0.00  0.00    -0.019 C 
ENDROOT
BRANCH   1   7
ATOM      2  C   UNL     1      -2.478  -1.393  -1.512  0.00  0.00    -0.059 C 
ATOM      3  C   UNL     1      -2.417  -2.013  -2.910  0.00  0.00    +0.086 C 
ATOM      4  N   UNL     1      -1.559  -1.188  -3.771  0.00  0.00    -0.333 N 
ATOM      5  C   UNL     1      -2.079   0.183  -3.869  0.00  0.00    +0.086 C 
ATOM      6  C   UNL     1      -2.140   0.803  -2.470  0.00  0.00    -0.059 C 
ATOM      7  N   UNL     1      -3.023  -0.024  -1.621  0.00  0.00    +0.387 N 
ATOM      8  H   UNL     1      -3.954  -0.068  -2.051  0.00  0.00    -0.081 HD
BRANCH   4   9
ATOM      9  C   UNL     1      -1.421  -1.762  -5.037  0.00  0.00    +0.030 A 
ATOM     10  C   UNL     1      -1.767  -1.038  -6.171  0.00  0.00    +0.023 A 
ATOM     11  C   UNL     1      -1.625  -1.607  -7.422  0.00  0.00    +0.002 A 
ATOM     12  C   UNL     1      -1.149  -2.900  -7.545  0.00  0.00    +0.000 A 
ATOM     13  C   UNL     1      -0.808  -3.625  -6.418  0.00  0.00    +0.002 A 
ATOM     14  C   UNL     1      -0.943  -3.060  -5.165  0.00  0.00    +0.023 A 
ENDBRANCH   4   9
ENDBRANCH   1   7
BRANCH   1  15
ATOM     15  C   UNL     1      -4.322   1.520  -0.277  0.00  0.00    -0.041 A 
ATOM     16  C   UNL     1      -5.054   1.727   0.882  0.00  0.00    +0.005 A 
ATOM     17  C   UNL     1      -6.128   2.603   0.836  0.00  0.00    +0.020 A 
ATOM     18  C   UNL     1      -6.437   3.228  -0.357  0.00  0.00    +0.111 A 
ATOM     19  N   UNL     1      -5.721   3.003  -1.441  0.00  0.00    -0.263 NA
ATOM     20  C   UNL     1      -4.690   2.181  -1.434  0.00  0.00    +0.112 A 
ENDBRANCH   1  15
BRANCH   1  21
ATOM     21  C   UNL     1      -1.872   1.359   0.071  0.00  0.00    +0.094 C 
BRANCH  21  24
ATOM     22  C   UNL     1       0.504   0.901   0.360  0.00  0.00    +0.299 C 
ATOM     23  O   UNL     1       0.696   2.097   0.426  0.00  0.00    -0.265 OA
ATOM     24  N   UNL     1      -0.746   0.428   0.186  0.00  0.00    -0.309 N 
ATOM     25  H   UNL     1      -0.900  -0.528   0.134  0.00  0.00    +0.149 HD
BRANCH  22  27
ATOM     26  N   UNL     1       2.902   0.425   0.645  0.00  0.00    -0.278 N 
ATOM     27  C   UNL     1       1.652  -0.048   0.471  0.00  0.00    +0.303 C 
ATOM     28  O   UNL     1       1.459  -1.244   0.405  0.00  0.00    -0.265 OA
ATOM     29  H   UNL     1       3.050   1.377   0.755  0.00  0.00    +0.155 HD
BRANCH  26  35
ATOM     30  C   UNL     1       5.243  -0.024   0.264  0.00  0.00    -0.026 A 
ATOM     31  C   UNL     1       6.312  -0.898   0.286  0.00  0.00    +0.005 A 
ATOM     32  C   UNL     1       6.132  -2.203   0.709  0.00  0.00    +0.000 A 
ATOM     33  C   UNL     1       4.882  -2.636   1.111  0.00  0.00    +0.002 A 
ATOM     34  C   UNL     1       3.810  -1.766   1.095  0.00  0.00    +0.023 A 
ATOM     35  C   UNL     1       3.986  -0.457   0.666  0.00  0.00    +0.037 A 
BRANCH  30  37
ATOM     36  C   UNL     1       5.681   2.297   1.017  0.00  0.00    +0.009 C 
ATOM     37  C   UNL     1       5.441   1.397  -0.197  0.00  0.00    +0.033 C 
ENDBRANCH  30  37
ENDBRANCH  26  35
ENDBRANCH  22  27
ENDBRANCH  21  24
ENDBRANCH   1  21
TORSDOF 8
