REMARK  Name = ZINC40036255
REMARK  9 active torsions:
REMARK  status: ('A' for Active; 'I' for Inactive)
REMARK    1  A    between atoms: C_1  and  C_2
REMARK    2  A    between atoms: C_2  and  C_3
REMARK    3  A    between atoms: C_3  and  C_4
REMARK    4  A    between atoms: C_4  and  C_30
REMARK    5  A    between atoms: N_16  and  C_28
REMARK    6  A    between atoms: N_19  and  N_20
REMARK    7  A    between atoms: C_21  and  C_22
REMARK    8  A    between atoms: C_25  and  C_27
REMARK    9  A    between atoms: C_28  and  C_29
REMARK                            x       y       z     vdW  Elec       q    Type
REMARK                         _______ _______ _______ _____ _____    ______ ____
ROOT
ATOM      1  C   UNL     1       0.739  -2.027  -1.265  0.00  0.00    +0.004 C 
ATOM      2  C   UNL     1       1.543  -2.411  -2.505  0.00  0.00    +0.047 C 
ATOM      3  C   UNL     1       0.756  -2.125  -3.755  0.00  0.00    -0.037 A 
ATOM      4  C   UNL     1       1.394  -1.686  -4.897  0.00  0.00    +0.004 A 
ATOM      5  C   UNL     1       0.664  -1.429  -6.043  0.00  0.00    +0.000 A 
ATOM      6  C   UNL     1      -0.708  -1.611  -6.056  0.00  0.00    +0.001 A 
ATOM      7  C   UNL     1      -1.358  -2.049  -4.920  0.00  0.00    +0.010 A 
ATOM      8  C   UNL     1      -0.627  -2.306  -3.763  0.00  0.00    +0.004 A 
ATOM      9  C   UNL     1      -1.298  -2.767  -2.526  0.00  0.00    +0.084 A 
ATOM     10  C   UNL     1      -0.634  -2.636  -1.315  0.00  0.00    +0.049 A 
ATOM     11  C   UNL     1      -1.266  -3.081  -0.147  0.00  0.00    +0.260 A 
ATOM     12  O   UNL     1      -0.713  -2.984   0.937  0.00  0.00    -0.267 OA
ATOM     13  N   UNL     1      -2.501  -3.618  -0.245  0.00  0.00    -0.280 N 
ATOM     14  C   UNL     1      -3.112  -3.718  -1.459  0.00  0.00    +0.219 A 
ATOM     15  N   UNL     1      -2.522  -3.303  -2.562  0.00  0.00    -0.214 NA
ATOM     16  N   UNL     1      -4.366  -4.263  -1.535  0.00  0.00    -0.206 N 
ATOM     17  C   UNL     1       1.468  -2.529  -0.017  0.00  0.00    +0.017 C 
ATOM     18  H   UNL     1      -4.810  -4.573  -0.730  0.00  0.00    +0.177 HD
ENDROOT
BRANCH  16  19
ATOM     19  N   UNL     1      -5.008  -4.373  -2.775  0.00  0.00    -0.184 NA
ATOM     20  C   UNL     1      -6.200  -4.891  -2.848  0.00  0.00    +0.176 C 
BRANCH  20  21
ATOM     21  C   UNL     1      -6.872  -5.006  -4.146  0.00  0.00    +0.148 A 
ATOM     22  C   UNL     1      -8.117  -5.521  -4.361  0.00  0.00    +0.051 A 
ATOM     23  C   UNL     1      -8.357  -5.435  -5.745  0.00  0.00    +0.045 A 
ATOM     24  C   UNL     1      -7.262  -4.879  -6.303  0.00  0.00    +0.103 A 
ATOM     25  O   UNL     1      -6.370  -4.617  -5.335  0.00  0.00    -0.459 OA
ATOM     26  C   UNL     1      -7.074  -4.594  -7.771  0.00  0.00    +0.086 C 
ENDBRANCH  20  21
ENDBRANCH  16  19
BRANCH  13  27
ATOM     27  C   UNL     1      -3.187  -4.096   0.958  0.00  0.00    +0.125 C 
ATOM     28  C   UNL     1      -4.009  -2.956   1.563  0.00  0.00    +0.027 C 
ENDBRANCH  13  27
BRANCH   1  29
ATOM     29  C   UNL     1       0.613  -0.504  -1.198  0.00  0.00    +0.011 C 
BRANCH  29  31
ATOM     30  C   UNL     1      -0.295   1.411   0.126  0.00  0.00    +0.004 C 
ATOM     31  C   UNL     1      -0.168  -0.112   0.058  0.00  0.00    -0.003 C 
ENDBRANCH  29  31
ENDBRANCH   1  29
TORSDOF 5
