REMARK  Name = ZINC60382709
REMARK  12 active torsions:
REMARK  status: ('A' for Active; 'I' for Inactive)
REMARK    1  A    between atoms: C_1  and  C_2
REMARK    2  A    between atoms: C_2  and  N_3
REMARK    3  A    between atoms: N_3  and  C_4
REMARK    4  A    between atoms: N_3  and  C_6
REMARK    5  A    between atoms: C_4  and  C_5
REMARK    6  A    between atoms: C_6  and  S_8
REMARK    7  A    between atoms: S_8  and  C_9
REMARK    8  A    between atoms: C_9  and  C_10
REMARK    9  A    between atoms: C_18  and  C_22
REMARK   10  A    between atoms: C_19  and  C_21
REMARK   11  A    between atoms: C_22  and  C_23
REMARK   12  A    between atoms: C_22  and  C_24
REMARK                            x       y       z     vdW  Elec       q    Type
REMARK                         _______ _______ _______ _____ _____    ______ ____
ROOT
ATOM      1  C   UNL     1      -5.372  -1.947   3.068  0.00  0.00    -0.020 A 
ATOM      2  C   UNL     1      -5.526  -3.161   3.654  0.00  0.00    +0.097 A 
ATOM      3  C   UNL     1      -6.814  -3.600   4.030  0.00  0.00    +0.338 A 
ATOM      4  O   UNL     1      -6.939  -4.692   4.554  0.00  0.00    -0.245 OA
ATOM      5  O   UNL     1      -7.904  -2.845   3.825  0.00  0.00    -0.422 OA
ATOM      6  C   UNL     1      -7.820  -1.627   3.247  0.00  0.00    +0.140 A 
ATOM      7  C   UNL     1      -6.567  -1.126   2.852  0.00  0.00    +0.022 A 
ATOM      8  C   UNL     1      -6.476   0.137   2.259  0.00  0.00    +0.016 A 
ATOM      9  C   UNL     1      -7.618   0.883   2.070  0.00  0.00    -0.041 A 
ATOM     10  C   UNL     1      -8.852   0.389   2.465  0.00  0.00    -0.044 A 
ATOM     11  C   UNL     1      -8.958  -0.859   3.042  0.00  0.00    +0.050 A 
ATOM     12  C   UNL     1     -10.092   1.219   2.251  0.00  0.00    +0.044 C 
ENDROOT
BRANCH   9  13
ATOM     13  C   UNL     1      -7.526   2.245   1.431  0.00  0.00    +0.013 C 
ATOM     14  C   UNL     1      -6.748   3.189   2.352  0.00  0.00    +0.012 C 
ATOM     15  C   UNL     1      -6.801   2.131   0.089  0.00  0.00    +0.012 C 
ENDBRANCH   9  13
BRANCH   1  16
ATOM     16  C   UNL     1      -4.009  -1.453   2.657  0.00  0.00    +0.112 C 
BRANCH  16  17
ATOM     17  S   UNL     1      -3.844  -1.564   0.854  0.00  0.00    -0.098 S 
BRANCH  17  18
ATOM     18  C   UNL     1      -2.220  -0.959   0.536  0.00  0.00    +0.109 C 
ATOM     19  S   UNL     1      -1.229  -0.445   1.834  0.00  0.00    -0.028 S 
BRANCH  18  20
ATOM     20  N   UNL     1      -1.757  -0.901  -0.728  0.00  0.00    -0.320 N 
BRANCH  20  22
ATOM     21  C   UNL     1      -0.461   1.115  -1.214  0.00  0.00    +0.024 C 
ATOM     22  C   UNL     1      -0.407  -0.398  -0.992  0.00  0.00    +0.102 C 
ENDBRANCH  20  22
BRANCH  20  23
ATOM     23  C   UNL     1      -2.605  -1.341  -1.839  0.00  0.00    +0.102 C 
ATOM     24  C   UNL     1      -2.377  -2.832  -2.095  0.00  0.00    +0.024 C 
ENDBRANCH  20  23
ENDBRANCH  18  20
ENDBRANCH  17  18
ENDBRANCH  16  17
ENDBRANCH   1  16
TORSDOF 7
