REMARK  Name = ZINC03906870
REMARK  5 active torsions:
REMARK  status: ('A' for Active; 'I' for Inactive)
REMARK    1  A    between atoms: C_1  and  C_2
REMARK    2  A    between atoms: C_2  and  C_3
REMARK    3  A    between atoms: C_3  and  N_4
REMARK    4  A    between atoms: C_16  and  C_20
REMARK    5  A    between atoms: C_17  and  C_19
REMARK                            x       y       z     vdW  Elec       q    Type
REMARK                         _______ _______ _______ _____ _____    ______ ____
ROOT
ATOM      1  N   UNL     1      -1.413  -1.998   0.005  0.00  0.00    -0.273 N 
ATOM      2  C   UNL     1      -1.410  -2.670  -1.184  0.00  0.00    +0.145 C 
ATOM      3  N   UNL     1      -1.255  -4.019  -1.245  0.00  0.00    -0.360 N 
ATOM      4  C   UNL     1      -1.228  -4.831  -0.019  0.00  0.00    +0.123 C 
ATOM      5  C   UNL     1      -2.671  -5.062   0.379  0.00  0.00    +0.017 A 
ATOM      6  C   UNL     1      -3.328  -6.182  -0.094  0.00  0.00    +0.009 A 
ATOM      7  C   UNL     1      -4.649  -6.406   0.249  0.00  0.00    +0.001 A 
ATOM      8  C   UNL     1      -5.311  -5.507   1.065  0.00  0.00    +0.004 A 
ATOM      9  C   UNL     1      -4.655  -4.390   1.540  0.00  0.00    +0.046 A 
ATOM     10  C   UNL     1      -3.323  -4.163   1.202  0.00  0.00    +0.129 A 
ATOM     11  O   UNL     1      -2.701  -3.070   1.711  0.00  0.00    -0.468 OA
ATOM     12  C   UNL     1      -1.391  -2.731   1.269  0.00  0.00    +0.182 C 
ATOM     13  C   UNL     1      -0.541  -4.014   1.087  0.00  0.00    +0.075 C 
ATOM     14  C   UNL     1       0.889  -3.667   0.668  0.00  0.00    +0.016 C 
ATOM     15  C   UNL     1      -0.715  -1.862   2.332  0.00  0.00    +0.079 C 
ATOM     16  S   UNL     1      -1.601  -1.815  -2.594  0.00  0.00    -0.016 SA
ATOM     17  H   UNL     1      -1.161  -4.452  -2.108  0.00  0.00    +0.162 HD
ENDROOT
BRANCH   1  18
ATOM     18  C   UNL     1      -1.433  -0.534   0.013  0.00  0.00    +0.110 C 
BRANCH  18  20
ATOM     19  C   UNL     1      -0.019   1.526   0.010  0.00  0.00    +0.005 C 
ATOM     20  C   UNL     1       0.002  -0.004   0.002  0.00  0.00    +0.016 C 
ENDBRANCH  18  20
ENDBRANCH   1  18
TORSDOF 2
