REMARK  Name = ZINC36346749
REMARK  14 active torsions:
REMARK  status: ('A' for Active; 'I' for Inactive)
REMARK    1  A    between atoms: C_1  and  C_2
REMARK    2  A    between atoms: C_2  and  C_3
REMARK    3  A    between atoms: C_3  and  N_4
REMARK    4  A    between atoms: N_4  and  C_5
REMARK    5  A    between atoms: N_4  and  C_27
REMARK    6  A    between atoms: C_5  and  C_6
REMARK    7  A    between atoms: C_7  and  C_26
REMARK    8  A    between atoms: N_9  and  C_19
REMARK    9  A    between atoms: C_10  and  O_11
REMARK   10  A    between atoms: O_11  and  C_12
REMARK   11  A    between atoms: C_27  and  C_28
REMARK   12  A    between atoms: C_28  and  C_30
REMARK   13  A    between atoms: C_28  and  O_37
REMARK   14  A    between atoms: C_30  and  C_31
REMARK                            x       y       z     vdW  Elec       q    Type
REMARK                         _______ _______ _______ _____ _____    ______ ____
ROOT
ATOM      1  C   UNL     1       2.929  -1.721  -2.225  0.00  0.00    +0.021 A 
ATOM      2  C   UNL     1       3.154  -0.363  -2.471  0.00  0.00    +0.065 A 
ATOM      3  N   UNL     1       4.269  -0.014  -1.881  0.00  0.00    -0.168 NA
ATOM      4  N   UNL     1       4.798  -1.139  -1.236  0.00  0.00    -0.200 N 
ATOM      5  C   UNL     1       3.952  -2.181  -1.456  0.00  0.00    +0.225 A 
ATOM      6  C   UNL     1       2.263   0.545  -3.279  0.00  0.00    +0.068 C 
ENDROOT
BRANCH   4   7
ATOM      7  C   UNL     1       5.986  -1.182  -0.491  0.00  0.00    +0.069 A 
ATOM      8  C   UNL     1       6.043  -1.920   0.684  0.00  0.00    +0.031 A 
ATOM      9  C   UNL     1       7.213  -1.961   1.416  0.00  0.00    +0.040 A 
ATOM     10  C   UNL     1       8.329  -1.266   0.980  0.00  0.00    +0.124 A 
ATOM     11  C   UNL     1       8.273  -0.529  -0.191  0.00  0.00    +0.040 A 
ATOM     12  C   UNL     1       7.107  -0.491  -0.930  0.00  0.00    +0.031 A 
ATOM     13  F   UNL     1       9.472  -1.306   1.698  0.00  0.00    -0.205 F 
ENDBRANCH   4   7
BRANCH   1  14
ATOM     14  C   UNL     1       1.758  -2.530  -2.719  0.00  0.00    -0.036 C 
BRANCH  14  15
ATOM     15  N   UNL     1       0.751  -2.634  -1.655  0.00  0.00    +0.384 N 
ATOM     16  H   UNL     1       1.180  -3.003  -0.820  0.00  0.00    -0.081 HD
BRANCH  15  17
ATOM     17  C   UNL     1       0.198  -1.302  -1.373  0.00  0.00    -0.079 C 
BRANCH  17  19
ATOM     18  C   UNL     1      -1.067   0.624  -2.338  0.00  0.00    +0.002 C 
ATOM     19  C   UNL     1      -0.578  -0.803  -2.594  0.00  0.00    -0.022 C 
ENDBRANCH  17  19
ENDBRANCH  15  17
BRANCH  15  20
ATOM     20  C   UNL     1      -0.329  -3.530  -2.088  0.00  0.00    -0.046 C 
BRANCH  20  21
ATOM     21  C   UNL     1      -1.321  -3.726  -0.940  0.00  0.00    +0.102 C 
BRANCH  21  22
ATOM     22  O   UNL     1      -0.647  -4.306   0.178  0.00  0.00    -0.393 OA
ATOM     23  H   UNL     1      -0.250  -5.168  -0.005  0.00  0.00    +0.210 HD
ENDBRANCH  21  22
BRANCH  21  24
ATOM     24  C   UNL     1      -2.449  -4.655  -1.393  0.00  0.00    +0.064 C 
BRANCH  24  25
ATOM     25  C   UNL     1      -3.489  -4.751  -0.307  0.00  0.00    -0.045 A 
ATOM     26  C   UNL     1      -3.383  -5.726   0.668  0.00  0.00    +0.004 A 
ATOM     27  C   UNL     1      -4.336  -5.813   1.665  0.00  0.00    +0.000 A 
ATOM     28  C   UNL     1      -5.396  -4.925   1.687  0.00  0.00    +0.000 A 
ATOM     29  C   UNL     1      -5.502  -3.950   0.713  0.00  0.00    +0.000 A 
ATOM     30  C   UNL     1      -4.545  -3.860  -0.281  0.00  0.00    +0.004 A 
ENDBRANCH  24  25
ENDBRANCH  21  24
ENDBRANCH  20  21
ENDBRANCH  15  20
ENDBRANCH  14  15
ENDBRANCH   1  14
BRANCH   5  31
ATOM     31  O   UNL     1       4.104  -3.449  -0.995  0.00  0.00    -0.438 OA
BRANCH  31  32
ATOM     32  C   UNL     1       4.870  -4.304  -1.722  0.00  0.00    +0.131 A 
ATOM     33  C   UNL     1       5.560  -3.845  -2.834  0.00  0.00    +0.049 A 
ATOM     34  C   UNL     1       6.339  -4.716  -3.571  0.00  0.00    +0.042 A 
ATOM     35  C   UNL     1       6.431  -6.047  -3.201  0.00  0.00    +0.124 A 
ATOM     36  C   UNL     1       5.742  -6.507  -2.091  0.00  0.00    +0.042 A 
ATOM     37  C   UNL     1       4.968  -5.637  -1.348  0.00  0.00    +0.049 A 
ATOM     38  F   UNL     1       7.193  -6.897  -3.923  0.00  0.00    -0.205 F 
ENDBRANCH  31  32
ENDBRANCH   5  31
TORSDOF 12
