REMARK  Name = ZINC11976592
REMARK  10 active torsions:
REMARK  status: ('A' for Active; 'I' for Inactive)
REMARK    1  A    between atoms: C_1  and  C_2
REMARK    2  A    between atoms: C_4  and  S_12
REMARK    3  A    between atoms: S_12  and  C_13
REMARK    4  A    between atoms: C_13  and  C_14
REMARK    5  A    between atoms: C_14  and  C_16
REMARK    6  A    between atoms: C_17  and  N_29
REMARK    7  A    between atoms: N_18  and  C_25
REMARK    8  A    between atoms: C_25  and  C_26
REMARK    9  A    between atoms: C_26  and  C_27
REMARK   10  A    between atoms: C_26  and  C_28
REMARK                            x       y       z     vdW  Elec       q    Type
REMARK                         _______ _______ _______ _____ _____    ______ ____
ROOT
ATOM      1  C   UNL     1       0.075  -6.998  -3.282  0.00  0.00    +0.120 A 
ATOM      2  C   UNL     1      -0.009  -7.834  -4.410  0.00  0.00    +0.116 A 
ATOM      3  N   UNL     1       0.024  -9.188  -4.232  0.00  0.00    -0.281 N 
ATOM      4  C   UNL     1       0.134  -9.729  -3.009  0.00  0.00    +0.331 A 
ATOM      5  O   UNL     1       0.159 -10.939  -2.904  0.00  0.00    -0.246 OA
ATOM      6  N   UNL     1       0.218  -8.981  -1.896  0.00  0.00    -0.274 N 
ATOM      7  H   UNL     1       0.296  -9.416  -1.032  0.00  0.00    +0.173 HD
ATOM      8  C   UNL     1       0.201  -7.634  -1.964  0.00  0.00    +0.266 A 
ATOM      9  O   UNL     1       0.282  -6.960  -0.955  0.00  0.00    -0.267 OA
ENDROOT
BRANCH   2  10
ATOM     10  N   UNL     1      -0.122  -7.303  -5.657  0.00  0.00    -0.344 N 
ATOM     11  H   UNL     1      -0.066  -6.343  -5.782  0.00  0.00    +0.144 HD
ATOM     12  H   UNL     1      -0.258  -7.884  -6.421  0.00  0.00    +0.144 HD
ENDBRANCH   2  10
BRANCH   1  13
ATOM     13  C   UNL     1       0.046  -5.593  -3.414  0.00  0.00    +0.182 C 
ATOM     14  O   UNL     1       0.054  -5.086  -4.517  0.00  0.00    -0.291 OA
BRANCH  13  15
ATOM     15  C   UNL     1       0.005  -4.723  -2.184  0.00  0.00    +0.155 C 
BRANCH  15  16
ATOM     16  S   UNL     1      -0.025  -2.978  -2.680  0.00  0.00    -0.098 S 
BRANCH  16  20
ATOM     17  C   UNL     1      -0.171   1.498   0.015  0.00  0.00    +0.044 C 
ATOM     18  C   UNL     1      -0.138  -0.008   0.006  0.00  0.00    -0.039 A 
ATOM     19  C   UNL     1      -0.102  -0.699  -1.167  0.00  0.00    +0.038 A 
ATOM     20  C   UNL     1      -0.071  -2.101  -1.152  0.00  0.00    +0.098 A 
ATOM     21  N   UNL     1      -0.076  -2.779  -0.021  0.00  0.00    -0.240 NA
ATOM     22  C   UNL     1      -0.111  -2.154   1.161  0.00  0.00    +0.072 A 
ATOM     23  C   UNL     1      -0.137  -0.739   1.212  0.00  0.00    +0.003 A 
ATOM     24  C   UNL     1      -0.168  -0.090   2.456  0.00  0.00    +0.010 A 
ATOM     25  C   UNL     1      -0.167  -0.829   3.601  0.00  0.00    +0.001 A 
ATOM     26  C   UNL     1      -0.135  -2.220   3.553  0.00  0.00    +0.002 A 
ATOM     27  C   UNL     1      -0.116  -2.882   2.364  0.00  0.00    +0.028 A 
ENDBRANCH  16  20
ENDBRANCH  15  16
ENDBRANCH  13  15
ENDBRANCH   1  13
BRANCH   3  28
ATOM     28  C   UNL     1      -0.063 -10.067  -5.401  0.00  0.00    +0.131 C 
BRANCH  28  29
ATOM     29  C   UNL     1       1.344 -10.354  -5.929  0.00  0.00    +0.003 C 
ATOM     30  C   UNL     1       2.129 -11.148  -4.882  0.00  0.00    +0.009 C 
ATOM     31  C   UNL     1       1.247 -11.169  -7.220  0.00  0.00    +0.009 C 
ENDBRANCH  28  29
ENDBRANCH   3  28
TORSDOF 7
