REMARK  Name = ZINC40061898
REMARK  5 active torsions:
REMARK  status: ('A' for Active; 'I' for Inactive)
REMARK    1  A    between atoms: C_7  and  C_10
REMARK    2  A    between atoms: C_13  and  S_16
REMARK    3  A    between atoms: S_16  and  C_17
REMARK    4  A    between atoms: C_17  and  C_18
REMARK    5  A    between atoms: N_20  and  C_21
REMARK                            x       y       z     vdW  Elec       q    Type
REMARK                         _______ _______ _______ _____ _____    ______ ____
ROOT
ATOM      1  C   UNL     1       0.703  -3.135  -0.020  0.00  0.00    +0.238 C 
ATOM      2  N   UNL     1      -0.598  -3.007  -0.016  0.00  0.00    -0.145 NA
ATOM      3  N   UNL     1      -1.207  -4.270  -0.017  0.00  0.00    -0.219 N 
ATOM      4  C   UNL     1      -0.101  -5.242  -0.022  0.00  0.00    +0.339 C 
ATOM      5  O   UNL     1       1.085  -4.436  -0.029  0.00  0.00    -0.443 OA
ATOM      6  H   UNL     1      -2.158  -4.463  -0.015  0.00  0.00    +0.173 HD
ENDROOT
BRANCH   1  13
ATOM      7  C   UNL     1       0.038   1.352   0.007  0.00  0.00    +0.001 A 
ATOM      8  C   UNL     1       1.222   2.092   0.003  0.00  0.00    +0.002 A 
ATOM      9  C   UNL     1       2.439   1.494  -0.009  0.00  0.00    +0.026 A 
ATOM     10  C   UNL     1       2.530   0.079  -0.017  0.00  0.00    +0.043 A 
ATOM     11  N   UNL     1       3.572  -0.729  -0.028  0.00  0.00    -0.380 N 
ATOM     12  C   UNL     1       3.108  -2.119  -0.032  0.00  0.00    +0.154 C 
ATOM     13  C   UNL     1       1.597  -2.055  -0.021  0.00  0.00    +0.043 C 
ATOM     14  C   UNL     1       1.278  -0.697  -0.012  0.00  0.00    +0.008 A 
ATOM     15  C   UNL     1       0.048  -0.006   0.000  0.00  0.00    +0.010 A 
ATOM     16  H   UNL     1       4.500  -0.447  -0.034  0.00  0.00    +0.160 HD
ENDBRANCH   1  13
BRANCH   4  17
ATOM     17  S   UNL     1      -0.163  -6.280   1.465  0.00  0.00    -0.087 S 
BRANCH  17  18
ATOM     18  C   UNL     1      -0.012  -5.097   2.832  0.00  0.00    +0.170 C 
BRANCH  18  19
ATOM     19  C   UNL     1      -0.049  -5.838   4.144  0.00  0.00    +0.227 C 
ATOM     20  O   UNL     1      -0.167  -7.045   4.155  0.00  0.00    -0.275 OA
ATOM     21  N   UNL     1       0.048  -5.160   5.304  0.00  0.00    -0.285 N 
ATOM     22  H   UNL     1       0.209  -4.203   5.295  0.00  0.00    +0.155 HD
BRANCH  21  23
ATOM     23  C   UNL     1      -0.085  -5.835   6.522  0.00  0.00    +0.034 A 
ATOM     24  C   UNL     1       0.399  -7.130   6.658  0.00  0.00    +0.023 A 
ATOM     25  C   UNL     1       0.267  -7.790   7.862  0.00  0.00    +0.006 A 
ATOM     26  C   UNL     1      -0.348  -7.168   8.937  0.00  0.00    -0.044 A 
ATOM     27  C   UNL     1      -0.831  -5.880   8.805  0.00  0.00    -0.042 A 
ATOM     28  C   UNL     1      -0.695  -5.211   7.601  0.00  0.00    +0.027 A 
ATOM     29  C   UNL     1      -1.452  -5.431  10.110  0.00  0.00    +0.036 C 
ATOM     30  C   UNL     1      -1.689  -6.728  10.912  0.00  0.00    +0.009 C 
ATOM     31  C   UNL     1      -0.612  -7.673  10.340  0.00  0.00    +0.036 C 
ENDBRANCH  21  23
ENDBRANCH  18  19
ENDBRANCH  17  18
ENDBRANCH   4  17
TORSDOF 5
