REMARK  Name = ZINC42888399
REMARK  9 active torsions:
REMARK  status: ('A' for Active; 'I' for Inactive)
REMARK    1  A    between atoms: C_1  and  C_2
REMARK    2  A    between atoms: C_5  and  C_8
REMARK    3  A    between atoms: C_8  and  N_9
REMARK    4  A    between atoms: C_12  and  N_18
REMARK    5  A    between atoms: N_18  and  C_19
REMARK    6  A    between atoms: N_18  and  C_20
REMARK    7  A    between atoms: C_20  and  C_22
REMARK    8  A    between atoms: C_20  and  C_23
REMARK    9  A    between atoms: C_25  and  C_29
REMARK                            x       y       z     vdW  Elec       q    Type
REMARK                         _______ _______ _______ _____ _____    ______ ____
ROOT
ATOM      1  N   UNL     1       3.821  -8.483  -1.307  0.00  0.00    +0.385 N 
ATOM      2  C   UNL     1       2.919  -9.495  -0.742  0.00  0.00    -0.095 C 
ATOM      3  H   UNL     1       3.941  -8.653  -2.294  0.00  0.00    -0.081 HD
ENDROOT
BRANCH   1   7
ATOM      4  N   UNL     1       0.579  -5.435  -0.741  0.00  0.00    -0.297 N 
ATOM      5  C   UNL     1       1.440  -5.604  -1.922  0.00  0.00    +0.106 C 
ATOM      6  C   UNL     1       1.978  -7.036  -1.935  0.00  0.00    +0.004 C 
ATOM      7  C   UNL     1       3.245  -7.146  -1.107  0.00  0.00    -0.066 C 
ATOM      8  C   UNL     1       3.026  -6.934   0.380  0.00  0.00    -0.006 C 
ATOM      9  C   UNL     1       2.609  -5.489   0.665  0.00  0.00    +0.094 C 
ATOM     10  C   UNL     1       1.111  -5.370   0.480  0.00  0.00    +0.216 C 
ATOM     11  O   UNL     1       0.392  -5.220   1.446  0.00  0.00    -0.276 OA
BRANCH   4  12
ATOM     12  C   UNL     1      -0.873  -5.330  -0.909  0.00  0.00    +0.142 C 
BRANCH  12  17
ATOM     13  C   UNL     1      -2.342   0.214  -1.609  0.00  0.00    +0.044 C 
ATOM     14  C   UNL     1      -1.959  -1.232  -1.426  0.00  0.00    -0.050 A 
ATOM     15  C   UNL     1      -1.654  -2.010  -2.527  0.00  0.00    +0.003 A 
ATOM     16  C   UNL     1      -1.302  -3.337  -2.359  0.00  0.00    +0.005 A 
ATOM     17  C   UNL     1      -1.255  -3.884  -1.091  0.00  0.00    -0.030 A 
ATOM     18  C   UNL     1      -1.560  -3.106   0.010  0.00  0.00    +0.005 A 
ATOM     19  C   UNL     1      -1.907  -1.778  -0.157  0.00  0.00    +0.003 A 
ENDBRANCH  12  17
ENDBRANCH   4  12
ENDBRANCH   1   7
BRANCH   1  20
ATOM     20  C   UNL     1       5.125  -8.559  -0.634  0.00  0.00    -0.020 C 
ATOM     21  C   UNL     1       5.711  -9.960  -0.817  0.00  0.00    -0.007 C 
BRANCH  20  22
ATOM     22  C   UNL     1       6.060  -7.541  -1.234  0.00  0.00    +0.050 A 
ATOM     23  C   UNL     1       7.152  -6.959  -0.590  0.00  0.00    +0.051 A 
ATOM     24  C   UNL     1       7.742  -6.092  -1.466  0.00  0.00    +0.066 A 
ATOM     25  N   UNL     1       7.029  -6.140  -2.626  0.00  0.00    -0.277 N 
ATOM     26  H   UNL     1       7.213  -5.632  -3.432  0.00  0.00    +0.189 HD
ATOM     27  N   UNL     1       5.988  -7.060  -2.449  0.00  0.00    -0.180 NA
BRANCH  24  28
ATOM     28  C   UNL     1       8.935  -5.257  -1.203  0.00  0.00    -0.000 A 
ATOM     29  C   UNL     1       9.570  -5.314   0.038  0.00  0.00    +0.010 A 
ATOM     30  C   UNL     1      10.682  -4.532   0.277  0.00  0.00    +0.001 A 
ATOM     31  C   UNL     1      11.166  -3.692  -0.711  0.00  0.00    +0.000 A 
ATOM     32  C   UNL     1      10.540  -3.631  -1.943  0.00  0.00    +0.001 A 
ATOM     33  C   UNL     1       9.431  -4.413  -2.196  0.00  0.00    +0.010 A 
ENDBRANCH  24  28
ENDBRANCH  20  22
ENDBRANCH   1  20
TORSDOF 6
