REMARK  Name = ZINC38932726
REMARK  7 active torsions:
REMARK  status: ('A' for Active; 'I' for Inactive)
REMARK    1  A    between atoms: C_4  and  C_7
REMARK    2  A    between atoms: N_9  and  C_10
REMARK    3  A    between atoms: C_10  and  C_12
REMARK    4  A    between atoms: C_10  and  C_24
REMARK    5  A    between atoms: N_26  and  N_27
REMARK    6  A    between atoms: C_28  and  C_29
REMARK    7  A    between atoms: C_32  and  N_34
REMARK                            x       y       z     vdW  Elec       q    Type
REMARK                         _______ _______ _______ _____ _____    ______ ____
ROOT
ATOM      1  C   UNL     1       4.993  -2.744  -0.172  0.00  0.00    +0.189 C 
ENDROOT
BRANCH   1   2
ATOM      2  C   UNL     1       5.053  -3.054   1.325  0.00  0.00    +0.156 C 
ATOM      3  C   UNL     1       6.404  -3.661   1.620  0.00  0.00    -0.009 A 
ATOM      4  C   UNL     1       7.580  -3.014   1.345  0.00  0.00    +0.006 A 
ATOM      5  C   UNL     1       8.786  -3.632   1.642  0.00  0.00    +0.000 A 
ATOM      6  C   UNL     1       8.806  -4.893   2.213  0.00  0.00    +0.001 A 
ATOM      7  C   UNL     1       7.626  -5.553   2.494  0.00  0.00    +0.013 A 
ATOM      8  C   UNL     1       6.412  -4.938   2.198  0.00  0.00    +0.045 A 
ATOM      9  C   UNL     1       5.115  -5.585   2.472  0.00  0.00    +0.283 C 
ATOM     10  O   UNL     1       5.092  -6.691   2.973  0.00  0.00    -0.267 OA
ATOM     11  N   UNL     1       3.961  -4.968   2.176  0.00  0.00    -0.105 NA
ATOM     12  N   UNL     1       3.867  -3.852   1.669  0.00  0.00    -0.305 N 
ATOM     13  H   UNL     1       2.985  -3.488   1.491  0.00  0.00    +0.181 HD
ENDBRANCH   1   2
BRANCH   1  16
ATOM     14  C   UNL     1       3.955  -0.545  -0.330  0.00  0.00    +0.245 C 
ATOM     15  O   UNL     1       4.986  -0.059   0.092  0.00  0.00    -0.270 OA
ATOM     16  N   UNL     1       3.840  -1.883  -0.447  0.00  0.00    -0.298 N 
ATOM     17  H   UNL     1       2.994  -2.276  -0.714  0.00  0.00    +0.150 HD
BRANCH  14  21
ATOM     18  C   UNL     1       0.715   1.970  -1.434  0.00  0.00    +0.000 A 
ATOM     19  C   UNL     1       1.887   2.527  -0.954  0.00  0.00    +0.001 A 
ATOM     20  C   UNL     1       2.943   1.716  -0.593  0.00  0.00    +0.013 A 
ATOM     21  C   UNL     1       2.827   0.330  -0.714  0.00  0.00    +0.037 A 
ATOM     22  C   UNL     1       1.642  -0.226  -1.199  0.00  0.00    +0.013 A 
ATOM     23  C   UNL     1       0.594   0.597  -1.556  0.00  0.00    +0.001 A 
ENDBRANCH  14  21
ENDBRANCH   1  16
BRANCH   1  24
ATOM     24  C   UNL     1       4.855  -4.030  -0.946  0.00  0.00    +0.255 C 
ATOM     25  O   UNL     1       3.759  -4.440  -1.246  0.00  0.00    -0.272 OA
ATOM     26  N   UNL     1       5.955  -4.723  -1.303  0.00  0.00    -0.205 N 
ATOM     27  H   UNL     1       6.830  -4.434  -1.000  0.00  0.00    +0.177 HD
BRANCH  26  28
ATOM     28  N   UNL     1       5.844  -5.771  -2.046  0.00  0.00    -0.187 NA
ATOM     29  C   UNL     1       6.936  -6.459  -2.401  0.00  0.00    +0.145 C 
BRANCH  29  30
ATOM     30  C   UNL     1       6.817  -7.581  -3.197  0.00  0.00    +0.034 A 
ATOM     31  C   UNL     1       7.876  -8.489  -3.701  0.00  0.00    +0.019 A 
ATOM     32  C   UNL     1       7.428  -9.494  -4.455  0.00  0.00    +0.041 A 
ATOM     33  C   UNL     1       6.052  -9.610  -4.702  0.00  0.00    +0.164 A 
ATOM     34  S   UNL     1       5.348  -8.324  -3.883  0.00  0.00    -0.064 S 
BRANCH  33  35
ATOM     35  N   UNL     1       5.360 -10.658  -5.515  0.00  0.00    +0.063 N 
ATOM     36  O   UNL     1       6.061 -11.611  -6.094  0.00  0.00    -0.126 OA
ATOM     37  O   UNL     1       4.051 -10.627  -5.652  0.00  0.00    -0.126 OA
ENDBRANCH  33  35
ENDBRANCH  29  30
ENDBRANCH  26  28
ENDBRANCH   1  24
TORSDOF 7
