REMARK  Name = ZINC15805430
REMARK  10 active torsions:
REMARK  status: ('A' for Active; 'I' for Inactive)
REMARK    1  A    between atoms: C_1  and  C_2
REMARK    2  A    between atoms: C_2  and  C_3
REMARK    3  A    between atoms: C_3  and  C_4
REMARK    4  A    between atoms: C_6  and  O_29
REMARK    5  A    between atoms: C_8  and  S_10
REMARK    6  A    between atoms: S_10  and  C_11
REMARK    7  A    between atoms: C_11  and  C_13
REMARK    8  A    between atoms: C_11  and  C_14
REMARK    9  A    between atoms: C_26  and  C_27
REMARK   10  A    between atoms: C_26  and  C_28
REMARK                            x       y       z     vdW  Elec       q    Type
REMARK                         _______ _______ _______ _____ _____    ______ ____
ROOT
ATOM      1  C   UNL     1       0.619   0.038   2.477  0.00  0.00    +0.234 C 
ATOM      2  O   UNL     1       0.613  -0.421   1.354  0.00  0.00    -0.274 OA
ATOM      3  N   UNL     1       0.060   1.241   2.716  0.00  0.00    -0.255 N 
ATOM      4  C   UNL     1       0.061   1.797   4.004  0.00  0.00    +0.059 A 
ATOM      5  C   UNL     1       0.051   0.993   5.130  0.00  0.00    +0.025 A 
ATOM      6  C   UNL     1       0.048   1.571   6.386  0.00  0.00    +0.002 A 
ATOM      7  C   UNL     1       0.054   2.948   6.519  0.00  0.00    +0.002 A 
ATOM      8  C   UNL     1       0.065   3.757   5.398  0.00  0.00    +0.025 A 
ATOM      9  C   UNL     1       0.070   3.187   4.135  0.00  0.00    +0.055 A 
ATOM     10  N   UNL     1       0.088   3.988   2.988  0.00  0.00    -0.282 N 
ATOM     11  C   UNL     1      -0.186   3.464   1.778  0.00  0.00    +0.241 C 
ATOM     12  O   UNL     1      -0.122   4.167   0.792  0.00  0.00    -0.273 OA
ATOM     13  C   UNL     1      -0.570   2.013   1.634  0.00  0.00    +0.113 C 
ATOM     14  C   UNL     1      -0.086   1.488   0.281  0.00  0.00    +0.042 C 
ATOM     15  C   UNL     1      -2.091   1.873   1.724  0.00  0.00    +0.042 C 
ATOM     16  H   UNL     1       0.299   4.931   3.065  0.00  0.00    +0.155 HD
ENDROOT
BRANCH   1  17
ATOM     17  C   UNL     1       1.251  -0.736   3.604  0.00  0.00    +0.137 C 
ATOM     18  C   UNL     1       0.276  -1.807   4.098  0.00  0.00    +0.029 C 
BRANCH  17  19
ATOM     19  S   UNL     1       2.769  -1.527   3.016  0.00  0.00    -0.073 S 
BRANCH  19  24
ATOM     20  C   UNL     1       4.972  -3.429   5.641  0.00  0.00    +0.049 A 
ATOM     21  C   UNL     1       4.272  -3.262   6.821  0.00  0.00    +0.090 A 
ATOM     22  C   UNL     1       3.083  -2.535   6.792  0.00  0.00    +0.216 A 
ATOM     23  N   UNL     1       2.663  -2.031   5.638  0.00  0.00    -0.187 NA
ATOM     24  C   UNL     1       3.362  -2.213   4.527  0.00  0.00    +0.192 A 
ATOM     25  N   UNL     1       4.494  -2.904   4.524  0.00  0.00    -0.227 NA
BRANCH  22  26
ATOM     26  O   UNL     1       2.365  -2.346   7.926  0.00  0.00    -0.492 OA
ATOM     27  H   UNL     1       1.707  -3.034   8.094  0.00  0.00    +0.294 HD
ENDBRANCH  22  26
BRANCH  20  28
ATOM     28  C   UNL     1       6.262  -4.208   5.625  0.00  0.00    +0.055 C 
BRANCH  28  30
ATOM     29  C   UNL     1       7.478  -6.121   4.573  0.00  0.00    +0.004 C 
ATOM     30  C   UNL     1       6.168  -5.331   4.590  0.00  0.00    +0.003 C 
ENDBRANCH  28  30
ENDBRANCH  20  28
ENDBRANCH  19  24
ENDBRANCH  17  19
ENDBRANCH   1  17
TORSDOF 6
