REMARK  Name = ZINC28296586
REMARK  10 active torsions:
REMARK  status: ('A' for Active; 'I' for Inactive)
REMARK    1  A    between atoms: C_1  and  C_2
REMARK    2  A    between atoms: C_2  and  C_4
REMARK    3  A    between atoms: C_2  and  N_10
REMARK    4  A    between atoms: N_10  and  C_11
REMARK    5  A    between atoms: C_11  and  C_12
REMARK    6  A    between atoms: C_12  and  C_14
REMARK    7  A    between atoms: C_12  and  O_40
REMARK    8  A    between atoms: C_14  and  N_15
REMARK    9  A    between atoms: C_26  and  C_34
REMARK   10  A    between atoms: C_27  and  C_28
REMARK                            x       y       z     vdW  Elec       q    Type
REMARK                         _______ _______ _______ _____ _____    ______ ____
ROOT
ATOM      1  N   UNL     1       1.583   1.658  -2.600  0.00  0.00    -0.336 N 
ATOM      2  C   UNL     1       0.493   1.160  -3.270  0.00  0.00    +0.058 A 
ATOM      3  C   UNL     1      -0.151  -0.098  -3.257  0.00  0.00    +0.006 A 
ATOM      4  C   UNL     1       0.313  -1.141  -2.442  0.00  0.00    +0.010 A 
ATOM      5  C   UNL     1      -0.329  -2.342  -2.451  0.00  0.00    +0.001 A 
ATOM      6  C   UNL     1      -1.441  -2.551  -3.262  0.00  0.00    +0.001 A 
ATOM      7  C   UNL     1      -1.918  -1.560  -4.067  0.00  0.00    +0.008 A 
ATOM      8  C   UNL     1      -1.281  -0.309  -4.082  0.00  0.00    -0.016 A 
ATOM      9  C   UNL     1      -1.754   0.734  -4.906  0.00  0.00    +0.009 A 
ATOM     10  C   UNL     1      -1.136   1.939  -4.906  0.00  0.00    +0.011 A 
ATOM     11  C   UNL     1      -0.007   2.170  -4.098  0.00  0.00    +0.009 A 
ATOM     12  C   UNL     1       0.864   3.336  -3.897  0.00  0.00    +0.015 A 
ATOM     13  C   UNL     1       1.815   2.958  -2.971  0.00  0.00    +0.058 A 
ENDROOT
BRANCH  13  14
ATOM     14  C   UNL     1       2.904   3.815  -2.461  0.00  0.00    -0.001 A 
ATOM     15  C   UNL     1       3.080   3.982  -1.086  0.00  0.00    +0.010 A 
ATOM     16  C   UNL     1       4.103   4.780  -0.617  0.00  0.00    +0.001 A 
ATOM     17  C   UNL     1       4.947   5.422  -1.506  0.00  0.00    +0.000 A 
ATOM     18  C   UNL     1       4.775   5.265  -2.869  0.00  0.00    +0.001 A 
ATOM     19  C   UNL     1       3.760   4.466  -3.353  0.00  0.00    +0.010 A 
ENDBRANCH  13  14
BRANCH  12  20
ATOM     20  C   UNL     1       0.744   4.656  -4.558  0.00  0.00    -0.015 A 
ATOM     21  C   UNL     1       0.440   5.791  -3.806  0.00  0.00    +0.008 A 
ATOM     22  C   UNL     1       0.335   7.018  -4.426  0.00  0.00    +0.001 A 
ATOM     23  C   UNL     1       0.521   7.123  -5.793  0.00  0.00    +0.000 A 
ATOM     24  C   UNL     1       0.817   6.001  -6.546  0.00  0.00    +0.001 A 
ATOM     25  C   UNL     1       0.930   4.768  -5.936  0.00  0.00    +0.008 A 
ENDBRANCH  12  20
BRANCH   1  26
ATOM     26  C   UNL     1       2.387   0.907  -1.633  0.00  0.00    +0.151 C 
BRANCH  26  27
ATOM     27  C   UNL     1       3.430   0.071  -2.377  0.00  0.00    +0.117 C 
BRANCH  27  28
ATOM     28  O   UNL     1       4.332   0.938  -3.067  0.00  0.00    -0.392 OA
ATOM     29  H   UNL     1       3.951   1.630  -3.833  0.00  0.00    +0.210 HD
ENDBRANCH  27  28
BRANCH  27  30
ATOM     30  C   UNL     1       4.210  -0.782  -1.374  0.00  0.00    -0.048 C 
BRANCH  30  31
ATOM     31  N   UNL     1       5.212  -1.585  -2.088  0.00  0.00    +0.385 N 
ATOM     32  H   UNL     1       5.894  -0.905  -2.621  0.00  0.00    -0.085 HD
ATOM     33  H   UNL     1       4.695  -2.229  -2.814  0.00  0.00    -0.085 HD
BRANCH  31  35
ATOM     34  C   UNL     1       5.224  -3.720  -0.889  0.00  0.00    -0.009 C 
ATOM     35  C   UNL     1       5.982  -2.418  -1.155  0.00  0.00    -0.044 C 
BRANCH  35  36
ATOM     36  C   UNL     1       7.327  -2.733  -1.756  0.00  0.00    -0.062 A 
ATOM     37  C   UNL     1       7.430  -3.034  -3.102  0.00  0.00    +0.002 A 
ATOM     38  C   UNL     1       8.664  -3.319  -3.654  0.00  0.00    +0.000 A 
ATOM     39  C   UNL     1       9.795  -3.313  -2.859  0.00  0.00    +0.000 A 
ATOM     40  C   UNL     1       9.692  -3.018  -1.512  0.00  0.00    +0.000 A 
ATOM     41  C   UNL     1       8.458  -2.728  -0.961  0.00  0.00    +0.002 A 
ENDBRANCH  35  36
ENDBRANCH  31  35
ENDBRANCH  30  31
ENDBRANCH  27  30
ENDBRANCH  26  27
ENDBRANCH   1  26
TORSDOF 9
