REMARK  Name = ZINC12245110
REMARK  11 active torsions:
REMARK  status: ('A' for Active; 'I' for Inactive)
REMARK    1  A    between atoms: C_1  and  C_2
REMARK    2  A    between atoms: C_3  and  C_25
REMARK    3  A    between atoms: C_5  and  C_7
REMARK    4  A    between atoms: C_12  and  N_13
REMARK    5  A    between atoms: C_14  and  C_16
REMARK    6  A    between atoms: C_16  and  C_17
REMARK    7  A    between atoms: C_17  and  O_18
REMARK    8  A    between atoms: O_18  and  C_19
REMARK    9  A    between atoms: C_25  and  N_26
REMARK   10  A    between atoms: C_27  and  C_29
REMARK   11  A    between atoms: N_31  and  C_36
REMARK                            x       y       z     vdW  Elec       q    Type
REMARK                         _______ _______ _______ _____ _____    ______ ____
ROOT
ATOM      1  C   UNL     1      -1.197  -0.899   0.007  0.00  0.00    +0.088 C 
ATOM      2  C   UNL     1       0.007   0.007  -0.005  0.00  0.00    +0.127 A 
ATOM      3  C   UNL     1      -0.006   1.352  -0.005  0.00  0.00    +0.100 A 
ATOM      4  N   UNL     1       1.267   1.776  -0.018  0.00  0.00    -0.212 NA
ATOM      5  C   UNL     1       2.058   0.729  -0.025  0.00  0.00    +0.229 A 
ATOM      6  O   UNL     1       1.299  -0.381  -0.017  0.00  0.00    -0.440 OA
ENDROOT
BRANCH   5   7
ATOM      7  C   UNL     1       3.534   0.763  -0.041  0.00  0.00    +0.058 A 
ATOM      8  C   UNL     1       4.207   1.981  -0.158  0.00  0.00    +0.015 A 
ATOM      9  C   UNL     1       5.585   2.007  -0.168  0.00  0.00    +0.001 A 
ATOM     10  C   UNL     1       6.307   0.830  -0.071  0.00  0.00    +0.002 A 
ATOM     11  C   UNL     1       5.655  -0.383   0.041  0.00  0.00    +0.024 A 
ATOM     12  C   UNL     1       4.268  -0.427   0.057  0.00  0.00    +0.046 A 
BRANCH  12  13
ATOM     13  N   UNL     1       3.607  -1.651   0.169  0.00  0.00    -0.285 N 
ATOM     14  C   UNL     1       4.139  -2.638   0.917  0.00  0.00    +0.220 C 
ATOM     15  O   UNL     1       5.139  -2.432   1.571  0.00  0.00    -0.275 OA
ATOM     16  H   UNL     1       2.765  -1.792  -0.291  0.00  0.00    +0.155 HD
BRANCH  14  17
ATOM     17  C   UNL     1       3.490  -3.998   0.942  0.00  0.00    +0.137 C 
BRANCH  17  18
ATOM     18  C   UNL     1       4.286  -4.926   1.861  0.00  0.00    +0.238 C 
BRANCH  18  19
ATOM     19  O   UNL     1       3.671  -6.216   1.885  0.00  0.00    -0.491 OA
BRANCH  19  20
ATOM     20  C   UNL     1       4.258  -7.166   2.659  0.00  0.00    +0.121 A 
ATOM     21  C   UNL     1       5.405  -6.864   3.378  0.00  0.00    +0.045 A 
ATOM     22  C   UNL     1       5.997  -7.830   4.170  0.00  0.00    +0.004 A 
ATOM     23  C   UNL     1       5.452  -9.099   4.237  0.00  0.00    +0.000 A 
ATOM     24  C   UNL     1       4.312  -9.403   3.517  0.00  0.00    +0.004 A 
ATOM     25  C   UNL     1       3.713  -8.440   2.729  0.00  0.00    +0.045 A 
ENDBRANCH  19  20
ENDBRANCH  18  19
ENDBRANCH  17  18
ENDBRANCH  14  17
ENDBRANCH  12  13
ENDBRANCH   5   7
BRANCH   3  26
ATOM     26  C   UNL     1      -1.234   2.227   0.001  0.00  0.00    +0.163 C 
BRANCH  26  27
ATOM     27  N   UNL     1      -1.624   2.510   1.385  0.00  0.00    -0.305 N 
ATOM     28  C   UNL     1      -2.701   3.280   1.636  0.00  0.00    +0.260 C 
ATOM     29  O   UNL     1      -3.350   3.738   0.715  0.00  0.00    -0.269 OA
ATOM     30  H   UNL     1      -1.107   2.145   2.119  0.00  0.00    +0.149 HD
BRANCH  28  31
ATOM     31  C   UNL     1      -3.092   3.564   3.022  0.00  0.00    +0.121 C 
ATOM     32  N   UNL     1      -2.395   3.070   3.997  0.00  0.00    -0.177 NA
ATOM     33  N   UNL     1      -2.738   3.318   5.330  0.00  0.00    -0.196 N 
ATOM     34  C   UNL     1      -3.980   3.734   5.648  0.00  0.00    +0.235 C 
ATOM     35  O   UNL     1      -4.274   3.943   6.806  0.00  0.00    -0.274 OA
ATOM     36  C   UNL     1      -5.003   3.939   4.559  0.00  0.00    +0.104 C 
ATOM     37  C   UNL     1      -4.294   4.429   3.291  0.00  0.00    +0.071 C 
ATOM     38  C   UNL     1      -1.742   3.125   6.387  0.00  0.00    +0.161 C 
ENDBRANCH  28  31
ENDBRANCH  26  27
ENDBRANCH   3  26
TORSDOF 9
