REMARK  Name = ZINC61718084
REMARK  2 active torsions:
REMARK  status: ('A' for Active; 'I' for Inactive)
REMARK    1  A    between atoms: C_1  and  N_2
REMARK    2  A    between atoms: C_3  and  C_5
REMARK                            x       y       z     vdW  Elec       q    Type
REMARK                         _______ _______ _______ _____ _____    ______ ____
ROOT
ATOM      1  C   UNL     1      -1.139  -2.160  -0.110  0.00  0.00    +0.101 A 
ATOM      2  C   UNL     1      -2.324  -2.878  -0.214  0.00  0.00    +0.023 A 
ATOM      3  C   UNL     1      -2.281  -4.275  -0.331  0.00  0.00    -0.027 A 
ATOM      4  C   UNL     1      -1.089  -4.914  -0.345  0.00  0.00    +0.022 A 
ATOM      5  N   UNL     1       0.074  -4.210  -0.234  0.00  0.00    -0.325 N 
ATOM      6  H   UNL     1       0.917  -4.691  -0.235  0.00  0.00    +0.169 HD
ATOM      7  C   UNL     1       0.088  -2.873  -0.127  0.00  0.00    +0.261 A 
ATOM      8  O   UNL     1       1.147  -2.275  -0.041  0.00  0.00    -0.267 OA
ATOM      9  C   UNL     1      -0.971  -6.410  -0.493  0.00  0.00    +0.053 C 
ATOM     10  C   UNL     1      -2.298  -7.092  -0.169  0.00  0.00    +0.006 C 
ATOM     11  C   UNL     1      -3.401  -6.407  -0.985  0.00  0.00    +0.005 C 
ATOM     12  C   UNL     1      -3.599  -4.998  -0.431  0.00  0.00    +0.037 C 
ENDROOT
BRANCH   1  15
ATOM     13  C   UNL     1      -0.020   1.462  -0.003  0.00  0.00    +0.128 C 
ATOM     14  N   UNL     1       0.001  -0.003  -0.008  0.00  0.00    -0.314 N 
ATOM     15  C   UNL     1      -1.156  -0.694   0.009  0.00  0.00    +0.249 C 
ATOM     16  O   UNL     1      -2.214  -0.105   0.123  0.00  0.00    -0.270 OA
ATOM     17  H   UNL     1       0.848  -0.475  -0.024  0.00  0.00    +0.149 HD
ENDBRANCH   1  15
TORSDOF 1
