REMARK  Name = ZINC35924727
REMARK  10 active torsions:
REMARK  status: ('A' for Active; 'I' for Inactive)
REMARK    1  A    between atoms: C_1  and  C_2
REMARK    2  A    between atoms: C_5  and  N_9
REMARK    3  A    between atoms: C_7  and  C_8
REMARK    4  A    between atoms: C_10  and  C_12
REMARK    5  A    between atoms: C_12  and  C_13
REMARK    6  A    between atoms: C_20  and  C_24
REMARK    7  A    between atoms: C_21  and  C_23
REMARK    8  A    between atoms: C_26  and  C_37
REMARK    9  A    between atoms: N_27  and  C_29
REMARK   10  A    between atoms: C_34  and  C_35
REMARK                            x       y       z     vdW  Elec       q    Type
REMARK                         _______ _______ _______ _____ _____    ______ ____
ROOT
ATOM      1  C   UNL     1      -0.246  -6.849  -2.638  0.00  0.00    +0.044 A 
ATOM      2  C   UNL     1       0.855  -7.237  -3.281  0.00  0.00    +0.071 A 
ATOM      3  S   UNL     1       0.200  -7.712  -4.873  0.00  0.00    -0.057 S 
ATOM      4  C   UNL     1      -1.510  -7.348  -4.539  0.00  0.00    +0.180 A 
ATOM      5  N   UNL     1      -1.477  -6.896  -3.247  0.00  0.00    -0.258 N 
ATOM      6  C   UNL     1      -2.674  -6.533  -2.695  0.00  0.00    +0.268 A 
ATOM      7  O   UNL     1      -2.717  -6.117  -1.548  0.00  0.00    -0.266 OA
ATOM      8  C   UNL     1      -3.853  -6.639  -3.452  0.00  0.00    +0.088 A 
ATOM      9  C   UNL     1      -3.788  -7.115  -4.757  0.00  0.00    +0.055 A 
ATOM     10  N   UNL     1      -2.603  -7.447  -5.256  0.00  0.00    -0.227 NA
ATOM     11  C   UNL     1      -5.036  -7.240  -5.593  0.00  0.00    +0.066 C 
ENDROOT
BRANCH   8  12
ATOM     12  C   UNL     1      -5.157  -6.249  -2.863  0.00  0.00    +0.100 A 
ATOM     13  C   UNL     1      -5.361  -5.750  -1.561  0.00  0.00    +0.053 A 
ATOM     14  C   UNL     1      -6.682  -5.515  -1.409  0.00  0.00    +0.042 A 
ATOM     15  N   UNL     1      -7.302  -5.850  -2.570  0.00  0.00    -0.236 N 
ATOM     16  N   UNL     1      -6.325  -6.302  -3.468  0.00  0.00    -0.166 NA
ATOM     17  C   UNL     1      -7.350  -4.976  -0.170  0.00  0.00    +0.066 C 
BRANCH  15  18
ATOM     18  C   UNL     1      -8.675  -5.756  -2.827  0.00  0.00    +0.071 A 
ATOM     19  C   UNL     1      -9.589  -6.290  -1.929  0.00  0.00    +0.066 A 
ATOM     20  C   UNL     1     -10.945  -6.196  -2.186  0.00  0.00    +0.125 A 
ATOM     21  C   UNL     1     -11.390  -5.568  -3.338  0.00  0.00    +0.039 A 
ATOM     22  C   UNL     1     -10.481  -5.036  -4.233  0.00  0.00    +0.008 A 
ATOM     23  C   UNL     1      -9.126  -5.122  -3.978  0.00  0.00    -0.025 A 
ATOM     24  C   UNL     1      -8.136  -4.535  -4.951  0.00  0.00    +0.046 C 
ATOM     25  F   UNL     1     -11.836  -6.715  -1.313  0.00  0.00    -0.205 F 
ENDBRANCH  15  18
ENDBRANCH   8  12
BRANCH   1  26
ATOM     26  C   UNL     1      -0.139  -6.357  -1.218  0.00  0.00    +0.150 C 
BRANCH  26  28
ATOM     27  N   UNL     1       0.061  -4.188  -0.046  0.00  0.00    -0.285 N 
ATOM     28  C   UNL     1      -0.043  -4.853  -1.213  0.00  0.00    +0.223 C 
ATOM     29  O   UNL     1      -0.060  -4.241  -2.260  0.00  0.00    -0.275 OA
ATOM     30  H   UNL     1       0.141  -4.679   0.787  0.00  0.00    +0.155 HD
BRANCH  27  35
ATOM     31  C   UNL     1       0.028   1.485  -0.002  0.00  0.00    +0.044 C 
ATOM     32  C   UNL     1       0.037  -0.022  -0.013  0.00  0.00    -0.047 A 
ATOM     33  C   UNL     1       0.637  -0.701  -1.058  0.00  0.00    +0.005 A 
ATOM     34  C   UNL     1       0.647  -2.081  -1.072  0.00  0.00    +0.023 A 
ATOM     35  C   UNL     1       0.053  -2.789  -0.035  0.00  0.00    +0.034 A 
ATOM     36  C   UNL     1      -0.548  -2.105   1.014  0.00  0.00    +0.027 A 
ATOM     37  C   UNL     1      -0.550  -0.723   1.024  0.00  0.00    -0.046 A 
ATOM     38  C   UNL     1      -1.197   0.020   2.164  0.00  0.00    +0.044 C 
ENDBRANCH  27  35
ENDBRANCH  26  28
ENDBRANCH   1  26
TORSDOF 5
