REMARK  Name = ZINC34900499
REMARK  6 active torsions:
REMARK  status: ('A' for Active; 'I' for Inactive)
REMARK    1  A    between atoms: C_1  and  C_2
REMARK    2  A    between atoms: C_7  and  C_8
REMARK    3  A    between atoms: N_10  and  C_11
REMARK    4  A    between atoms: C_17  and  N_19
REMARK    5  A    between atoms: C_20  and  C_22
REMARK    6  A    between atoms: C_29  and  C_31
REMARK                            x       y       z     vdW  Elec       q    Type
REMARK                         _______ _______ _______ _____ _____    ______ ____
ROOT
ATOM      1  C   UNL     1       0.101  -2.200   2.743  0.00  0.00    +0.093 C 
ATOM      2  C   UNL     1       1.599  -2.009   2.500  0.00  0.00    +0.024 C 
ATOM      3  C   UNL     1       2.309  -3.360   2.606  0.00  0.00    +0.002 C 
ATOM      4  C   UNL     1       2.090  -3.943   4.003  0.00  0.00    +0.002 C 
ATOM      5  C   UNL     1       0.591  -4.134   4.247  0.00  0.00    +0.024 C 
ATOM      6  C   UNL     1      -0.119  -2.783   4.141  0.00  0.00    +0.093 C 
ENDROOT
BRANCH   1   9
ATOM      7  C   UNL     1      -0.831  -2.649   0.537  0.00  0.00    +0.245 C 
ATOM      8  O   UNL     1      -0.728  -1.464   0.285  0.00  0.00    -0.270 OA
ATOM      9  N   UNL     1      -0.444  -3.118   1.740  0.00  0.00    -0.307 N 
ATOM     10  H   UNL     1      -0.527  -4.063   1.941  0.00  0.00    +0.149 HD
BRANCH   7  17
ATOM     11  C   UNL     1      -1.935  -1.592  -1.920  0.00  0.00    +0.044 C 
ATOM     12  C   UNL     1      -1.916  -3.077  -1.664  0.00  0.00    -0.038 A 
ATOM     13  C   UNL     1      -2.422  -3.947  -2.608  0.00  0.00    +0.004 A 
ATOM     14  C   UNL     1      -2.406  -5.311  -2.374  0.00  0.00    +0.000 A 
ATOM     15  C   UNL     1      -1.882  -5.811  -1.195  0.00  0.00    +0.001 A 
ATOM     16  C   UNL     1      -1.372  -4.952  -0.244  0.00  0.00    +0.013 A 
ATOM     17  C   UNL     1      -1.381  -3.575  -0.475  0.00  0.00    +0.040 A 
ENDBRANCH   7  17
ENDBRANCH   1   9
BRANCH   6  18
ATOM     18  N   UNL     1      -1.553  -2.966   4.374  0.00  0.00    -0.310 N 
ATOM     19  C   UNL     1      -2.036  -2.974   5.633  0.00  0.00    +0.218 C 
ATOM     20  O   UNL     1      -1.282  -2.831   6.572  0.00  0.00    -0.275 OA
ATOM     21  H   UNL     1      -2.156  -3.080   3.623  0.00  0.00    +0.149 HD
BRANCH  19  22
ATOM     22  C   UNL     1      -3.512  -3.162   5.872  0.00  0.00    +0.092 C 
ATOM     23  C   UNL     1      -4.288  -2.034   5.189  0.00  0.00    +0.016 C 
ATOM     24  C   UNL     1      -5.789  -2.242   5.404  0.00  0.00    +0.020 C 
ATOM     25  C   UNL     1      -6.096  -2.200   6.904  0.00  0.00    +0.108 C 
ATOM     26  N   UNL     1      -5.246  -3.184   7.589  0.00  0.00    -0.301 N 
ATOM     27  C   UNL     1      -3.793  -3.132   7.378  0.00  0.00    +0.120 C 
ATOM     28  C   UNL     1      -5.789  -4.118   8.395  0.00  0.00    +0.219 C 
ATOM     29  O   UNL     1      -6.994  -4.208   8.493  0.00  0.00    -0.275 OA
BRANCH  28  30
ATOM     30  C   UNL     1      -4.898  -5.050   9.175  0.00  0.00    +0.075 C 
ATOM     31  C   UNL     1      -4.397  -4.364  10.470  0.00  0.00    +0.013 C 
ATOM     32  C   UNL     1      -4.057  -5.567  11.384  0.00  0.00    +0.001 C 
ATOM     33  C   UNL     1      -5.165  -6.597  11.082  0.00  0.00    +0.001 C 
ATOM     34  C   UNL     1      -5.700  -6.269   9.678  0.00  0.00    +0.013 C 
ENDBRANCH  28  30
ENDBRANCH  19  22
ENDBRANCH   6  18
TORSDOF 5
