REMARK  Name = ZINC39673945
REMARK  9 active torsions:
REMARK  status: ('A' for Active; 'I' for Inactive)
REMARK    1  A    between atoms: C_1  and  C_2
REMARK    2  A    between atoms: C_4  and  C_12
REMARK    3  A    between atoms: C_12  and  C_13
REMARK    4  A    between atoms: C_13  and  N_14
REMARK    5  A    between atoms: C_15  and  C_17
REMARK    6  A    between atoms: C_28  and  C_30
REMARK    7  A    between atoms: C_35  and  O_36
REMARK    8  A    between atoms: O_36  and  C_37
REMARK    9  A    between atoms: C_37  and  C_39
REMARK                            x       y       z     vdW  Elec       q    Type
REMARK                         _______ _______ _______ _____ _____    ______ ____
ROOT
ATOM      1  C   UNL     1      -5.023   3.936   3.561  0.00  0.00    +0.100 C 
ATOM      2  C   UNL     1      -4.774   2.670   4.411  0.00  0.00    +0.121 C 
ATOM      3  N   UNL     1      -4.150   3.172   5.657  0.00  0.00    -0.296 N 
ATOM      4  C   UNL     1      -4.881   4.427   5.955  0.00  0.00    +0.115 C 
ATOM      5  C   UNL     1      -5.096   5.087   4.579  0.00  0.00    -0.004 C 
ATOM      6  C   UNL     1      -6.465   5.756   4.522  0.00  0.00    -0.010 C 
ATOM      7  C   UNL     1      -6.494   6.934   5.500  0.00  0.00    -0.082 C 
ATOM      8  N   UNL     1      -5.443   7.894   5.144  0.00  0.00    +0.379 N 
ATOM      9  C   UNL     1      -4.123   7.269   5.292  0.00  0.00    -0.082 C 
ATOM     10  C   UNL     1      -3.994   6.105   4.304  0.00  0.00    -0.010 C 
ATOM     11  C   UNL     1      -3.146   2.614   6.362  0.00  0.00    +0.250 C 
ATOM     12  O   UNL     1      -2.804   3.100   7.422  0.00  0.00    -0.270 OA
ATOM     13  H   UNL     1      -5.569   8.189   4.188  0.00  0.00    -0.086 HD
ATOM     14  H   UNL     1      -5.503   8.697   5.752  0.00  0.00    -0.086 HD
ENDROOT
BRANCH  11  15
ATOM     15  C   UNL     1      -2.461   1.413   5.845  0.00  0.00    +0.079 A 
ATOM     16  C   UNL     1      -3.177   0.447   5.135  0.00  0.00    +0.017 A 
ATOM     17  C   UNL     1      -2.532  -0.672   4.655  0.00  0.00    +0.001 A 
ATOM     18  C   UNL     1      -1.175  -0.844   4.873  0.00  0.00    +0.004 A 
ATOM     19  C   UNL     1      -0.455   0.104   5.574  0.00  0.00    +0.047 A 
ATOM     20  C   UNL     1      -1.087   1.238   6.059  0.00  0.00    +0.144 A 
BRANCH  20  21
ATOM     21  O   UNL     1      -0.380   2.173   6.743  0.00  0.00    -0.425 OA
BRANCH  21  22
ATOM     22  C   UNL     1       0.121   3.213   6.056  0.00  0.00    +0.309 C 
ATOM     23  O   UNL     1      -0.140   3.343   4.883  0.00  0.00    -0.251 OA
ATOM     24  C   UNL     1       1.007   4.217   6.747  0.00  0.00    +0.136 C 
ENDBRANCH  21  22
ENDBRANCH  20  21
ENDBRANCH  11  15
BRANCH   1  26
ATOM     25  N   UNL     1      -4.103   4.769   1.421  0.00  0.00    -0.315 N 
ATOM     26  C   UNL     1      -3.882   4.156   2.601  0.00  0.00    +0.218 C 
ATOM     27  O   UNL     1      -2.765   3.781   2.890  0.00  0.00    -0.275 OA
ATOM     28  H   UNL     1      -4.996   5.069   1.190  0.00  0.00    +0.149 HD
BRANCH  25  29
ATOM     29  C   UNL     1      -2.994   4.983   0.488  0.00  0.00    +0.109 C 
BRANCH  29  30
ATOM     30  C   UNL     1      -3.511   5.694  -0.764  0.00  0.00    +0.056 C 
BRANCH  30  34
ATOM     31  C   UNL     1      -2.596   3.739  -2.996  0.00  0.00    +0.063 C 
ATOM     32  C   UNL     1      -1.968   5.075  -2.692  0.00  0.00    +0.017 A 
ATOM     33  H   UNL     1      -0.433   5.185  -4.096  0.00  0.00    +0.166 HD
ATOM     34  C   UNL     1      -2.370   5.914  -1.724  0.00  0.00    -0.018 A 
ATOM     35  C   UNL     1      -1.490   7.084  -1.778  0.00  0.00    +0.003 A 
ATOM     36  C   UNL     1      -1.406   8.269  -1.046  0.00  0.00    +0.010 A 
ATOM     37  C   UNL     1      -0.443   9.189  -1.353  0.00  0.00    +0.001 A 
ATOM     38  C   UNL     1       0.452   8.954  -2.387  0.00  0.00    +0.002 A 
ATOM     39  C   UNL     1       0.387   7.791  -3.123  0.00  0.00    +0.026 A 
ATOM     40  C   UNL     1      -0.585   6.841  -2.828  0.00  0.00    +0.047 A 
ATOM     41  N   UNL     1      -0.899   5.609  -3.358  0.00  0.00    -0.358 N 
ENDBRANCH  30  34
ENDBRANCH  29  30
ENDBRANCH  25  29
ENDBRANCH   1  26
TORSDOF 7
