REMARK  Name = ZINC13636570
REMARK  5 active torsions:
REMARK  status: ('A' for Active; 'I' for Inactive)
REMARK    1  A    between atoms: C_4  and  N_7
REMARK    2  A    between atoms: N_7  and  S_8
REMARK    3  A    between atoms: S_8  and  C_11
REMARK    4  A    between atoms: C_24  and  C_27
REMARK    5  A    between atoms: C_30  and  O_33
REMARK                            x       y       z     vdW  Elec       q    Type
REMARK                         _______ _______ _______ _____ _____    ______ ____
ROOT
ATOM      1  C   UNL     1       4.642   1.390  -0.115  0.00  0.00    +0.109 A 
ATOM      2  C   UNL     1       5.747   1.739  -0.870  0.00  0.00    +0.030 A 
ATOM      3  C   UNL     1       5.682   1.678  -2.248  0.00  0.00    +0.025 A 
ATOM      4  C   UNL     1       4.509   1.267  -2.870  0.00  0.00    +0.031 A 
ATOM      5  C   UNL     1       3.400   0.920  -2.118  0.00  0.00    -0.018 A 
ATOM      6  C   UNL     1       3.477   0.984  -0.733  0.00  0.00    +0.034 A 
ATOM      7  C   UNL     1       2.102   0.474  -2.734  0.00  0.00    +0.049 C 
ATOM      8  C   UNL     1       1.024   1.451  -2.284  0.00  0.00    -0.023 C 
ATOM      9  C   UNL     1       0.819   2.356  -3.224  0.00  0.00    -0.030 C 
ATOM     10  C   UNL     1       1.741   2.118  -4.406  0.00  0.00    +0.033 C 
ATOM     11  C   UNL     1       2.100   0.619  -4.267  0.00  0.00    +0.029 C 
ATOM     12  C   UNL     1       3.448   0.341  -4.880  0.00  0.00    +0.105 C 
ATOM     13  N   UNL     1       4.465   1.203  -4.267  0.00  0.00    -0.336 N 
ATOM     14  H   UNL     1       5.085   1.712  -4.812  0.00  0.00    +0.147 HD
ENDROOT
BRANCH  12  15
ATOM     15  C   UNL     1       3.804  -1.104  -4.639  0.00  0.00    -0.027 A 
ATOM     16  C   UNL     1       4.319  -1.493  -3.416  0.00  0.00    +0.009 A 
ATOM     17  C   UNL     1       4.640  -2.817  -3.190  0.00  0.00    +0.046 A 
ATOM     18  C   UNL     1       4.457  -3.755  -4.195  0.00  0.00    +0.117 A 
ATOM     19  C   UNL     1       3.946  -3.362  -5.423  0.00  0.00    +0.046 A 
ATOM     20  C   UNL     1       3.620  -2.037  -5.642  0.00  0.00    +0.009 A 
BRANCH  18  21
ATOM     21  O   UNL     1       4.777  -5.058  -3.978  0.00  0.00    -0.507 OA
ATOM     22  H   UNL     1       5.689  -5.282  -4.207  0.00  0.00    +0.292 HD
ENDBRANCH  18  21
ENDBRANCH  12  15
BRANCH   1  23
ATOM     23  S   UNL     1       4.722   1.465   1.644  0.00  0.00    +0.072 S 
ATOM     24  O   UNL     1       5.749   2.394   1.964  0.00  0.00    -0.150 OA
ATOM     25  O   UNL     1       3.387   1.616   2.105  0.00  0.00    -0.150 OA
BRANCH  23  26
ATOM     26  N   UNL     1       5.241  -0.016   2.174  0.00  0.00    -0.216 N 
ATOM     27  H   UNL     1       6.101  -0.099   2.615  0.00  0.00    +0.174 HD
BRANCH  26  31
ATOM     28  C   UNL     1       2.857  -3.382   1.610  0.00  0.00    +0.000 A 
ATOM     29  C   UNL     1       3.974  -3.188   0.819  0.00  0.00    +0.002 A 
ATOM     30  C   UNL     1       4.767  -2.072   1.003  0.00  0.00    +0.024 A 
ATOM     31  C   UNL     1       4.441  -1.145   1.984  0.00  0.00    +0.048 A 
ATOM     32  C   UNL     1       3.321  -1.346   2.781  0.00  0.00    +0.024 A 
ATOM     33  C   UNL     1       2.529  -2.461   2.588  0.00  0.00    +0.002 A 
ENDBRANCH  26  31
ENDBRANCH  23  26
ENDBRANCH   1  23
TORSDOF 5
