REMARK  Name = ZINC20417571
REMARK  11 active torsions:
REMARK  status: ('A' for Active; 'I' for Inactive)
REMARK    1  A    between atoms: C_1  and  C_2
REMARK    2  A    between atoms: N_6  and  C_21
REMARK    3  A    between atoms: C_10  and  C_20
REMARK    4  A    between atoms: N_11  and  C_12
REMARK    5  A    between atoms: C_12  and  C_13
REMARK    6  A    between atoms: C_21  and  C_22
REMARK    7  A    between atoms: N_24  and  C_25
REMARK    8  A    between atoms: C_25  and  C_26
REMARK    9  A    between atoms: C_26  and  C_27
REMARK   10  A    between atoms: C_27  and  N_28
REMARK   11  A    between atoms: C_33  and  C_35
REMARK                            x       y       z     vdW  Elec       q    Type
REMARK                         _______ _______ _______ _____ _____    ______ ____
ROOT
ATOM      1  C   UNL     1       0.011  -7.336  -0.919  0.00  0.00    +0.064 C 
ATOM      2  C   UNL     1      -0.197  -6.256   0.112  0.00  0.00    +0.026 A 
ATOM      3  C   UNL     1      -0.460  -4.952  -0.149  0.00  0.00    +0.028 A 
ATOM      4  C   UNL     1      -0.635  -4.128  -1.347  0.00  0.00    +0.143 A 
ATOM      5  N   UNL     1      -0.892  -2.861  -1.227  0.00  0.00    -0.176 NA
ATOM      6  N   UNL     1      -1.005  -2.212  -0.000  0.00  0.00    -0.220 N 
ATOM      7  C   UNL     1      -0.867  -2.853   1.179  0.00  0.00    +0.277 A 
ATOM      8  O   UNL     1      -0.979  -2.249   2.231  0.00  0.00    -0.265 OA
ATOM      9  C   UNL     1      -0.581  -4.289   1.169  0.00  0.00    +0.070 A 
ATOM     10  C   UNL     1      -0.379  -5.258   2.098  0.00  0.00    +0.029 A 
ATOM     11  N   UNL     1      -0.151  -6.426   1.462  0.00  0.00    -0.342 N 
ATOM     12  C   UNL     1      -0.405  -5.061   3.592  0.00  0.00    +0.064 C 
ENDROOT
BRANCH  11  13
ATOM     13  C   UNL     1       0.110  -7.702   2.132  0.00  0.00    +0.159 C 
BRANCH  13  14
ATOM     14  C   UNL     1      -1.194  -8.418   2.373  0.00  0.00    +0.007 A 
ATOM     15  C   UNL     1      -1.592  -9.434   1.525  0.00  0.00    +0.008 A 
ATOM     16  C   UNL     1      -2.788 -10.091   1.747  0.00  0.00    +0.000 A 
ATOM     17  C   UNL     1      -3.587  -9.733   2.817  0.00  0.00    +0.003 A 
ATOM     18  C   UNL     1      -3.190  -8.718   3.667  0.00  0.00    +0.039 A 
ATOM     19  C   UNL     1      -1.991  -8.062   3.448  0.00  0.00    +0.128 A 
ATOM     20  F   UNL     1      -1.600  -7.073   4.281  0.00  0.00    -0.205 F 
ENDBRANCH  13  14
ENDBRANCH  11  13
BRANCH   6  21
ATOM     21  C   UNL     1      -1.293  -0.775   0.010  0.00  0.00    +0.243 C 
BRANCH  21  22
ATOM     22  C   UNL     1       0.002  -0.004   0.002  0.00  0.00    +0.235 C 
ATOM     23  O   UNL     1       1.060  -0.596  -0.011  0.00  0.00    -0.274 OA
ATOM     24  N   UNL     1      -0.016   1.344   0.009  0.00  0.00    -0.314 N 
ATOM     25  H   UNL     1      -0.976   1.881   0.021  0.00  0.00    +0.149 HD
BRANCH  24  26
ATOM     26  C   UNL     1       1.242   2.093   0.001  0.00  0.00    +0.102 C 
BRANCH  26  27
ATOM     27  C   UNL     1       0.943   3.594   0.012  0.00  0.00    +0.000 C 
BRANCH  27  28
ATOM     28  C   UNL     1       2.257   4.377   0.004  0.00  0.00    -0.077 C 
BRANCH  28  29
ATOM     29  N   UNL     1       1.969   5.817   0.015  0.00  0.00    +0.381 N 
ATOM     30  C   UNL     1       1.332   6.217   1.276  0.00  0.00    -0.078 C 
ATOM     31  C   UNL     1       1.180   7.739   1.311  0.00  0.00    -0.019 C 
ATOM     32  C   UNL     1       0.328   8.190   0.122  0.00  0.00    -0.003 C 
ATOM     33  C   UNL     1       0.988   7.719  -1.177  0.00  0.00    -0.016 C 
ATOM     34  C   UNL     1       1.146   6.197  -1.140  0.00  0.00    -0.072 C 
ATOM     35  C   UNL     1       1.823   5.724  -2.428  0.00  0.00    -0.013 C 
ATOM     36  H   UNL     1       2.925   6.355  -0.064  0.00  0.00    -0.081 HD
ENDBRANCH  28  29
ENDBRANCH  27  28
ENDBRANCH  26  27
ENDBRANCH  24  26
ENDBRANCH  21  22
ENDBRANCH   6  21
TORSDOF 8
