REMARK  Name = ZINC04167648
REMARK  6 active torsions:
REMARK  status: ('A' for Active; 'I' for Inactive)
REMARK    1  A    between atoms: C_1  and  C_2
REMARK    2  A    between atoms: C_5  and  C_8
REMARK    3  A    between atoms: C_15  and  N_28
REMARK    4  A    between atoms: C_16  and  C_26
REMARK    5  A    between atoms: C_17  and  C_19
REMARK    6  A    between atoms: C_24  and  C_25
REMARK                            x       y       z     vdW  Elec       q    Type
REMARK                         _______ _______ _______ _____ _____    ______ ____
ROOT
ATOM      1  C   UNL     1       0.148  -4.925   0.452  0.00  0.00    +0.100 A 
ATOM      2  C   UNL     1       1.059  -5.506   1.339  0.00  0.00    +0.054 A 
ATOM      3  C   UNL     1       0.974  -6.862   1.203  0.00  0.00    +0.223 A 
ATOM      4  N   UNL     1       0.043  -7.123   0.263  0.00  0.00    -0.246 N 
ATOM      5  H   UNL     1      -0.229  -8.003  -0.042  0.00  0.00    +0.192 HD
ATOM      6  N   UNL     1      -0.468  -5.897  -0.193  0.00  0.00    -0.171 NA
ATOM      7  O   UNL     1       1.732  -7.719   1.931  0.00  0.00    -0.423 OA
ATOM      8  C   UNL     1       2.388  -7.221   2.999  0.00  0.00    +0.200 C 
ATOM      9  C   UNL     1       2.548  -5.900   3.234  0.00  0.00    +0.098 C 
ATOM     10  C   UNL     1       2.004  -4.842   2.306  0.00  0.00    +0.102 C 
ENDROOT
BRANCH   1  15
ATOM     11  C   UNL     1      -0.775   0.718  -0.244  0.00  0.00    +0.044 C 
ATOM     12  C   UNL     1      -0.534  -0.759  -0.061  0.00  0.00    -0.050 A 
ATOM     13  C   UNL     1      -0.422  -1.581  -1.169  0.00  0.00    +0.004 A 
ATOM     14  C   UNL     1      -0.201  -2.933  -1.008  0.00  0.00    +0.010 A 
ATOM     15  C   UNL     1      -0.090  -3.471   0.273  0.00  0.00    +0.003 A 
ATOM     16  C   UNL     1      -0.203  -2.639   1.385  0.00  0.00    +0.010 A 
ATOM     17  C   UNL     1      -0.419  -1.286   1.212  0.00  0.00    +0.004 A 
ENDBRANCH   1  15
BRANCH  10  18
ATOM     18  C   UNL     1       3.137  -4.199   1.549  0.00  0.00    -0.032 A 
ATOM     19  C   UNL     1       3.868  -4.938   0.638  0.00  0.00    +0.005 A 
ATOM     20  C   UNL     1       4.907  -4.348  -0.057  0.00  0.00    +0.000 A 
ATOM     21  C   UNL     1       5.215  -3.018   0.159  0.00  0.00    +0.000 A 
ATOM     22  C   UNL     1       4.484  -2.278   1.070  0.00  0.00    +0.003 A 
ATOM     23  C   UNL     1       3.442  -2.867   1.761  0.00  0.00    -0.046 A 
ATOM     24  C   UNL     1       2.642  -2.059   2.750  0.00  0.00    +0.044 C 
ENDBRANCH  10  18
BRANCH   8  25
ATOM     25  N   UNL     1       2.923  -8.108   3.901  0.00  0.00    -0.328 N 
ATOM     26  H   UNL     1       2.825  -9.062   3.759  0.00  0.00    +0.145 HD
ATOM     27  H   UNL     1       3.401  -7.779   4.679  0.00  0.00    +0.145 HD
ENDBRANCH   8  25
BRANCH   9  28
ATOM     28  C   UNL     1       3.260  -5.489   4.407  0.00  0.00    +0.101 C 
ATOM     29  N   UNL     1       3.825  -5.163   5.337  0.00  0.00    -0.191 NA
ENDBRANCH   9  28
TORSDOF 4
