REMARK  Name = ZINC19500580
REMARK  16 active torsions:
REMARK  status: ('A' for Active; 'I' for Inactive)
REMARK    1  A    between atoms: C_1  and  C_2
REMARK    2  A    between atoms: C_2  and  C_3
REMARK    3  A    between atoms: C_3  and  C_5
REMARK    4  A    between atoms: C_3  and  N_15
REMARK    5  A    between atoms: N_9  and  C_10
REMARK    6  A    between atoms: C_10  and  C_11
REMARK    7  A    between atoms: C_10  and  C_12
REMARK    8  A    between atoms: C_10  and  C_13
REMARK    9  A    between atoms: C_13  and  C_14
REMARK   10  A    between atoms: N_15  and  C_16
REMARK   11  A    between atoms: N_15  and  C_24
REMARK   12  A    between atoms: C_16  and  C_17
REMARK   13  A    between atoms: C_17  and  N_18
REMARK   14  A    between atoms: C_24  and  C_25
REMARK   15  A    between atoms: C_30  and  C_38
REMARK   16  A    between atoms: C_31  and  C_37
REMARK                            x       y       z     vdW  Elec       q    Type
REMARK                         _______ _______ _______ _____ _____    ______ ____
ROOT
ATOM      1  N   UNL     1       4.157   0.044  -1.021  0.00  0.00    +0.390 N 
ATOM      2  H   UNL     1       4.212  -0.871  -0.412  0.00  0.00    -0.080 HD
ENDROOT
BRANCH   1   3
ATOM      3  C   UNL     1       2.764   0.510  -1.009  0.00  0.00    +0.003 C 
BRANCH   3   4
ATOM      4  C   UNL     1       1.836  -0.678  -1.033  0.00  0.00    +0.139 A 
ATOM      5  N   UNL     1       1.977  -1.766  -1.749  0.00  0.00    -0.115 NA
ATOM      6  N   UNL     1       0.979  -2.541  -1.496  0.00  0.00    -0.023 NA
ATOM      7  N   UNL     1       0.208  -1.977  -0.633  0.00  0.00    -0.043 NA
ATOM      8  N   UNL     1       0.704  -0.828  -0.321  0.00  0.00    -0.225 N 
BRANCH   8   9
ATOM      9  C   UNL     1       0.138   0.136   0.627  0.00  0.00    +0.061 C 
ATOM     10  C   UNL     1      -0.008   1.497  -0.056  0.00  0.00    +0.036 C 
ATOM     11  C   UNL     1       1.067   0.268   1.835  0.00  0.00    +0.036 C 
BRANCH   9  12
ATOM     12  C   UNL     1      -1.235  -0.353   1.091  0.00  0.00    +0.026 C 
ATOM     13  C   UNL     1      -1.826   0.653   2.081  0.00  0.00    +0.006 C 
ENDBRANCH   9  12
ENDBRANCH   8   9
ENDBRANCH   3   4
BRANCH   3  15
ATOM     14  C   UNL     1       3.385   2.633  -2.170  0.00  0.00    +0.002 C 
ATOM     15  C   UNL     1       2.507   1.382  -2.240  0.00  0.00    -0.011 C 
ENDBRANCH   3  15
ENDBRANCH   1   3
BRANCH   1  16
ATOM     16  C   UNL     1       4.587  -0.294  -2.384  0.00  0.00    -0.062 C 
BRANCH  16  17
ATOM     17  C   UNL     1       5.860  -1.141  -2.322  0.00  0.00    +0.066 C 
BRANCH  17  18
ATOM     18  N   UNL     1       6.358  -1.377  -3.683  0.00  0.00    -0.300 NA
ATOM     19  C   UNL     1       5.424  -2.216  -4.448  0.00  0.00    +0.112 C 
ATOM     20  C   UNL     1       5.952  -2.387  -5.875  0.00  0.00    +0.175 C 
ATOM     21  O   UNL     1       7.267  -2.946  -5.828  0.00  0.00    -0.377 OA
ATOM     22  C   UNL     1       8.203  -2.154  -5.092  0.00  0.00    +0.175 C 
ATOM     23  C   UNL     1       7.699  -1.981  -3.656  0.00  0.00    +0.112 C 
ENDBRANCH  17  18
ENDBRANCH  16  17
ENDBRANCH   1  16
BRANCH   1  24
ATOM     24  C   UNL     1       5.051   1.041  -0.418  0.00  0.00    -0.036 C 
BRANCH  24  25
ATOM     25  C   UNL     1       4.962   0.953   1.084  0.00  0.00    +0.001 A 
ATOM     26  C   UNL     1       5.837   0.175   1.768  0.00  0.00    +0.017 A 
ATOM     27  C   UNL     1       5.726   0.114   3.226  0.00  0.00    -0.001 A 
ATOM     28  C   UNL     1       6.604  -0.667   3.987  0.00  0.00    +0.010 A 
ATOM     29  C   UNL     1       6.471  -0.706   5.346  0.00  0.00    +0.004 A 
ATOM     30  C   UNL     1       5.474   0.024   5.979  0.00  0.00    -0.046 A 
ATOM     31  C   UNL     1       4.599   0.800   5.251  0.00  0.00    -0.024 A 
ATOM     32  C   UNL     1       4.715   0.855   3.865  0.00  0.00    +0.052 A 
ATOM     33  N   UNL     1       3.854   1.624   3.112  0.00  0.00    -0.322 N 
ATOM     34  H   UNL     1       3.061   2.206   3.605  0.00  0.00    +0.169 HD
ATOM     35  C   UNL     1       3.966   1.677   1.773  0.00  0.00    +0.251 A 
ATOM     36  O   UNL     1       3.187   2.367   1.138  0.00  0.00    -0.268 OA
ATOM     37  C   UNL     1       3.522   1.587   5.952  0.00  0.00    +0.046 C 
ATOM     38  C   UNL     1       5.347  -0.034   7.480  0.00  0.00    +0.044 C 
ENDBRANCH  24  25
ENDBRANCH   1  24
TORSDOF 10
