REMARK  Name = ZINC06391408
REMARK  9 active torsions:
REMARK  status: ('A' for Active; 'I' for Inactive)
REMARK    1  A    between atoms: C_1  and  C_2
REMARK    2  A    between atoms: C_2  and  C_3
REMARK    3  A    between atoms: C_3  and  C_5
REMARK    4  A    between atoms: C_3  and  C_6
REMARK    5  A    between atoms: C_9  and  O_29
REMARK    6  A    between atoms: C_10  and  N_12
REMARK    7  A    between atoms: N_13  and  C_14
REMARK    8  A    between atoms: C_17  and  S_20
REMARK    9  A    between atoms: S_20  and  N_23
REMARK                            x       y       z     vdW  Elec       q    Type
REMARK                         _______ _______ _______ _____ _____    ______ ____
ROOT
ATOM      1  C   UNL     1      -3.816  -4.568   4.326  0.00  0.00    +0.086 A 
ATOM      2  C   UNL     1      -3.792  -5.961   4.436  0.00  0.00    +0.031 A 
ATOM      3  C   UNL     1      -4.407  -6.575   5.507  0.00  0.00    +0.030 A 
ATOM      4  C   UNL     1      -5.047  -5.815   6.471  0.00  0.00    +0.106 A 
ATOM      5  C   UNL     1      -5.075  -4.435   6.368  0.00  0.00    +0.030 A 
ATOM      6  C   UNL     1      -4.458  -3.807   5.306  0.00  0.00    +0.031 A 
ENDROOT
BRANCH   4   7
ATOM      7  S   UNL     1      -5.830  -6.608   7.835  0.00  0.00    +0.061 S 
ATOM      8  O   UNL     1      -6.826  -5.712   8.309  0.00  0.00    -0.153 OA
ATOM      9  O   UNL     1      -6.134  -7.932   7.416  0.00  0.00    -0.153 OA
BRANCH   7  10
ATOM     10  N   UNL     1      -4.701  -6.741   9.039  0.00  0.00    -0.177 NA
ATOM     11  C   UNL     1      -3.835  -7.924   9.126  0.00  0.00    +0.109 C 
ATOM     12  C   UNL     1      -2.374  -7.464   9.171  0.00  0.00    +0.017 C 
ATOM     13  C   UNL     1      -2.193  -6.467  10.317  0.00  0.00    +0.003 C 
ATOM     14  C   UNL     1      -3.078  -5.242  10.074  0.00  0.00    +0.017 C 
ATOM     15  C   UNL     1      -4.542  -5.674  10.037  0.00  0.00    +0.109 C 
ENDBRANCH   7  10
ENDBRANCH   4   7
BRANCH   1  17
ATOM     16  N   UNL     1      -2.616  -4.658   2.364  0.00  0.00    -0.146 NA
ATOM     17  N   UNL     1      -3.208  -3.953   3.267  0.00  0.00    -0.149 NA
BRANCH  16  22
ATOM     18  C   UNL     1      -1.414  -2.036   0.129  0.00  0.00    -0.042 A 
ATOM     19  C   UNL     1      -0.777  -2.794  -0.841  0.00  0.00    +0.007 A 
ATOM     20  C   UNL     1      -0.752  -4.172  -0.747  0.00  0.00    +0.048 A 
ATOM     21  C   UNL     1      -1.364  -4.807   0.322  0.00  0.00    +0.144 A 
ATOM     22  C   UNL     1      -2.010  -4.044   1.307  0.00  0.00    +0.128 A 
ATOM     23  C   UNL     1      -2.023  -2.650   1.201  0.00  0.00    +0.037 A 
BRANCH  18  24
ATOM     24  C   UNL     1      -1.433  -0.534   0.013  0.00  0.00    +0.016 C 
ATOM     25  C   UNL     1      -2.135  -0.131  -1.286  0.00  0.00    +0.012 C 
BRANCH  24  27
ATOM     26  C   UNL     1      -0.019   1.526   0.010  0.00  0.00    +0.004 C 
ATOM     27  C   UNL     1       0.002  -0.004   0.002  0.00  0.00    +0.004 C 
ENDBRANCH  24  27
ENDBRANCH  18  24
BRANCH  21  28
ATOM     28  O   UNL     1      -1.340  -6.161   0.416  0.00  0.00    -0.505 OA
ATOM     29  H   UNL     1      -0.580  -6.508   0.902  0.00  0.00    +0.292 HD
ENDBRANCH  21  28
ENDBRANCH  16  22
ENDBRANCH   1  17
TORSDOF 7
