REMARK  Name = ZINC12470145
REMARK  11 active torsions:
REMARK  status: ('A' for Active; 'I' for Inactive)
REMARK    1  A    between atoms: C_1  and  C_2
REMARK    2  A    between atoms: C_3  and  C_33
REMARK    3  A    between atoms: N_4  and  C_28
REMARK    4  A    between atoms: C_5  and  N_9
REMARK    5  A    between atoms: C_6  and  C_7
REMARK    6  A    between atoms: C_10  and  C_12
REMARK    7  A    between atoms: C_12  and  O_13
REMARK    8  A    between atoms: O_13  and  C_14
REMARK    9  A    between atoms: C_14  and  C_16
REMARK   10  A    between atoms: C_16  and  N_17
REMARK   11  A    between atoms: C_18  and  C_20
REMARK                            x       y       z     vdW  Elec       q    Type
REMARK                         _______ _______ _______ _____ _____    ______ ____
ROOT
ATOM      1  N   UNL     1      -1.233   2.055   0.326  0.00  0.00    -0.268 N 
ATOM      2  C   UNL     1      -2.320   1.471   0.867  0.00  0.00    +0.256 C 
ATOM      3  O   UNL     1      -2.255   0.334   1.282  0.00  0.00    -0.272 OA
ATOM      4  H   UNL     1      -1.279   2.973   0.016  0.00  0.00    +0.156 HD
ENDROOT
BRANCH   1   9
ATOM      5  C   UNL     1       2.167  -1.588  -0.515  0.00  0.00    +0.047 C 
ATOM      6  C   UNL     1       1.513  -0.278  -0.160  0.00  0.00    -0.011 A 
ATOM      7  C   UNL     1       2.131   0.842   0.250  0.00  0.00    +0.022 A 
ATOM      8  N   UNL     1       1.198   1.818   0.475  0.00  0.00    -0.329 N 
ATOM      9  C   UNL     1      -0.048   1.344   0.213  0.00  0.00    +0.124 A 
ATOM     10  C   UNL     1       0.076   0.023  -0.194  0.00  0.00    +0.095 A 
ATOM     11  C   UNL     1       3.619   0.999   0.434  0.00  0.00    +0.064 C 
BRANCH   8  12
ATOM     12  C   UNL     1       1.499   3.177   0.932  0.00  0.00    +0.089 C 
ATOM     13  C   UNL     1       0.678   3.503   2.197  0.00  0.00    +0.025 C 
ATOM     14  C   UNL     1       0.300   4.996   2.030  0.00  0.00    +0.002 C 
ATOM     15  C   UNL     1       0.019   5.110   0.511  0.00  0.00    +0.002 C 
ATOM     16  C   UNL     1       1.080   4.198  -0.140  0.00  0.00    +0.025 C 
ENDBRANCH   8  12
BRANCH  10  17
ATOM     17  C   UNL     1      -0.981  -0.866  -0.570  0.00  0.00    +0.103 C 
ATOM     18  N   UNL     1      -1.821  -1.571  -0.869  0.00  0.00    -0.191 NA
ENDBRANCH  10  17
ENDBRANCH   1   9
BRANCH   2  19
ATOM     19  C   UNL     1      -3.618   2.232   0.956  0.00  0.00    +0.328 C 
BRANCH  19  20
ATOM     20  O   UNL     1      -4.662   1.352   1.450  0.00  0.00    -0.454 OA
BRANCH  20  21
ATOM     21  C   UNL     1      -5.889   1.879   1.588  0.00  0.00    +0.325 C 
ATOM     22  O   UNL     1      -6.084   3.038   1.306  0.00  0.00    -0.249 OA
BRANCH  21  23
ATOM     23  C   UNL     1      -7.023   1.026   2.096  0.00  0.00    +0.225 C 
BRANCH  23  24
ATOM     24  N   UNL     1      -8.248   1.828   2.156  0.00  0.00    -0.301 N 
ATOM     25  C   UNL     1      -9.398   1.270   2.584  0.00  0.00    +0.246 C 
ATOM     26  O   UNL     1      -9.419   0.102   2.919  0.00  0.00    -0.270 OA
ATOM     27  H   UNL     1      -8.231   2.760   1.888  0.00  0.00    +0.150 HD
BRANCH  25  28
ATOM     28  C   UNL     1     -10.633   2.078   2.644  0.00  0.00    +0.055 A 
ATOM     29  C   UNL     1     -10.612   3.421   2.260  0.00  0.00    +0.016 A 
ATOM     30  C   UNL     1     -11.767   4.170   2.318  0.00  0.00    +0.021 A 
ATOM     31  C   UNL     1     -12.949   3.594   2.758  0.00  0.00    +0.042 A 
ATOM     32  C   UNL     1     -12.977   2.264   3.141  0.00  0.00    +0.040 A 
ATOM     33  C   UNL     1     -11.828   1.502   3.082  0.00  0.00    +0.054 A 
ATOM     34 CL   UNL     1     -11.866  -0.168   3.555  0.00  0.00    -0.083 Cl
ATOM     35 CL   UNL     1     -14.399   4.545   2.829  0.00  0.00    -0.083 Cl
ENDBRANCH  25  28
ENDBRANCH  23  24
ENDBRANCH  21  23
ENDBRANCH  20  21
ENDBRANCH  19  20
ENDBRANCH   2  19
TORSDOF 9
