REMARK  Name = ZINC13571581
REMARK  9 active torsions:
REMARK  status: ('A' for Active; 'I' for Inactive)
REMARK    1  A    between atoms: C_1  and  C_2
REMARK    2  A    between atoms: C_2  and  C_3
REMARK    3  A    between atoms: C_3  and  C_5
REMARK    4  A    between atoms: C_3  and  O_24
REMARK    5  A    between atoms: C_11  and  S_13
REMARK    6  A    between atoms: S_13  and  C_16
REMARK    7  A    between atoms: C_16  and  C_17
REMARK    8  A    between atoms: C_22  and  C_23
REMARK    9  A    between atoms: O_24  and  C_25
REMARK                            x       y       z     vdW  Elec       q    Type
REMARK                         _______ _______ _______ _____ _____    ______ ____
ROOT
ATOM      1  C   UNL     1       0.011   5.351  -0.886  0.00  0.00    +0.259 C 
ATOM      2  O   UNL     1       1.090   5.681  -1.331  0.00  0.00    -0.271 OA
ATOM      3  N   UNL     1      -1.073   6.120  -1.108  0.00  0.00    -0.260 N 
ATOM      4  C   UNL     1      -0.955   7.293  -1.846  0.00  0.00    +0.189 A 
ATOM      5  N   UNL     1       0.114   7.828  -2.412  0.00  0.00    -0.124 NA
ATOM      6  N   UNL     1       0.056   8.912  -3.056  0.00  0.00    -0.121 NA
ATOM      7  C   UNL     1      -1.087   9.555  -3.187  0.00  0.00    +0.239 A 
ATOM      8  S   UNL     1      -2.172   8.456  -2.284  0.00  0.00    -0.012 S 
ATOM      9  H   UNL     1      -2.052   5.821  -0.705  0.00  0.00    +0.157 HD
ENDROOT
BRANCH   7  10
ATOM     10  S   UNL     1      -1.447  11.065  -4.020  0.00  0.00    +0.026 S 
ATOM     11  O   UNL     1      -2.591  11.582  -3.356  0.00  0.00    -0.167 OA
ATOM     12  O   UNL     1      -0.220  11.783  -4.015  0.00  0.00    -0.167 OA
BRANCH  10  13
ATOM     13  C   UNL     1      -1.875  10.573  -5.713  0.00  0.00    +0.209 C 
BRANCH  13  14
ATOM     14  C   UNL     1      -2.204  11.800  -6.524  0.00  0.00    -0.023 A 
ATOM     15  C   UNL     1      -3.506  12.262  -6.582  0.00  0.00    +0.005 A 
ATOM     16  C   UNL     1      -3.807  13.390  -7.322  0.00  0.00    +0.000 A 
ATOM     17  C   UNL     1      -2.808  14.050  -8.014  0.00  0.00    +0.000 A 
ATOM     18  C   UNL     1      -1.508  13.585  -7.961  0.00  0.00    +0.003 A 
ATOM     19  C   UNL     1      -1.206  12.460  -7.216  0.00  0.00    -0.046 A 
ATOM     20  C   UNL     1       0.212  11.952  -7.158  0.00  0.00    +0.044 C 
ENDBRANCH  13  14
ENDBRANCH  10  13
ENDBRANCH   7  10
BRANCH   1  21
ATOM     21  C   UNL     1      -0.118   4.080  -0.087  0.00  0.00    +0.259 C 
BRANCH  21  23
ATOM     22  C   UNL     1      -0.880   3.112   2.087  0.00  0.00    +0.008 C 
ATOM     23  C   UNL     1      -0.630   4.410   1.317  0.00  0.00    +0.051 C 
ENDBRANCH  21  23
BRANCH  21  24
ATOM     24  O   UNL     1       1.159   3.446   0.009  0.00  0.00    -0.477 OA
BRANCH  24  25
ATOM     25  C   UNL     1       1.184   2.090  -0.089  0.00  0.00    +0.157 A 
ATOM     26  C   UNL     1      -0.003   1.377  -0.156  0.00  0.00    +0.048 A 
ATOM     27  C   UNL     1       0.024  -0.001  -0.256  0.00  0.00    +0.004 A 
ATOM     28  C   UNL     1       1.234  -0.670  -0.291  0.00  0.00    +0.003 A 
ATOM     29  C   UNL     1       2.420   0.038  -0.224  0.00  0.00    +0.042 A 
ATOM     30  C   UNL     1       2.398   1.417  -0.123  0.00  0.00    +0.165 A 
ATOM     31  F   UNL     1       3.557   2.109  -0.059  0.00  0.00    -0.202 F 
ENDBRANCH  24  25
ENDBRANCH  21  24
ENDBRANCH   1  21
TORSDOF 7
