REMARK  Name = ZINC13734477
REMARK  3 active torsions:
REMARK  status: ('A' for Active; 'I' for Inactive)
REMARK    1  A    between atoms: C_4  and  C_7
REMARK    2  A    between atoms: C_8  and  C_9
REMARK    3  A    between atoms: N_18  and  C_21
REMARK                            x       y       z     vdW  Elec       q    Type
REMARK                         _______ _______ _______ _____ _____    ______ ____
ROOT
ATOM      1  C   UNL     1       4.727  -2.950   0.063  0.00  0.00    +0.096 C 
ATOM      2  N   UNL     1       5.774  -2.190   0.044  0.00  0.00    -0.088 NA
ATOM      3  O   UNL     1       6.980  -2.917  -0.057  0.00  0.00    -0.380 OA
ATOM      4  C   UNL     1       6.665  -4.252  -0.488  0.00  0.00    +0.308 C 
ATOM      5  C   UNL     1       5.177  -4.395  -0.037  0.00  0.00    +0.180 C 
ATOM      6  C   UNL     1       4.541  -5.019  -1.266  0.00  0.00    +0.239 C 
ATOM      7  O   UNL     1       3.476  -5.597  -1.295  0.00  0.00    -0.274 OA
ATOM      8  N   UNL     1       5.354  -4.823  -2.314  0.00  0.00    -0.207 N 
ATOM      9  C   UNL     1       6.572  -4.291  -1.999  0.00  0.00    +0.271 C 
ATOM     10  O   UNL     1       7.428  -3.915  -2.771  0.00  0.00    -0.271 OA
ENDROOT
BRANCH   8  11
ATOM     11  C   UNL     1       4.992  -5.143  -3.630  0.00  0.00    +0.044 A 
ATOM     12  C   UNL     1       5.926  -5.046  -4.652  0.00  0.00    +0.024 A 
ATOM     13  C   UNL     1       5.566  -5.361  -5.947  0.00  0.00    +0.002 A 
ATOM     14  C   UNL     1       4.276  -5.773  -6.227  0.00  0.00    +0.000 A 
ATOM     15  C   UNL     1       3.343  -5.870  -5.211  0.00  0.00    +0.002 A 
ATOM     16  C   UNL     1       3.699  -5.561  -3.913  0.00  0.00    +0.024 A 
ENDBRANCH   8  11
BRANCH   1  18
ATOM     17  C   UNL     1       3.071  -1.175   0.254  0.00  0.00    +0.010 C 
ATOM     18  C   UNL     1       3.342  -2.493   0.171  0.00  0.00    +0.028 C 
BRANCH  17  22
ATOM     19  C   UNL     1      -0.946   0.151   0.564  0.00  0.00    +0.000 A 
ATOM     20  C   UNL     1       0.084   1.074   0.549  0.00  0.00    +0.001 A 
ATOM     21  C   UNL     1       1.393   0.651   0.448  0.00  0.00    +0.008 A 
ATOM     22  C   UNL     1       1.677  -0.715   0.362  0.00  0.00    -0.025 A 
ATOM     23  C   UNL     1       0.630  -1.642   0.378  0.00  0.00    +0.008 A 
ATOM     24  C   UNL     1      -0.673  -1.203   0.479  0.00  0.00    +0.001 A 
ENDBRANCH  17  22
ENDBRANCH   1  18
TORSDOF 3
