REMARK  Name = ZINC51331079
REMARK  8 active torsions:
REMARK  status: ('A' for Active; 'I' for Inactive)
REMARK    1  A    between atoms: C_1  and  C_2
REMARK    2  A    between atoms: C_5  and  C_8
REMARK    3  A    between atoms: C_15  and  N_37
REMARK    4  A    between atoms: C_16  and  C_35
REMARK    5  A    between atoms: C_17  and  C_19
REMARK    6  A    between atoms: C_24  and  O_25
REMARK    7  A    between atoms: O_25  and  C_26
REMARK    8  A    between atoms: C_26  and  C_28
REMARK                            x       y       z     vdW  Elec       q    Type
REMARK                         _______ _______ _______ _____ _____    ______ ____
ROOT
ATOM      1  C   UNL     1      -0.793  -3.825   0.064  0.00  0.00    +0.100 A 
ATOM      2  C   UNL     1       0.101  -4.710   0.674  0.00  0.00    +0.054 A 
ATOM      3  C   UNL     1      -0.218  -5.975   0.274  0.00  0.00    +0.223 A 
ATOM      4  N   UNL     1      -1.276  -5.888  -0.558  0.00  0.00    -0.246 N 
ATOM      5  H   UNL     1      -1.720  -6.631  -0.996  0.00  0.00    +0.192 HD
ATOM      6  N   UNL     1      -1.625  -4.534  -0.675  0.00  0.00    -0.171 NA
ATOM      7  O   UNL     1       0.467  -7.069   0.691  0.00  0.00    -0.423 OA
ATOM      8  C   UNL     1       1.653  -6.869   1.300  0.00  0.00    +0.200 C 
ATOM      9  C   UNL     1       2.073  -5.666   1.751  0.00  0.00    +0.098 C 
ATOM     10  C   UNL     1       1.239  -4.416   1.617  0.00  0.00    +0.105 C 
ENDROOT
BRANCH   1  15
ATOM     11  C   UNL     1      -0.845   1.901   0.682  0.00  0.00    +0.044 C 
ATOM     12  C   UNL     1      -0.832   0.403   0.521  0.00  0.00    -0.050 A 
ATOM     13  C   UNL     1      -2.021  -0.303   0.536  0.00  0.00    +0.004 A 
ATOM     14  C   UNL     1      -2.014  -1.675   0.388  0.00  0.00    +0.010 A 
ATOM     15  C   UNL     1      -0.806  -2.349   0.223  0.00  0.00    +0.003 A 
ATOM     16  C   UNL     1       0.389  -1.633   0.208  0.00  0.00    +0.010 A 
ATOM     17  C   UNL     1       0.370  -0.261   0.351  0.00  0.00    +0.004 A 
ENDBRANCH   1  15
BRANCH  10  18
ATOM     18  C   UNL     1       0.694  -4.021   2.965  0.00  0.00    +0.008 A 
ATOM     19  C   UNL     1      -0.166  -4.868   3.639  0.00  0.00    +0.008 A 
ATOM     20  C   UNL     1      -0.667  -4.506   4.875  0.00  0.00    +0.001 A 
ATOM     21  C   UNL     1      -0.309  -3.296   5.442  0.00  0.00    +0.004 A 
ATOM     22  C   UNL     1       0.550  -2.446   4.773  0.00  0.00    +0.047 A 
ATOM     23  C   UNL     1       1.058  -2.810   3.534  0.00  0.00    +0.136 A 
BRANCH  23  24
ATOM     24  O   UNL     1       1.908  -1.978   2.876  0.00  0.00    -0.422 OA
BRANCH  24  25
ATOM     25  C   UNL     1       3.232  -2.145   3.066  0.00  0.00    +0.344 C 
ATOM     26  O   UNL     1       3.630  -2.952   3.882  0.00  0.00    -0.245 OA
BRANCH  25  27
ATOM     27  C   UNL     1       4.197  -1.348   2.283  0.00  0.00    +0.059 A 
ATOM     28  C   UNL     1       3.742  -0.374   1.392  0.00  0.00    +0.016 A 
ATOM     29  C   UNL     1       4.648   0.367   0.664  0.00  0.00    +0.021 A 
ATOM     30  C   UNL     1       6.007   0.146   0.814  0.00  0.00    +0.041 A 
ATOM     31  C   UNL     1       6.465  -0.820   1.695  0.00  0.00    +0.021 A 
ATOM     32  C   UNL     1       5.569  -1.562   2.434  0.00  0.00    +0.016 A 
ATOM     33 CL   UNL     1       7.142   1.083  -0.107  0.00  0.00    -0.084 Cl
ENDBRANCH  25  27
ENDBRANCH  24  25
ENDBRANCH  23  24
ENDBRANCH  10  18
BRANCH   8  34
ATOM     34  N   UNL     1       2.482  -7.949   1.473  0.00  0.00    -0.328 N 
ATOM     35  H   UNL     1       2.209  -8.825   1.160  0.00  0.00    +0.145 HD
ATOM     36  H   UNL     1       3.342  -7.836   1.908  0.00  0.00    +0.145 HD
ENDBRANCH   8  34
BRANCH   9  37
ATOM     37  C   UNL     1       3.356  -5.574   2.380  0.00  0.00    +0.101 C 
ATOM     38  N   UNL     1       4.374  -5.502   2.879  0.00  0.00    -0.191 NA
ENDBRANCH   9  37
TORSDOF 7
