REMARK  Name = ZINC08876667
REMARK  3 active torsions:
REMARK  status: ('A' for Active; 'I' for Inactive)
REMARK    1  A    between atoms: C_4  and  N_7
REMARK    2  A    between atoms: C_12  and  C_28
REMARK    3  A    between atoms: C_28  and  C_29
REMARK                            x       y       z     vdW  Elec       q    Type
REMARK                         _______ _______ _______ _____ _____    ______ ____
ROOT
ATOM      1  N   UNL     1      -1.240   2.070   0.019  0.00  0.00    -0.210 N 
ATOM      2  C   UNL     1      -2.419   1.447  -0.082  0.00  0.00    +0.228 C 
ATOM      3  O   UNL     1      -2.572   0.249  -0.192  0.00  0.00    -0.275 OA
ATOM      4  C   UNL     1      -3.533   2.469  -0.037  0.00  0.00    +0.074 C 
ATOM      5  C   UNL     1      -4.221   2.545  -1.417  0.00  0.00    -0.053 C 
ATOM      6  C   UNL     1      -3.077   4.586  -1.187  0.00  0.00    +0.050 C 
ATOM      7  C   UNL     1      -2.775   3.818   0.105  0.00  0.00    +0.088 C 
ATOM      8  C   UNL     1      -1.322   3.401   0.125  0.00  0.00    +0.229 C 
ATOM      9  O   UNL     1      -0.378   4.156   0.222  0.00  0.00    -0.275 OA
ATOM     10  C   UNL     1      -3.211   6.061  -0.934  0.00  0.00    -0.028 A 
ATOM     11  C   UNL     1      -4.042   6.814  -0.136  0.00  0.00    +0.004 A 
ATOM     12  C   UNL     1      -3.919   8.192  -0.114  0.00  0.00    +0.000 A 
ATOM     13  C   UNL     1      -2.961   8.810  -0.897  0.00  0.00    +0.002 A 
ATOM     14  C   UNL     1      -2.126   8.060  -1.698  0.00  0.00    +0.023 A 
ATOM     15  C   UNL     1      -2.243   6.672  -1.726  0.00  0.00    +0.036 A 
ATOM     16  N   UNL     1      -1.526   5.710  -2.441  0.00  0.00    -0.286 N 
ATOM     17  C   UNL     1      -1.952   4.459  -2.179  0.00  0.00    +0.211 C 
ATOM     18  O   UNL     1      -1.515   3.431  -2.650  0.00  0.00    -0.277 OA
ATOM     19  H   UNL     1      -0.805   5.918  -3.055  0.00  0.00    +0.155 HD
ATOM     20  N   UNL     1      -4.323   3.982  -1.682  0.00  0.00    +0.394 N 
ATOM     21  H   UNL     1      -5.130   4.378  -1.186  0.00  0.00    -0.083 HD
ATOM     22  H   UNL     1      -4.424   4.151  -2.690  0.00  0.00    -0.083 HD
ENDROOT
BRANCH   1  26
ATOM     23  C   UNL     1       2.391   0.021  -0.006  0.00  0.00    +0.000 A 
ATOM     24  C   UNL     1       1.976   0.676   1.139  0.00  0.00    +0.002 A 
ATOM     25  C   UNL     1       0.775   1.357   1.150  0.00  0.00    +0.024 A 
ATOM     26  C   UNL     1      -0.017   1.384   0.010  0.00  0.00    +0.044 A 
ATOM     27  C   UNL     1       0.402   0.726  -1.138  0.00  0.00    +0.024 A 
ATOM     28  C   UNL     1       1.605   0.046  -1.143  0.00  0.00    +0.002 A 
ENDBRANCH   1  26
BRANCH   5  29
ATOM     29  C   UNL     1      -5.601   1.888  -1.361  0.00  0.00    +0.022 C 
BRANCH  29  30
ATOM     30  C   UNL     1      -6.203   1.864  -2.743  0.00  0.00    -0.024 A 
ATOM     31  C   UNL     1      -7.047   2.769  -3.262  0.00  0.00    +0.087 A 
ATOM     32  N   UNL     1      -7.380   2.416  -4.541  0.00  0.00    -0.360 N 
ATOM     33  H   UNL     1      -7.977   2.916  -5.120  0.00  0.00    +0.165 HD
ATOM     34  C   UNL     1      -6.742   1.246  -4.886  0.00  0.00    +0.047 A 
ATOM     35  C   UNL     1      -5.971   0.852  -3.776  0.00  0.00    +0.003 A 
ATOM     36  C   UNL     1      -5.213  -0.319  -3.836  0.00  0.00    +0.010 A 
ATOM     37  C   UNL     1      -5.212  -1.070  -4.977  0.00  0.00    +0.001 A 
ATOM     38  C   UNL     1      -5.966  -0.682  -6.077  0.00  0.00    +0.002 A 
ATOM     39  C   UNL     1      -6.727   0.466  -6.037  0.00  0.00    +0.026 A 
ENDBRANCH  29  30
ENDBRANCH   5  29
TORSDOF 3
