REMARK  Name = ZINC14140678
REMARK  6 active torsions:
REMARK  status: ('A' for Active; 'I' for Inactive)
REMARK    1  A    between atoms: C_6  and  C_7
REMARK    2  A    between atoms: C_12  and  C_13
REMARK    3  A    between atoms: C_12  and  N_58
REMARK    4  A    between atoms: C_13  and  C_14
REMARK    5  A    between atoms: N_16  and  C_17
REMARK    6  A    between atoms: C_18  and  C_26
REMARK                            x       y       z     vdW  Elec       q    Type
REMARK                         _______ _______ _______ _____ _____    ______ ____
ROOT
ATOM      1  C   UNL     1       3.399   3.895  -2.241  0.00  0.00    -0.069 C 
ENDROOT
BRANCH   1   6
ATOM      2  C   UNL     1       2.458   3.931  -0.002  0.00  0.00    -0.038 C 
ATOM      3  C   UNL     1       3.122   3.883   1.396  0.00  0.00    -0.013 C 
ATOM      4  C   UNL     1       4.613   4.126   1.043  0.00  0.00    -0.020 C 
ATOM      5  C   UNL     1       4.774   3.395  -0.306  0.00  0.00    -0.078 C 
ATOM      6  N   UNL     1       3.430   3.269  -0.893  0.00  0.00    +0.385 N 
ATOM      7  H   UNL     1       3.190   2.274  -0.980  0.00  0.00    -0.081 HD
BRANCH   2  13
ATOM      8  C   UNL     1       1.175   1.783   0.000  0.00  0.00    +0.006 A 
ATOM      9  C   UNL     1      -0.013   1.076   0.008  0.00  0.00    +0.049 A 
ATOM     10  C   UNL     1      -1.223   1.752   0.017  0.00  0.00    +0.162 A 
ATOM     11  C   UNL     1      -1.238   3.142   0.032  0.00  0.00    +0.162 A 
ATOM     12  C   UNL     1      -0.043   3.845   0.023  0.00  0.00    +0.051 A 
ATOM     13  C   UNL     1       1.160   3.165   0.007  0.00  0.00    -0.057 A 
ATOM     14  O   UNL     1      -2.415   3.825   0.056  0.00  0.00    -0.485 OA
ATOM     15  C   UNL     1      -3.589   3.095  -0.328  0.00  0.00    +0.270 C 
ATOM     16  C   UNL     1      -3.569   1.746   0.404  0.00  0.00    +0.270 C 
ATOM     17  O   UNL     1      -2.385   1.043   0.014  0.00  0.00    -0.485 OA
ENDBRANCH   2  13
ENDBRANCH   1   6
BRANCH   1  18
ATOM     18  C   UNL     1       4.228   3.049  -3.210  0.00  0.00    +0.077 C 
BRANCH  18  19
ATOM     19  C   UNL     1       4.194   3.676  -4.580  0.00  0.00    +0.216 C 
ATOM     20  O   UNL     1       3.569   4.699  -4.763  0.00  0.00    -0.276 OA
ATOM     21  N   UNL     1       4.858   3.100  -5.601  0.00  0.00    -0.279 N 
ATOM     22  H   UNL     1       5.358   2.282  -5.455  0.00  0.00    +0.155 HD
BRANCH  21  23
ATOM     23  C   UNL     1       4.827   3.678  -6.863  0.00  0.00    +0.090 A 
ATOM     24  C   UNL     1       5.441   3.239  -8.027  0.00  0.00    +0.084 A 
ATOM     25  C   UNL     1       5.250   4.033  -9.228  0.00  0.00    -0.018 A 
ATOM     26  C   UNL     1       4.480   5.134  -9.073  0.00  0.00    -0.004 A 
ATOM     27  S   UNL     1       4.007   5.118  -7.367  0.00  0.00    -0.077 S 
ATOM     28  C   UNL     1       4.113   6.134 -10.126  0.00  0.00    +0.043 C 
ATOM     29  C   UNL     1       5.045   5.934 -11.329  0.00  0.00    +0.005 C 
ATOM     30  C   UNL     1       5.096   4.442 -11.671  0.00  0.00    +0.005 C 
ATOM     31  C   UNL     1       5.856   3.684 -10.581  0.00  0.00    +0.037 C 
BRANCH  24  32
ATOM     32  C   UNL     1       6.233   2.046  -8.044  0.00  0.00    +0.102 C 
ATOM     33  N   UNL     1       6.862   1.100  -8.058  0.00  0.00    -0.191 NA
ENDBRANCH  24  32
ENDBRANCH  21  23
ENDBRANCH  18  19
ENDBRANCH   1  18
TORSDOF 6
