REMARK  Name = ZINC09018582
REMARK  8 active torsions:
REMARK  status: ('A' for Active; 'I' for Inactive)
REMARK    1  A    between atoms: C_1  and  C_2
REMARK    2  A    between atoms: C_2  and  C_3
REMARK    3  A    between atoms: C_2  and  C_4
REMARK    4  A    between atoms: C_12  and  S_15
REMARK    5  A    between atoms: S_15  and  C_16
REMARK    6  A    between atoms: C_16  and  C_17
REMARK    7  A    between atoms: N_19  and  C_20
REMARK    8  A    between atoms: C_25  and  C_26
REMARK                            x       y       z     vdW  Elec       q    Type
REMARK                         _______ _______ _______ _____ _____    ______ ____
ROOT
ATOM      1  S   UNL     1      -6.240  -1.181  -0.241  0.00  0.00    -0.076 S 
ENDROOT
BRANCH   1  10
ATOM      2  C   UNL     1      -9.499  -1.891  -0.547  0.00  0.00    +0.037 A 
ATOM      3  C   UNL     1     -10.827  -2.063  -0.671  0.00  0.00    +0.092 A 
ATOM      4  C   UNL     1     -11.682  -0.935  -0.740  0.00  0.00    +0.253 A 
ATOM      5  O   UNL     1     -12.886  -1.086  -0.852  0.00  0.00    -0.268 OA
ATOM      6  N   UNL     1     -11.160   0.307  -0.681  0.00  0.00    -0.291 N 
ATOM      7  H   UNL     1     -11.741   1.082  -0.729  0.00  0.00    +0.172 HD
ATOM      8  C   UNL     1      -9.791   0.473  -0.554  0.00  0.00    +0.237 A 
ATOM      9  N   UNL     1      -8.968  -0.622  -0.493  0.00  0.00    -0.260 N 
ATOM     10  C   UNL     1      -7.680  -0.174  -0.365  0.00  0.00    +0.198 A 
ATOM     11  N   UNL     1      -7.707   1.137  -0.356  0.00  0.00    -0.120 NA
ATOM     12  N   UNL     1      -9.041   1.546  -0.476  0.00  0.00    -0.109 NA
BRANCH   2  14
ATOM     13  C   UNL     1      -8.196  -3.344   0.982  0.00  0.00    +0.013 C 
ATOM     14  C   UNL     1      -8.589  -3.090  -0.474  0.00  0.00    +0.030 C 
ATOM     15  C   UNL     1      -9.317  -4.317  -1.027  0.00  0.00    +0.013 C 
ENDBRANCH   2  14
ENDBRANCH   1  10
BRANCH   1  16
ATOM     16  C   UNL     1      -4.880   0.012  -0.105  0.00  0.00    +0.173 C 
BRANCH  16  17
ATOM     17  C   UNL     1      -3.572  -0.728   0.010  0.00  0.00    +0.227 C 
ATOM     18  O   UNL     1      -3.559  -1.940   0.000  0.00  0.00    -0.275 OA
ATOM     19  N   UNL     1      -2.418  -0.042   0.122  0.00  0.00    -0.284 N 
ATOM     20  H   UNL     1      -2.434   0.924   0.215  0.00  0.00    +0.155 HD
BRANCH  19  21
ATOM     21  C   UNL     1      -1.195  -0.722   0.106  0.00  0.00    +0.045 A 
ATOM     22  C   UNL     1      -1.096  -1.960  -0.515  0.00  0.00    +0.024 A 
ATOM     23  C   UNL     1       0.112  -2.629  -0.529  0.00  0.00    +0.002 A 
ATOM     24  C   UNL     1       1.222  -2.067   0.074  0.00  0.00    +0.001 A 
ATOM     25  C   UNL     1       1.128  -0.833   0.689  0.00  0.00    +0.014 A 
ATOM     26  C   UNL     1      -0.079  -0.161   0.711  0.00  0.00    +0.076 A 
BRANCH  26  27
ATOM     27  C   UNL     1      -0.182   1.182   1.387  0.00  0.00    +0.419 C 
ATOM     28  F   UNL     1       1.064   1.534   1.918  0.00  0.00    -0.166 F 
ATOM     29  F   UNL     1      -0.579   2.145   0.452  0.00  0.00    -0.166 F 
ATOM     30  F   UNL     1      -1.126   1.115   2.417  0.00  0.00    -0.166 F 
ENDBRANCH  26  27
ENDBRANCH  19  21
ENDBRANCH  16  17
ENDBRANCH   1  16
TORSDOF 6
