REMARK  Name = ZINC23498428
REMARK  7 active torsions:
REMARK  status: ('A' for Active; 'I' for Inactive)
REMARK    1  A    between atoms: C_1  and  C_2
REMARK    2  A    between atoms: C_2  and  C_3
REMARK    3  A    between atoms: C_2  and  C_4
REMARK    4  A    between atoms: C_4  and  C_6
REMARK    5  A    between atoms: C_4  and  S_12
REMARK    6  A    between atoms: S_12  and  C_13
REMARK    7  A    between atoms: N_23  and  C_24
REMARK                            x       y       z     vdW  Elec       q    Type
REMARK                         _______ _______ _______ _____ _____    ______ ____
ROOT
ATOM      1  C   UNL     1       2.600  -5.084   0.193  0.00  0.00    +0.177 A 
ATOM      2  N   UNL     1       1.467  -5.453  -0.353  0.00  0.00    -0.223 NA
ATOM      3  C   UNL     1       0.736  -6.473   0.154  0.00  0.00    +0.080 A 
ATOM      4  C   UNL     1      -0.473  -6.867  -0.427  0.00  0.00    +0.048 A 
ATOM      5  C   UNL     1      -1.183  -7.910   0.125  0.00  0.00    +0.043 A 
ATOM      6  C   UNL     1      -0.712  -8.575   1.252  0.00  0.00    +0.021 A 
ATOM      7  C   UNL     1       0.466  -8.208   1.838  0.00  0.00    +0.017 A 
ATOM      8  C   UNL     1       1.206  -7.155   1.300  0.00  0.00    +0.065 A 
ATOM      9  C   UNL     1       2.478  -6.721   1.891  0.00  0.00    +0.267 A 
ATOM     10  O   UNL     1       2.935  -7.269   2.878  0.00  0.00    -0.267 OA
ATOM     11  N   UNL     1       3.128  -5.694   1.297  0.00  0.00    -0.255 N 
ATOM     12 CL   UNL     1      -2.684  -8.401  -0.596  0.00  0.00    -0.083 Cl
ENDROOT
BRANCH  11  13
ATOM     13  C   UNL     1       4.348  -5.247   1.821  0.00  0.00    +0.052 A 
ATOM     14  C   UNL     1       4.367  -4.246   2.783  0.00  0.00    +0.028 A 
ATOM     15  C   UNL     1       5.571  -3.810   3.302  0.00  0.00    +0.022 A 
ATOM     16  C   UNL     1       6.758  -4.363   2.855  0.00  0.00    +0.041 A 
ATOM     17  C   UNL     1       6.742  -5.357   1.892  0.00  0.00    +0.022 A 
ATOM     18  C   UNL     1       5.541  -5.800   1.375  0.00  0.00    +0.028 A 
ATOM     19 CL   UNL     1       8.270  -3.809   3.503  0.00  0.00    -0.084 Cl
ENDBRANCH  11  13
BRANCH   1  20
ATOM     20  S   UNL     1       3.487  -3.747  -0.534  0.00  0.00    -0.074 S 
BRANCH  20  21
ATOM     21  C   UNL     1       2.387  -3.354  -1.917  0.00  0.00    +0.143 C 
BRANCH  21  22
ATOM     22  C   UNL     1       1.094  -2.791  -1.386  0.00  0.00    +0.234 C 
ATOM     23  O   UNL     1       1.069  -2.248  -0.302  0.00  0.00    -0.274 OA
ATOM     24  N   UNL     1      -0.035  -2.890  -2.116  0.00  0.00    -0.239 N 
ATOM     25  C   UNL     1      -1.191  -2.386  -1.641  0.00  0.00    +0.303 C 
ATOM     26  O   UNL     1      -1.216  -1.841  -0.554  0.00  0.00    -0.253 OA
ATOM     27  N   UNL     1      -2.318  -2.480  -2.373  0.00  0.00    -0.313 N 
ATOM     28  H   UNL     1      -0.012  -3.383  -3.099  0.00  0.00    +0.159 HD
ATOM     29  H   UNL     1      -3.262  -2.069  -1.985  0.00  0.00    +0.146 HD
ATOM     30  H   UNL     1      -2.295  -2.969  -3.358  0.00  0.00    +0.146 HD
ENDBRANCH  21  22
BRANCH  21  32
ATOM     31  C   UNL     1       4.359  -2.904  -3.384  0.00  0.00    +0.009 C 
ATOM     32  C   UNL     1       3.058  -2.323  -2.826  0.00  0.00    +0.005 C 
ATOM     33  C   UNL     1       2.118  -1.974  -3.982  0.00  0.00    +0.009 C 
ENDBRANCH  21  32
ENDBRANCH  20  21
ENDBRANCH   1  20
TORSDOF 5
