REMARK  Name = ZINC39524449
REMARK  3 active torsions:
REMARK  status: ('A' for Active; 'I' for Inactive)
REMARK    1  A    between atoms: C_4  and  O_7
REMARK    2  A    between atoms: O_7  and  S_8
REMARK    3  A    between atoms: S_8  and  C_11
REMARK                            x       y       z     vdW  Elec       q    Type
REMARK                         _______ _______ _______ _____ _____    ______ ____
ROOT
ATOM      1  C   UNL     1       3.125  -2.313   1.960  0.00  0.00    +0.173 C 
ATOM      2  C   UNL     1       3.260  -3.510   1.016  0.00  0.00    +0.030 C 
ATOM      3  C   UNL     1       2.403  -4.667   1.533  0.00  0.00    +0.004 C 
ATOM      4  C   UNL     1       2.876  -5.065   2.933  0.00  0.00    +0.024 C 
ATOM      5  C   UNL     1       2.742  -3.869   3.877  0.00  0.00    +0.040 C 
ATOM      6  C   UNL     1       3.598  -2.712   3.359  0.00  0.00    +0.053 C 
ATOM      7  C   UNL     1       3.220  -4.269   5.276  0.00  0.00    +0.024 C 
ATOM      8  C   UNL     1       2.348  -5.412   5.801  0.00  0.00    +0.005 C 
ATOM      9  C   UNL     1       0.883  -4.964   5.811  0.00  0.00    +0.036 C 
ATOM     10  C   UNL     1       0.474  -4.546   4.397  0.00  0.00    +0.165 C 
ATOM     11  N   UNL     1       1.337  -3.449   3.940  0.00  0.00    -0.196 NA
ATOM     12 CL   UNL     1       1.153  -2.070   4.934  0.00  0.00    -0.019 Cl
ATOM     13 CL   UNL     1       0.647  -5.951   3.281  0.00  0.00    -0.104 Cl
ENDROOT
BRANCH   1  14
ATOM     14  S   UNL     1       4.140  -0.941   1.346  0.00  0.00    +0.124 S 
ATOM     15  O   UNL     1       5.471  -1.383   1.113  0.00  0.00    -0.136 OA
ATOM     16  O   UNL     1       3.889   0.232   2.108  0.00  0.00    -0.136 OA
BRANCH  14  17
ATOM     17  O   UNL     1       3.586  -0.632  -0.037  0.00  0.00    -0.346 OA
BRANCH  17  21
ATOM     18  C   UNL     1      -0.017   1.378   0.010  0.00  0.00    +0.000 A 
ATOM     19  C   UNL     1       1.170   2.088   0.002  0.00  0.00    +0.004 A 
ATOM     20  C   UNL     1       2.377   1.417  -0.013  0.00  0.00    +0.048 A 
ATOM     21  C   UNL     1       2.399   0.030  -0.021  0.00  0.00    +0.156 A 
ATOM     22  C   UNL     1       1.207  -0.680  -0.013  0.00  0.00    +0.048 A 
ATOM     23  C   UNL     1       0.002  -0.004   0.002  0.00  0.00    +0.004 A 
ENDBRANCH  17  21
ENDBRANCH  14  17
ENDBRANCH   1  14
TORSDOF 3
