REMARK  Name = ZINC03204409
REMARK  6 active torsions:
REMARK  status: ('A' for Active; 'I' for Inactive)
REMARK    1  A    between atoms: C_2  and  C_3
REMARK    2  A    between atoms: C_2  and  N_12
REMARK    3  A    between atoms: C_7  and  N_9
REMARK    4  A    between atoms: N_12  and  N_13
REMARK    5  A    between atoms: C_14  and  C_16
REMARK    6  A    between atoms: C_18  and  C_26
REMARK                            x       y       z     vdW  Elec       q    Type
REMARK                         _______ _______ _______ _____ _____    ______ ____
ROOT
ATOM      1  N   UNL     1       2.424   0.032  -0.001  0.00  0.00    -0.232 N 
ATOM      2  C   UNL     1       3.600  -0.626  -0.036  0.00  0.00    +0.261 C 
ATOM      3  O   UNL     1       3.616  -1.841  -0.061  0.00  0.00    -0.269 OA
ATOM      4  H   UNL     1       2.411   1.001   0.019  0.00  0.00    +0.173 HD
ENDROOT
BRANCH   2   5
ATOM      5  C   UNL     1       4.870   0.131  -0.044  0.00  0.00    +0.049 A 
ATOM      6  C   UNL     1       4.884   1.514  -0.134  0.00  0.00    +0.042 A 
ATOM      7  C   UNL     1       6.116   2.193  -0.138  0.00  0.00    +0.079 A 
ATOM      8  N   UNL     1       7.269   1.558  -0.058  0.00  0.00    -0.246 NA
ATOM      9  C   UNL     1       7.346   0.229   0.031  0.00  0.00    +0.072 A 
ATOM     10  C   UNL     1       6.162  -0.551   0.049  0.00  0.00    +0.013 A 
ATOM     11  C   UNL     1       6.248  -1.944   0.148  0.00  0.00    +0.011 A 
ATOM     12  C   UNL     1       7.472  -2.539   0.233  0.00  0.00    +0.001 A 
ATOM     13  C   UNL     1       8.638  -1.778   0.222  0.00  0.00    +0.002 A 
ATOM     14  C   UNL     1       8.591  -0.422   0.113  0.00  0.00    +0.028 A 
BRANCH   7  15
ATOM     15  C   UNL     1       6.118   3.665  -0.234  0.00  0.00    +0.038 A 
ATOM     16  C   UNL     1       7.183   4.528  -0.261  0.00  0.00    +0.017 A 
ATOM     17  C   UNL     1       6.938   5.878  -0.356  0.00  0.00    +0.008 A 
ATOM     18  C   UNL     1       5.653   6.315  -0.420  0.00  0.00    +0.046 A 
ATOM     19  S   UNL     1       4.734   4.786  -0.354  0.00  0.00    -0.095 S 
ENDBRANCH   7  15
ENDBRANCH   2   5
BRANCH   1  20
ATOM     20  N   UNL     1       1.220  -0.685   0.007  0.00  0.00    -0.264 N 
ATOM     21  H   UNL     1       1.233  -1.655  -0.013  0.00  0.00    +0.170 HD
BRANCH  20  23
ATOM     22  C   UNL     1      -0.015   1.328   0.071  0.00  0.00    +0.035 C 
ATOM     23  C   UNL     1       0.003  -0.005   0.043  0.00  0.00    +0.045 C 
BRANCH  23  24
ATOM     24  C   UNL     1      -1.270  -0.763   0.051  0.00  0.00    -0.001 A 
ATOM     25  C   UNL     1      -1.254  -2.157   0.029  0.00  0.00    +0.010 A 
ATOM     26  C   UNL     1      -2.443  -2.857   0.037  0.00  0.00    +0.003 A 
ATOM     27  C   UNL     1      -3.649  -2.179   0.068  0.00  0.00    +0.033 A 
ATOM     28  C   UNL     1      -3.670  -0.797   0.090  0.00  0.00    +0.127 A 
ATOM     29  C   UNL     1      -2.488  -0.085   0.088  0.00  0.00    +0.042 A 
BRANCH  28  30
ATOM     30  N   UNL     1      -4.964  -0.079   0.123  0.00  0.00    +0.056 N 
ATOM     31  O   UNL     1      -6.001  -0.701   0.129  0.00  0.00    -0.126 OA
ATOM     32  O   UNL     1      -4.985   1.130   0.143  0.00  0.00    -0.126 OA
ENDBRANCH  28  30
ENDBRANCH  23  24
ENDBRANCH  20  23
ENDBRANCH   1  20
TORSDOF 6
