REMARK  Name = ZINC13065486
REMARK  11 active torsions:
REMARK  status: ('A' for Active; 'I' for Inactive)
REMARK    1  A    between atoms: C_1  and  C_2
REMARK    2  A    between atoms: C_5  and  C_8
REMARK    3  A    between atoms: C_8  and  N_66
REMARK    4  A    between atoms: C_9  and  C_10
REMARK    5  A    between atoms: C_9  and  N_66
REMARK    6  A    between atoms: C_14  and  C_23
REMARK    7  A    between atoms: C_16  and  C_22
REMARK    8  A    between atoms: C_24  and  C_25
REMARK    9  A    between atoms: C_24  and  N_66
REMARK   10  A    between atoms: N_29  and  C_30
REMARK   11  A    between atoms: C_30  and  C_31
REMARK                            x       y       z     vdW  Elec       q    Type
REMARK                         _______ _______ _______ _____ _____    ______ ____
ROOT
ATOM      1  N   UNL     1      -1.602   7.279  -1.746  0.00  0.00    +0.390 N 
ATOM      2  H   UNL     1      -1.038   6.684  -2.364  0.00  0.00    -0.080 HD
ENDROOT
BRANCH   1   3
ATOM      3  C   UNL     1      -3.030   6.946  -1.931  0.00  0.00    -0.042 C 
BRANCH   3   8
ATOM      4  C   UNL     1      -4.365   7.481  -7.528  0.00  0.00    +0.044 C 
ATOM      5  C   UNL     1      -4.017   7.341  -6.068  0.00  0.00    -0.050 A 
ATOM      6  C   UNL     1      -3.428   6.179  -5.606  0.00  0.00    +0.003 A 
ATOM      7  C   UNL     1      -3.109   6.051  -4.267  0.00  0.00    +0.002 A 
ATOM      8  C   UNL     1      -3.378   7.085  -3.391  0.00  0.00    -0.064 A 
ATOM      9  C   UNL     1      -3.971   8.246  -3.852  0.00  0.00    +0.002 A 
ATOM     10  C   UNL     1      -4.286   8.375  -5.192  0.00  0.00    +0.003 A 
ENDBRANCH   3   8
ENDBRANCH   1   3
BRANCH   1  11
ATOM     11  C   UNL     1      -1.203   7.031  -0.344  0.00  0.00    -0.036 C 
BRANCH  11  12
ATOM     12  C   UNL     1      -1.246   5.548  -0.082  0.00  0.00    +0.001 A 
ATOM     13  C   UNL     1      -0.120   4.805  -0.220  0.00  0.00    +0.017 A 
ATOM     14  C   UNL     1      -0.195   3.366   0.043  0.00  0.00    -0.001 A 
ATOM     15  C   UNL     1       0.932   2.548  -0.083  0.00  0.00    +0.013 A 
ATOM     16  C   UNL     1       0.829   1.210   0.170  0.00  0.00    -0.050 A 
ATOM     17  C   UNL     1      -0.385   0.654   0.550  0.00  0.00    +0.008 A 
ATOM     18  C   UNL     1      -1.510   1.440   0.674  0.00  0.00    -0.026 A 
ATOM     19  C   UNL     1      -1.428   2.807   0.427  0.00  0.00    +0.052 A 
ATOM     20  N   UNL     1      -2.536   3.618   0.550  0.00  0.00    -0.322 N 
ATOM     21  H   UNL     1      -3.385   3.230   0.816  0.00  0.00    +0.169 HD
ATOM     22  C   UNL     1      -2.457   4.938   0.307  0.00  0.00    +0.251 A 
ATOM     23  O   UNL     1      -3.458   5.624   0.425  0.00  0.00    -0.268 OA
ATOM     24  C   UNL     1      -2.823   0.822   1.081  0.00  0.00    +0.046 C 
ATOM     25  C   UNL     1       2.044   0.329   0.035  0.00  0.00    +0.044 C 
ENDBRANCH  11  12
ENDBRANCH   1  11
BRANCH   1  26
ATOM     26  C   UNL     1      -1.365   8.696  -2.096  0.00  0.00    +0.001 C 
BRANCH  26  27
ATOM     27  C   UNL     1       0.121   8.940  -2.148  0.00  0.00    +0.135 A 
ATOM     28  N   UNL     1       0.878   9.374  -1.170  0.00  0.00    -0.115 NA
ATOM     29  N   UNL     1       2.088   9.450  -1.606  0.00  0.00    -0.023 NA
ATOM     30  N   UNL     1       2.122   9.083  -2.840  0.00  0.00    -0.044 NA
ATOM     31  N   UNL     1       0.928   8.761  -3.210  0.00  0.00    -0.227 N 
BRANCH  31  32
ATOM     32  C   UNL     1       0.528   8.288  -4.538  0.00  0.00    +0.182 C 
BRANCH  32  33
ATOM     33  C   UNL     1       0.232   9.471  -5.424  0.00  0.00    -0.026 A 
ATOM     34  C   UNL     1      -1.048   9.988  -5.481  0.00  0.00    +0.008 A 
ATOM     35  C   UNL     1      -1.319  11.076  -6.290  0.00  0.00    +0.038 A 
ATOM     36  C   UNL     1      -0.309  11.641  -7.051  0.00  0.00    +0.123 A 
ATOM     37  C   UNL     1       0.972  11.118  -6.997  0.00  0.00    +0.038 A 
ATOM     38  C   UNL     1       1.241  10.034  -6.183  0.00  0.00    +0.008 A 
ATOM     39  F   UNL     1      -0.574  12.701  -7.845  0.00  0.00    -0.205 F 
ENDBRANCH  32  33
ENDBRANCH  31  32
ENDBRANCH  26  27
ENDBRANCH   1  26
TORSDOF 8
