REMARK  Name = ZINC39677251
REMARK  8 active torsions:
REMARK  status: ('A' for Active; 'I' for Inactive)
REMARK    1  A    between atoms: C_1  and  C_2
REMARK    2  A    between atoms: C_2  and  C_3
REMARK    3  A    between atoms: C_3  and  C_5
REMARK    4  A    between atoms: C_3  and  C_11
REMARK    5  A    between atoms: C_15  and  C_24
REMARK    6  A    between atoms: N_26  and  C_27
REMARK    7  A    between atoms: C_27  and  C_28
REMARK    8  A    between atoms: C_29  and  C_33
REMARK                            x       y       z     vdW  Elec       q    Type
REMARK                         _______ _______ _______ _____ _____    ______ ____
ROOT
ATOM      1  C   UNL     1      -2.103  -0.149  -1.384  0.00  0.00    +0.223 C 
ATOM      2  O   UNL     1      -2.706  -0.890  -2.131  0.00  0.00    -0.275 OA
ATOM      3  N   UNL     1      -2.116   1.181  -1.599  0.00  0.00    -0.300 N 
ATOM      4  C   UNL     1      -1.520   2.244  -0.754  0.00  0.00    +0.121 C 
ATOM      5  C   UNL     1      -0.927   3.255  -1.760  0.00  0.00    +0.100 C 
ATOM      6  C   UNL     1      -1.725   3.034  -3.056  0.00  0.00    -0.004 C 
ATOM      7  C   UNL     1      -2.723   1.912  -2.737  0.00  0.00    +0.115 C 
ATOM      8  C   UNL     1      -0.793   2.598  -4.183  0.00  0.00    -0.010 C 
ATOM      9  C   UNL     1      -1.600   2.440  -5.474  0.00  0.00    -0.082 C 
ATOM     10  N   UNL     1      -2.243   3.716  -5.810  0.00  0.00    +0.379 N 
ATOM     11  C   UNL     1      -3.207   4.082  -4.765  0.00  0.00    -0.082 C 
ATOM     12  C   UNL     1      -2.467   4.309  -3.443  0.00  0.00    -0.010 C 
ATOM     13  H   UNL     1      -1.540   4.436  -5.885  0.00  0.00    -0.086 HD
ATOM     14  H   UNL     1      -2.724   3.627  -6.693  0.00  0.00    -0.086 HD
ENDROOT
BRANCH   5  15
ATOM     15  C   UNL     1       0.536   2.972  -1.987  0.00  0.00    +0.218 C 
ATOM     16  O   UNL     1       0.954   1.837  -1.905  0.00  0.00    -0.275 OA
ATOM     17  N   UNL     1       1.380   3.981  -2.281  0.00  0.00    -0.310 N 
ATOM     18  H   UNL     1       1.061   4.897  -2.276  0.00  0.00    +0.149 HD
BRANCH  17  19
ATOM     19  C   UNL     1       2.779   3.695  -2.607  0.00  0.00    +0.147 C 
BRANCH  19  20
ATOM     20  C   UNL     1       3.531   4.990  -2.777  0.00  0.00    +0.010 A 
ATOM     21  C   UNL     1       4.263   5.678  -1.867  0.00  0.00    -0.039 A 
ATOM     22  C   UNL     1       4.872   6.857  -2.252  0.00  0.00    +0.011 A 
ATOM     23  C   UNL     1       4.720   7.291  -3.527  0.00  0.00    +0.046 A 
ATOM     24  S   UNL     1       3.694   6.012  -4.232  0.00  0.00    -0.100 S 
ATOM     25  C   UNL     1       4.410   5.165  -0.458  0.00  0.00    +0.044 C 
ENDBRANCH  19  20
ENDBRANCH  17  19
ENDBRANCH   5  15
BRANCH   1  26
ATOM     26  C   UNL     1      -1.339  -0.716  -0.215  0.00  0.00    +0.105 C 
BRANCH  26  27
ATOM     27  C   UNL     1      -2.260  -0.848   0.970  0.00  0.00    -0.036 A 
ATOM     28  C   UNL     1      -3.381  -1.653   0.889  0.00  0.00    +0.004 A 
ATOM     29  C   UNL     1      -4.226  -1.774   1.976  0.00  0.00    +0.000 A 
ATOM     30  C   UNL     1      -3.949  -1.091   3.146  0.00  0.00    +0.000 A 
ATOM     31  C   UNL     1      -2.827  -0.287   3.228  0.00  0.00    +0.000 A 
ATOM     32  C   UNL     1      -1.980  -0.170   2.142  0.00  0.00    +0.004 A 
ENDBRANCH  26  27
BRANCH  26  34
ATOM     33  C   UNL     1       0.256  -1.942  -1.698  0.00  0.00    +0.005 C 
ATOM     34  C   UNL     1      -0.786  -2.094  -0.588  0.00  0.00    +0.014 C 
ENDBRANCH  26  34
ENDBRANCH   1  26
TORSDOF 6
