REMARK  Name = ZINC33810539
REMARK  7 active torsions:
REMARK  status: ('A' for Active; 'I' for Inactive)
REMARK    1  A    between atoms: C_1  and  C_2
REMARK    2  A    between atoms: C_2  and  C_3
REMARK    3  A    between atoms: C_3  and  S_4
REMARK    4  A    between atoms: S_4  and  C_5
REMARK    5  A    between atoms: C_12  and  C_24
REMARK    6  A    between atoms: C_18  and  C_22
REMARK    7  A    between atoms: C_18  and  C_23
REMARK                            x       y       z     vdW  Elec       q    Type
REMARK                         _______ _______ _______ _____ _____    ______ ____
ROOT
ATOM      1  C   UNL     1      -1.072  -2.078   0.388  0.00  0.00    +0.171 A 
ATOM      2  N   UNL     1      -1.100  -0.716   0.396  0.00  0.00    -0.208 NA
ATOM      3  C   UNL     1       0.002  -0.004   0.002  0.00  0.00    +0.135 A 
ATOM      4  C   UNL     1       1.118  -0.671  -0.398  0.00  0.00    +0.069 A 
ATOM      5  C   UNL     1       1.107  -2.083  -0.389  0.00  0.00    +0.258 A 
ATOM      6  O   UNL     1       2.098  -2.708  -0.738  0.00  0.00    -0.267 OA
ATOM      7  N   UNL     1       0.003  -2.735   0.006  0.00  0.00    -0.302 N 
ATOM      8  C   UNL     1       2.341   0.072  -0.848  0.00  0.00    +0.093 C 
ATOM      9  C   UNL     1       2.307   1.508  -0.391  0.00  0.00    +0.024 C 
ATOM     10  C   UNL     1       1.151   2.084   0.002  0.00  0.00    +0.017 C 
ATOM     11  N   UNL     1      -0.017   1.371   0.010  0.00  0.00    -0.302 N 
ATOM     12  C   UNL     1       1.112   3.528   0.440  0.00  0.00    +0.058 C 
ATOM     13  C   UNL     1       2.448   3.906   1.084  0.00  0.00    -0.023 C 
ATOM     14  C   UNL     1       3.565   3.663   0.063  0.00  0.00    +0.086 C 
ATOM     15  C   UNL     1       3.514   2.229  -0.386  0.00  0.00    +0.162 C 
ATOM     16  O   UNL     1       4.536   1.683  -0.753  0.00  0.00    -0.292 OA
ATOM     17  C   UNL     1       2.686   3.040   2.322  0.00  0.00    +0.011 C 
ATOM     18  C   UNL     1       2.427   5.384   1.481  0.00  0.00    +0.011 C 
ATOM     19  H   UNL     1      -0.977   1.908   0.022  0.00  0.00    +0.153 HD
ATOM     20  H   UNL     1       0.005  -3.835   0.008  0.00  0.00    +0.171 HD
ENDROOT
BRANCH   8  21
ATOM     21  C   UNL     1       2.416   0.034  -2.353  0.00  0.00    -0.032 A 
ATOM     22  C   UNL     1       1.390   0.570  -3.108  0.00  0.00    +0.008 A 
ATOM     23  C   UNL     1       1.458   0.542  -4.489  0.00  0.00    +0.050 A 
ATOM     24  C   UNL     1       2.549  -0.034  -5.119  0.00  0.00    +0.166 A 
ATOM     25  C   UNL     1       3.580  -0.579  -4.357  0.00  0.00    +0.167 A 
ATOM     26  C   UNL     1       3.509  -0.542  -2.974  0.00  0.00    +0.054 A 
ATOM     27  O   UNL     1       4.528  -1.079  -5.202  0.00  0.00    -0.453 OA
ATOM     28  C   UNL     1       3.878  -1.201  -6.481  0.00  0.00    +0.466 C 
ATOM     29  O   UNL     1       2.851  -0.193  -6.440  0.00  0.00    -0.453 OA
ENDBRANCH   8  21
BRANCH   1  30
ATOM     30  S   UNL     1      -2.500  -2.976   0.897  0.00  0.00    -0.088 S 
BRANCH  30  31
ATOM     31  C   UNL     1      -1.898  -4.670   0.685  0.00  0.00    +0.077 C 
BRANCH  31  33
ATOM     32  C   UNL     1      -2.491  -7.088   0.899  0.00  0.00    +0.004 C 
ATOM     33  C   UNL     1      -3.000  -5.656   1.079  0.00  0.00    +0.008 C 
ENDBRANCH  31  33
ENDBRANCH  30  31
ENDBRANCH   1  30
TORSDOF 4
