REMARK  Name = ZINC02744983
REMARK  4 active torsions:
REMARK  status: ('A' for Active; 'I' for Inactive)
REMARK    1  A    between atoms: C_1  and  C_2
REMARK    2  A    between atoms: N_12  and  S_13
REMARK    3  A    between atoms: S_13  and  C_16
REMARK    4  A    between atoms: C_19  and  N_22
REMARK                            x       y       z     vdW  Elec       q    Type
REMARK                         _______ _______ _______ _____ _____    ______ ____
ROOT
ATOM      1  C   UNL     1       3.824  -0.357  -0.306  0.00  0.00    +0.030 C 
ATOM      2  C   UNL     1       2.480   0.173   0.200  0.00  0.00    +0.095 C 
ATOM      3  C   UNL     1       1.333  -0.587  -0.479  0.00  0.00    +0.029 C 
ATOM      4  C   UNL     1       0.005  -0.090   0.093  0.00  0.00    +0.039 C 
ATOM      5  C   UNL     1      -0.067   1.413   0.031  0.00  0.00    -0.022 A 
ATOM      6  C   UNL     1      -1.307   2.026   0.094  0.00  0.00    +0.043 A 
ATOM      7  C   UNL     1      -1.406   3.405   0.038  0.00  0.00    +0.124 A 
ATOM      8  C   UNL     1      -0.264   4.180  -0.071  0.00  0.00    +0.040 A 
ATOM      9  C   UNL     1       0.975   3.574  -0.130  0.00  0.00    +0.028 A 
ATOM     10  C   UNL     1       1.076   2.188  -0.080  0.00  0.00    +0.055 A 
ATOM     11  N   UNL     1       2.343   1.595  -0.146  0.00  0.00    -0.200 N 
ATOM     12  F   UNL     1      -2.620   3.996   0.094  0.00  0.00    -0.205 F 
ENDROOT
BRANCH  11  13
ATOM     13  S   UNL     1       3.665   2.481  -0.606  0.00  0.00    +0.075 S 
ATOM     14  O   UNL     1       4.605   1.559  -1.140  0.00  0.00    -0.150 OA
ATOM     15  O   UNL     1       3.173   3.585  -1.353  0.00  0.00    -0.150 OA
BRANCH  13  16
ATOM     16  C   UNL     1       4.384   3.143   0.859  0.00  0.00    +0.109 A 
ATOM     17  C   UNL     1       3.982   4.379   1.329  0.00  0.00    +0.031 A 
ATOM     18  C   UNL     1       4.543   4.897   2.481  0.00  0.00    +0.034 A 
ATOM     19  C   UNL     1       5.513   4.182   3.159  0.00  0.00    +0.126 A 
ATOM     20  C   UNL     1       5.920   2.948   2.686  0.00  0.00    +0.034 A 
ATOM     21  C   UNL     1       5.355   2.429   1.536  0.00  0.00    +0.031 A 
BRANCH  19  22
ATOM     22  N   UNL     1       6.118   4.739   4.390  0.00  0.00    +0.056 N 
ATOM     23  O   UNL     1       6.973   4.109   4.987  0.00  0.00    -0.126 OA
ATOM     24  O   UNL     1       5.760   5.826   4.807  0.00  0.00    -0.126 OA
ENDBRANCH  19  22
ENDBRANCH  13  16
ENDBRANCH  11  13
TORSDOF 3
