REMARK  Name = ZINC35287968
REMARK  8 active torsions:
REMARK  status: ('A' for Active; 'I' for Inactive)
REMARK    1  A    between atoms: C_1  and  C_2
REMARK    2  A    between atoms: C_2  and  C_3
REMARK    3  A    between atoms: C_6  and  C_10
REMARK    4  A    between atoms: C_13  and  O_16
REMARK    5  A    between atoms: O_16  and  C_17
REMARK    6  A    between atoms: C_17  and  C_18
REMARK    7  A    between atoms: C_20  and  C_25
REMARK    8  A    between atoms: C_23  and  C_24
REMARK                            x       y       z     vdW  Elec       q    Type
REMARK                         _______ _______ _______ _____ _____    ______ ____
ROOT
ATOM      1  C   UNL     1       2.722  -1.845  -4.646  0.00  0.00    +0.018 A 
ATOM      2  C   UNL     1       2.041  -1.985  -5.858  0.00  0.00    +0.015 A 
ATOM      3  C   UNL     1       2.712  -2.432  -6.975  0.00  0.00    +0.046 A 
ATOM      4  C   UNL     1       4.064  -2.743  -6.898  0.00  0.00    +0.121 A 
ATOM      5  C   UNL     1       4.745  -2.605  -5.694  0.00  0.00    +0.046 A 
ATOM      6  C   UNL     1       4.083  -2.154  -4.574  0.00  0.00    +0.015 A 
ENDROOT
BRANCH   1  10
ATOM      7  C   UNL     1       0.707  -0.490  -1.238  0.00  0.00    +0.083 A 
ATOM      8  C   UNL     1       0.011  -0.632  -2.447  0.00  0.00    +0.259 A 
ATOM      9  N   UNL     1       0.679  -1.070  -3.535  0.00  0.00    -0.307 N 
ATOM     10  C   UNL     1       2.007  -1.367  -3.447  0.00  0.00    +0.145 A 
ATOM     11  N   UNL     1       2.664  -1.235  -2.314  0.00  0.00    -0.191 NA
ATOM     12  C   UNL     1       2.056  -0.799  -1.206  0.00  0.00    +0.280 A 
ATOM     13  O   UNL     1       2.756  -0.667  -0.055  0.00  0.00    -0.265 OA
ATOM     14  O   UNL     1      -1.178  -0.364  -2.514  0.00  0.00    -0.267 OA
ATOM     15  H   UNL     1       0.214  -1.174  -4.379  0.00  0.00    +0.170 HD
BRANCH   7  17
ATOM     16  C   UNL     1      -0.019   1.526   0.010  0.00  0.00    +0.009 C 
ATOM     17  C   UNL     1       0.002  -0.004   0.002  0.00  0.00    +0.043 C 
ENDBRANCH   7  17
ENDBRANCH   1  10
BRANCH   4  18
ATOM     18  O   UNL     1       4.721  -3.183  -8.001  0.00  0.00    -0.487 OA
BRANCH  18  19
ATOM     19  C   UNL     1       6.110  -3.485  -7.851  0.00  0.00    +0.264 C 
BRANCH  19  20
ATOM     20  C   UNL     1       6.667  -3.956  -9.170  0.00  0.00    -0.007 A 
ATOM     21  C   UNL     1       5.846  -4.030 -10.280  0.00  0.00    +0.010 A 
ATOM     22  C   UNL     1       6.357  -4.462 -11.489  0.00  0.00    -0.050 A 
ATOM     23  C   UNL     1       7.689  -4.819 -11.589  0.00  0.00    +0.003 A 
ATOM     24  C   UNL     1       8.509  -4.744 -10.480  0.00  0.00    +0.004 A 
ATOM     25  C   UNL     1       8.000  -4.308  -9.271  0.00  0.00    -0.044 A 
ATOM     26  C   UNL     1       8.896  -4.221  -8.062  0.00  0.00    +0.044 C 
ATOM     27  C   UNL     1       5.462  -4.544 -12.699  0.00  0.00    +0.044 C 
ENDBRANCH  19  20
ENDBRANCH  18  19
ENDBRANCH   4  18
TORSDOF 5
