REMARK  Name = ZINC32883502
REMARK  11 active torsions:
REMARK  status: ('A' for Active; 'I' for Inactive)
REMARK    1  A    between atoms: C_1  and  C_2
REMARK    2  A    between atoms: C_2  and  C_3
REMARK    3  A    between atoms: C_3  and  N_4
REMARK    4  A    between atoms: C_8  and  S_29
REMARK    5  A    between atoms: C_12  and  S_13
REMARK    6  A    between atoms: S_13  and  C_14
REMARK    7  A    between atoms: C_14  and  C_16
REMARK    8  A    between atoms: C_14  and  C_17
REMARK    9  A    between atoms: C_21  and  C_28
REMARK   10  A    between atoms: C_24  and  C_27
REMARK   11  A    between atoms: S_29  and  N_32
REMARK                            x       y       z     vdW  Elec       q    Type
REMARK                         _______ _______ _______ _____ _____    ______ ____
ROOT
ATOM      1  N   UNL     1      -1.382  -1.997   0.004  0.00  0.00    -0.319 N 
ATOM      2  C   UNL     1      -1.378  -2.813  -1.116  0.00  0.00    +0.070 A 
ATOM      3  C   UNL     1      -1.381  -2.571  -2.481  0.00  0.00    +0.030 A 
ATOM      4  C   UNL     1      -1.375  -3.629  -3.366  0.00  0.00    +0.030 A 
ATOM      5  C   UNL     1      -1.367  -4.936  -2.899  0.00  0.00    +0.107 A 
ATOM      6  C   UNL     1      -1.365  -5.194  -1.547  0.00  0.00    +0.058 A 
ATOM      7  C   UNL     1      -1.370  -4.133  -0.637  0.00  0.00    +0.092 A 
ATOM      8  N   UNL     1      -1.369  -4.068   0.720  0.00  0.00    -0.222 NA
ATOM      9  C   UNL     1      -1.371  -2.813   1.100  0.00  0.00    +0.171 A 
ENDROOT
BRANCH   5  10
ATOM     10  S   UNL     1      -1.360  -6.274  -4.045  0.00  0.00    +0.056 S 
ATOM     11  O   UNL     1      -1.904  -7.395  -3.363  0.00  0.00    -0.153 OA
ATOM     12  O   UNL     1      -1.915  -5.775  -5.255  0.00  0.00    -0.153 OA
BRANCH  10  13
ATOM     13  N   UNL     1       0.224  -6.637  -4.365  0.00  0.00    -0.204 NA
ATOM     14  H   UNL     1       0.933  -6.132  -3.937  0.00  0.00    +0.144 HD
ATOM     15  H   UNL     1       0.442  -7.354  -4.981  0.00  0.00    +0.144 HD
ENDBRANCH  10  13
ENDBRANCH   5  10
BRANCH   1  16
ATOM     16  C   UNL     1      -1.391  -0.532   0.012  0.00  0.00    +0.124 C 
BRANCH  16  18
ATOM     17  C   UNL     1       0.039   1.516   0.015  0.00  0.00    +0.005 C 
ATOM     18  C   UNL     1       0.048  -0.013   0.007  0.00  0.00    +0.018 C 
ENDBRANCH  16  18
ENDBRANCH   1  16
BRANCH   9  19
ATOM     19  S   UNL     1      -1.364  -2.262   2.773  0.00  0.00    -0.075 S 
BRANCH  19  20
ATOM     20  C   UNL     1      -1.349  -3.797   3.741  0.00  0.00    +0.137 C 
ATOM     21  C   UNL     1      -2.653  -4.561   3.505  0.00  0.00    +0.029 C 
BRANCH  20  22
ATOM     22  C   UNL     1      -1.218  -3.466   5.205  0.00  0.00    +0.229 C 
ATOM     23  O   UNL     1      -1.511  -2.360   5.605  0.00  0.00    -0.274 OA
ATOM     24  N   UNL     1      -0.776  -4.401   6.070  0.00  0.00    -0.300 N 
ATOM     25  C   UNL     1      -0.749  -4.131   7.514  0.00  0.00    +0.111 C 
ATOM     26  C   UNL     1      -1.505  -5.249   8.238  0.00  0.00    +0.004 C 
ATOM     27  C   UNL     1      -0.910  -6.602   7.840  0.00  0.00    +0.009 C 
ATOM     28  C   UNL     1      -1.072  -6.808   6.333  0.00  0.00    +0.004 C 
ATOM     29  C   UNL     1      -0.317  -5.710   5.587  0.00  0.00    +0.111 C 
ATOM     30  C   UNL     1      -0.508  -8.176   5.941  0.00  0.00    +0.009 C 
ATOM     31  C   UNL     1      -1.373  -5.058   9.751  0.00  0.00    +0.009 C 
ENDBRANCH  20  22
ENDBRANCH  19  20
ENDBRANCH   9  19
TORSDOF 7
