REMARK  Name = ZINC42269923
REMARK  6 active torsions:
REMARK  status: ('A' for Active; 'I' for Inactive)
REMARK    1  A    between atoms: C_1  and  C_2
REMARK    2  A    between atoms: C_8  and  N_10
REMARK    3  A    between atoms: N_10  and  C_11
REMARK    4  A    between atoms: N_10  and  S_12
REMARK    5  A    between atoms: S_12  and  C_15
REMARK    6  A    between atoms: C_20  and  N_21
REMARK                            x       y       z     vdW  Elec       q    Type
REMARK                         _______ _______ _______ _____ _____    ______ ____
ROOT
ATOM      1  S   UNL     1       1.113   1.004   3.371  0.00  0.00    +0.063 S 
ATOM      2  O   UNL     1       1.935   1.706   2.449  0.00  0.00    -0.153 OA
ATOM      3  O   UNL     1       0.209   1.668   4.244  0.00  0.00    -0.153 OA
ENDROOT
BRANCH   1   4
ATOM      4  C   UNL     1       2.193   0.057   4.390  0.00  0.00    +0.127 A 
ATOM      5  C   UNL     1       3.558   0.098   4.177  0.00  0.00    +0.050 A 
ATOM      6  C   UNL     1       4.407  -0.646   4.978  0.00  0.00    +0.043 A 
ATOM      7  C   UNL     1       3.892  -1.433   5.993  0.00  0.00    +0.022 A 
ATOM      8  C   UNL     1       2.529  -1.479   6.210  0.00  0.00    +0.026 A 
ATOM      9  C   UNL     1       1.675  -0.728   5.412  0.00  0.00    +0.051 A 
ATOM     10 CL   UNL     1       6.121  -0.592   4.707  0.00  0.00    -0.083 Cl
BRANCH   9  11
ATOM     11  N   UNL     1       0.296  -0.767   5.633  0.00  0.00    -0.356 N 
ATOM     12  H   UNL     1      -0.305  -0.299   5.033  0.00  0.00    +0.142 HD
ATOM     13  H   UNL     1      -0.061  -1.263   6.387  0.00  0.00    +0.142 HD
ENDBRANCH   9  11
ENDBRANCH   1   4
BRANCH   1  14
ATOM     14  N   UNL     1       0.213  -0.066   2.483  0.00  0.00    -0.176 NA
ATOM     15  C   UNL     1      -1.128  -0.446   2.935  0.00  0.00    +0.132 C 
BRANCH  14  22
ATOM     16  C   UNL     1      -0.046   1.365  -0.021  0.00  0.00    +0.009 C 
ATOM     17  C   UNL     1      -0.083  -0.162   0.058  0.00  0.00    +0.005 C 
ATOM     18  C   UNL     1       0.486  -0.753  -1.234  0.00  0.00    +0.005 C 
ATOM     19  C   UNL     1       0.450  -2.281  -1.155  0.00  0.00    +0.000 C 
ATOM     20  C   UNL     1       1.290  -2.750   0.035  0.00  0.00    +0.002 C 
ATOM     21  C   UNL     1       0.721  -2.159   1.326  0.00  0.00    +0.021 C 
ATOM     22  C   UNL     1       0.758  -0.631   1.247  0.00  0.00    +0.082 C 
ENDBRANCH  14  22
ENDBRANCH   1  14
TORSDOF 4
