REMARK  Name = ZINC02126026
REMARK  8 active torsions:
REMARK  status: ('A' for Active; 'I' for Inactive)
REMARK    1  A    between atoms: C_1  and  C_2
REMARK    2  A    between atoms: C_2  and  C_3
REMARK    3  A    between atoms: C_9  and  C_26
REMARK    4  A    between atoms: C_9  and  C_27
REMARK    5  A    between atoms: C_10  and  C_16
REMARK    6  A    between atoms: C_17  and  C_18
REMARK    7  A    between atoms: C_21  and  O_24
REMARK    8  A    between atoms: O_24  and  C_25
REMARK                            x       y       z     vdW  Elec       q    Type
REMARK                         _______ _______ _______ _____ _____    ______ ____
ROOT
ATOM      1  C   UNL     1       6.356  -3.054   4.024  0.00  0.00    -0.047 A 
ATOM      2  C   UNL     1       5.754  -4.021   3.239  0.00  0.00    +0.005 A 
ATOM      3  C   UNL     1       5.593  -3.815   1.885  0.00  0.00    +0.024 A 
ATOM      4  C   UNL     1       6.034  -2.630   1.298  0.00  0.00    +0.036 A 
ATOM      5  C   UNL     1       6.629  -1.662   2.097  0.00  0.00    -0.016 A 
ATOM      6  C   UNL     1       6.793  -1.874   3.450  0.00  0.00    +0.009 A 
ATOM      7  C   UNL     1       6.985  -0.481   1.215  0.00  0.00    +0.034 C 
ATOM      8  C   UNL     1       6.148  -0.737  -0.058  0.00  0.00    +0.131 C 
ATOM      9  N   UNL     1       5.982  -2.216  -0.039  0.00  0.00    -0.296 N 
ATOM     10  C   UNL     1       7.181  -2.697  -0.765  0.00  0.00    +0.203 C 
ATOM     11  C   UNL     1       7.572  -1.554  -1.673  0.00  0.00    +0.232 C 
ATOM     12  O   UNL     1       8.315  -1.631  -2.630  0.00  0.00    -0.274 OA
ATOM     13  N   UNL     1       6.946  -0.433  -1.250  0.00  0.00    -0.289 N 
ATOM     14  C   UNL     1       6.573   0.834   1.879  0.00  0.00    +0.020 C 
ATOM     15  C   UNL     1       8.480  -0.480   0.889  0.00  0.00    +0.020 C 
ATOM     16  H   UNL     1       7.024   0.443  -1.661  0.00  0.00    +0.151 HD
ENDROOT
BRANCH   1  18
ATOM     17  C   UNL     1       7.884  -3.963   5.752  0.00  0.00    +0.009 C 
ATOM     18  C   UNL     1       6.535  -3.286   5.502  0.00  0.00    +0.032 C 
ENDBRANCH   1  18
BRANCH   8  19
ATOM     19  C   UNL     1       4.832  -0.004  -0.043  0.00  0.00    +0.020 C 
ATOM     20  C   UNL     1       3.694  -0.684  -0.035  0.00  0.00    +0.007 C 
BRANCH  20  21
ATOM     21  C   UNL     1       2.403   0.035  -0.020  0.00  0.00    -0.025 A 
ATOM     22  C   UNL     1       1.204  -0.679  -0.013  0.00  0.00    +0.011 A 
ATOM     23  C   UNL     1       0.002  -0.004   0.002  0.00  0.00    +0.046 A 
ATOM     24  C   UNL     1      -0.017   1.384   0.010  0.00  0.00    +0.120 A 
ATOM     25  C   UNL     1       1.174   2.099   0.002  0.00  0.00    +0.046 A 
ATOM     26  C   UNL     1       2.380   1.431  -0.013  0.00  0.00    +0.011 A 
BRANCH  24  27
ATOM     27  O   UNL     1      -1.204   2.046   0.019  0.00  0.00    -0.495 OA
ATOM     28  C   UNL     1      -1.150   3.474   0.026  0.00  0.00    +0.277 C 
ENDBRANCH  24  27
ENDBRANCH  20  21
ENDBRANCH   8  19
TORSDOF 4
