REMARK  Name = ZINC22312337
REMARK  7 active torsions:
REMARK  status: ('A' for Active; 'I' for Inactive)
REMARK    1  A    between atoms: C_1  and  C_2
REMARK    2  A    between atoms: C_2  and  O_3
REMARK    3  A    between atoms: O_3  and  C_4
REMARK    4  A    between atoms: C_5  and  N_12
REMARK    5  A    between atoms: C_13  and  C_15
REMARK    6  A    between atoms: C_15  and  N_16
REMARK    7  A    between atoms: C_24  and  C_26
REMARK                            x       y       z     vdW  Elec       q    Type
REMARK                         _______ _______ _______ _____ _____    ______ ____
ROOT
ATOM      1  N   UNL     1      -1.528  -0.808   2.389  0.00  0.00    -0.281 N 
ATOM      2  C   UNL     1      -1.853  -1.995   2.937  0.00  0.00    +0.235 C 
ATOM      3  O   UNL     1      -1.377  -2.322   4.004  0.00  0.00    -0.274 OA
ATOM      4  H   UNL     1      -2.014  -0.479   1.459  0.00  0.00    +0.155 HD
ENDROOT
BRANCH   1   6
ATOM      5  C   UNL     1       0.290   0.784   2.229  0.00  0.00    +0.156 A 
ATOM      6  C   UNL     1      -0.570   0.009   3.005  0.00  0.00    +0.078 A 
ATOM      7  C   UNL     1      -0.472   0.044   4.388  0.00  0.00    +0.047 A 
ATOM      8  C   UNL     1       0.470   0.855   4.994  0.00  0.00    +0.044 A 
ATOM      9  C   UNL     1       1.320   1.629   4.223  0.00  0.00    +0.039 A 
ATOM     10  C   UNL     1       1.231   1.594   2.843  0.00  0.00    +0.063 A 
ATOM     11 BR   UNL     1       2.395   2.653   1.794  0.00  0.00    -0.046 Br
ATOM     12 CL   UNL     1       0.587   0.904   6.726  0.00  0.00    -0.083 Cl
BRANCH   5  13
ATOM     13  O   UNL     1       0.201   0.749   0.873  0.00  0.00    -0.489 OA
BRANCH  13  15
ATOM     14  C   UNL     1       0.769  -0.111  -1.313  0.00  0.00    +0.048 C 
ATOM     15  C   UNL     1       1.001  -0.222   0.195  0.00  0.00    +0.226 C 
ENDBRANCH  13  15
ENDBRANCH   5  13
ENDBRANCH   1   6
BRANCH   2  16
ATOM     16  C   UNL     1      -2.807  -2.918   2.224  0.00  0.00    +0.214 C 
BRANCH  16  17
ATOM     17  N   UNL     1      -2.996  -4.134   3.018  0.00  0.00    -0.215 N 
ATOM     18  C   UNL     1      -2.240  -5.245   2.897  0.00  0.00    +0.247 C 
ATOM     19  O   UNL     1      -1.309  -5.419   2.139  0.00  0.00    -0.273 OA
ATOM     20  C   UNL     1      -2.794  -6.223   3.905  0.00  0.00    +0.115 C 
ATOM     21  C   UNL     1      -1.736  -6.583   4.943  0.00  0.00    +0.035 C 
ATOM     22  C   UNL     1      -0.575  -7.310   4.260  0.00  0.00    +0.003 C 
ATOM     23  C   UNL     1      -1.097  -8.577   3.580  0.00  0.00    +0.000 C 
ATOM     24  C   UNL     1      -2.139  -8.198   2.525  0.00  0.00    +0.006 C 
ATOM     25  C   UNL     1      -3.307  -7.475   3.201  0.00  0.00    +0.018 C 
ATOM     26  C   UNL     1      -4.340  -7.078   2.144  0.00  0.00    +0.010 C 
ATOM     27  N   UNL     1      -3.905  -5.497   4.535  0.00  0.00    -0.285 N 
ATOM     28  C   UNL     1      -3.945  -4.284   3.950  0.00  0.00    +0.310 C 
ATOM     29  O   UNL     1      -4.753  -3.422   4.237  0.00  0.00    -0.252 OA
ATOM     30  H   UNL     1      -4.503  -5.980   5.321  0.00  0.00    +0.151 HD
ENDBRANCH  16  17
ENDBRANCH   2  16
TORSDOF 5
