REMARK  Name = ZINC36741006
REMARK  9 active torsions:
REMARK  status: ('A' for Active; 'I' for Inactive)
REMARK    1  A    between atoms: C_1  and  C_2
REMARK    2  A    between atoms: C_4  and  C_35
REMARK    3  A    between atoms: C_8  and  C_11
REMARK    4  A    between atoms: N_13  and  C_14
REMARK    5  A    between atoms: C_14  and  C_15
REMARK    6  A    between atoms: C_15  and  C_17
REMARK    7  A    between atoms: C_15  and  C_25
REMARK    8  A    between atoms: C_20  and  O_23
REMARK    9  A    between atoms: O_23  and  C_24
REMARK                            x       y       z     vdW  Elec       q    Type
REMARK                         _______ _______ _______ _____ _____    ______ ____
ROOT
ATOM      1  C   UNL     1       6.842  -4.542  -0.055  0.00  0.00    +0.068 C 
ENDROOT
BRANCH   1   2
ATOM      2  C   UNL     1       6.607  -5.294   1.229  0.00  0.00    -0.013 A 
ATOM      3  C   UNL     1       6.862  -4.852   2.471  0.00  0.00    +0.088 A 
ATOM      4  N   UNL     1       6.520  -5.810   3.386  0.00  0.00    -0.360 N 
ATOM      5  H   UNL     1       6.614  -5.720   4.348  0.00  0.00    +0.165 HD
ATOM      6  C   UNL     1       6.024  -6.920   2.740  0.00  0.00    +0.047 A 
ATOM      7  C   UNL     1       6.051  -6.643   1.360  0.00  0.00    +0.003 A 
ATOM      8  C   UNL     1       5.596  -7.597   0.449  0.00  0.00    +0.010 A 
ATOM      9  C   UNL     1       5.123  -8.796   0.903  0.00  0.00    +0.001 A 
ATOM     10  C   UNL     1       5.091  -9.073   2.262  0.00  0.00    +0.002 A 
ATOM     11  C   UNL     1       5.544  -8.149   3.179  0.00  0.00    +0.026 A 
ENDBRANCH   1   2
BRANCH   1  12
ATOM     12  C   UNL     1       8.307  -4.214  -0.184  0.00  0.00    -0.038 A 
ATOM     13  C   UNL     1       8.929  -3.441   0.779  0.00  0.00    +0.008 A 
ATOM     14  C   UNL     1      10.272  -3.139   0.663  0.00  0.00    +0.046 A 
ATOM     15  C   UNL     1      10.997  -3.611  -0.422  0.00  0.00    +0.120 A 
ATOM     16  C   UNL     1      10.371  -4.386  -1.387  0.00  0.00    +0.046 A 
ATOM     17  C   UNL     1       9.029  -4.690  -1.264  0.00  0.00    +0.008 A 
BRANCH  15  18
ATOM     18  O   UNL     1      12.318  -3.314  -0.538  0.00  0.00    -0.495 OA
ATOM     19  C   UNL     1      13.001  -3.833  -1.681  0.00  0.00    +0.277 C 
ENDBRANCH  15  18
ENDBRANCH   1  12
BRANCH   1  20
ATOM     20  C   UNL     1       6.028  -3.246  -0.044  0.00  0.00    +0.117 C 
BRANCH  20  23
ATOM     21  C   UNL     1       3.686  -2.577  -0.030  0.00  0.00    +0.249 C 
ATOM     22  O   UNL     1       4.048  -1.415  -0.025  0.00  0.00    -0.270 OA
ATOM     23  N   UNL     1       4.599  -3.568  -0.039  0.00  0.00    -0.310 N 
ATOM     24  H   UNL     1       4.310  -4.494  -0.043  0.00  0.00    +0.149 HD
BRANCH  21  32
ATOM     25  C   UNL     1      -0.018   1.503   0.010  0.00  0.00    +0.066 C 
ATOM     26  C   UNL     1       0.002  -0.004   0.002  0.00  0.00    +0.042 A 
ATOM     27  C   UNL     1      -1.201  -0.719   0.004  0.00  0.00    +0.046 A 
ATOM     28  C   UNL     1      -1.169  -2.076  -0.004  0.00  0.00    +0.044 A 
ATOM     29  N   UNL     1       0.037  -2.712  -0.013  0.00  0.00    -0.218 N 
ATOM     30  C   UNL     1       1.190  -1.978  -0.014  0.00  0.00    +0.168 A 
ATOM     31  N   UNL     1       1.150  -0.645  -0.012  0.00  0.00    -0.232 NA
ATOM     32  C   UNL     1       2.255  -2.898  -0.025  0.00  0.00    +0.100 A 
ATOM     33  C   UNL     1       1.686  -4.184  -0.029  0.00  0.00    +0.150 A 
ATOM     34  N   UNL     1       0.385  -4.067  -0.022  0.00  0.00    -0.172 NA
ATOM     35  C   UNL     1      -2.450  -2.870  -0.001  0.00  0.00    +0.066 C 
ENDBRANCH  21  32
ENDBRANCH  20  23
ENDBRANCH   1  20
TORSDOF 6
