REMARK  Name = ZINC02224515
REMARK  7 active torsions:
REMARK  status: ('A' for Active; 'I' for Inactive)
REMARK    1  A    between atoms: C_1  and  C_2
REMARK    2  A    between atoms: C_2  and  C_4
REMARK    3  A    between atoms: C_4  and  N_5
REMARK    4  A    between atoms: C_14  and  S_15
REMARK    5  A    between atoms: S_15  and  C_16
REMARK    6  A    between atoms: C_16  and  C_17
REMARK    7  A    between atoms: C_17  and  C_19
REMARK                            x       y       z     vdW  Elec       q    Type
REMARK                         _______ _______ _______ _____ _____    ______ ____
ROOT
ATOM      1  N   UNL     1      -1.267  -1.042  -2.018  0.00  0.00    -0.283 N 
ATOM      2  C   UNL     1      -1.910  -2.199  -1.738  0.00  0.00    +0.264 A 
ATOM      3  O   UNL     1      -1.420  -3.054  -1.021  0.00  0.00    -0.267 OA
ATOM      4  C   UNL     1      -3.206  -2.360  -2.338  0.00  0.00    +0.076 A 
ATOM      5  C   UNL     1      -4.054  -3.469  -2.204  0.00  0.00    -0.018 A 
ATOM      6  C   UNL     1      -5.262  -3.413  -2.856  0.00  0.00    +0.026 A 
ATOM      7  S   UNL     1      -5.259  -1.854  -3.689  0.00  0.00    -0.068 S 
ATOM      8  C   UNL     1      -3.671  -1.294  -3.150  0.00  0.00    +0.117 A 
ATOM      9  N   UNL     1      -2.989  -0.182  -3.381  0.00  0.00    -0.216 NA
ATOM     10  C   UNL     1      -1.797  -0.069  -2.809  0.00  0.00    +0.173 A 
ATOM     11  C   UNL     1      -6.270  -4.469  -2.796  0.00  0.00    -0.008 A 
ATOM     12  C   UNL     1      -7.348  -4.537  -3.670  0.00  0.00    +0.009 A 
ATOM     13  C   UNL     1      -8.243  -5.585  -3.571  0.00  0.00    +0.001 A 
ATOM     14  C   UNL     1      -8.063  -6.560  -2.606  0.00  0.00    +0.000 A 
ATOM     15  C   UNL     1      -6.999  -6.490  -1.724  0.00  0.00    +0.004 A 
ATOM     16  C   UNL     1      -6.105  -5.443  -1.799  0.00  0.00    -0.039 A 
ATOM     17  C   UNL     1      -4.989  -5.312  -0.801  0.00  0.00    +0.040 C 
ATOM     18  C   UNL     1      -3.720  -4.725  -1.406  0.00  0.00    +0.042 C 
ENDROOT
BRANCH   1  19
ATOM     19  C   UNL     1       0.060  -0.824  -1.436  0.00  0.00    +0.157 C 
BRANCH  19  21
ATOM     20  C   UNL     1      -0.205   1.352  -0.019  0.00  0.00    +0.040 C 
ATOM     21  C   UNL     1      -0.083  -0.148  -0.097  0.00  0.00    -0.060 C 
ATOM     22  C   UNL     1      -0.102  -0.864   1.000  0.00  0.00    +0.009 C 
ENDBRANCH  19  21
ENDBRANCH   1  19
BRANCH  10  23
ATOM     23  S   UNL     1      -0.860   1.397  -3.090  0.00  0.00    -0.080 S 
BRANCH  23  24
ATOM     24  C   UNL     1      -1.920   2.394  -4.172  0.00  0.00    +0.152 C 
BRANCH  24  25
ATOM     25  C   UNL     1      -1.227   3.694  -4.494  0.00  0.00    +0.151 C 
ATOM     26  O   UNL     1      -0.132   3.923  -4.040  0.00  0.00    -0.296 OA
BRANCH  25  27
ATOM     27  C   UNL     1      -1.902   4.707  -5.382  0.00  0.00    +0.110 C 
ATOM     28  C   UNL     1      -0.855   5.624  -6.067  0.00  0.00    +0.135 C 
ATOM     29  C   UNL     1      -1.520   6.993  -5.961  0.00  0.00    +0.308 C 
ATOM     30  O   UNL     1      -1.515   7.881  -6.781  0.00  0.00    -0.251 OA
ATOM     31  O   UNL     1      -2.119   6.995  -4.744  0.00  0.00    -0.457 OA
ATOM     32  C   UNL     1      -2.727   5.706  -4.546  0.00  0.00    +0.123 C 
ATOM     33  C   UNL     1      -2.669   5.317  -3.071  0.00  0.00    +0.049 C 
ATOM     34  C   UNL     1      -3.485   6.316  -2.247  0.00  0.00    +0.004 C 
ATOM     35  C   UNL     1      -4.936   6.313  -2.733  0.00  0.00    +0.000 C 
ATOM     36  C   UNL     1      -4.983   6.719  -4.208  0.00  0.00    +0.004 C 
ATOM     37  C   UNL     1      -4.172   5.721  -5.037  0.00  0.00    +0.049 C 
ENDBRANCH  25  27
ENDBRANCH  24  25
ENDBRANCH  23  24
ENDBRANCH  10  23
TORSDOF 6
