REMARK  Name = ZINC16033416
REMARK  17 active torsions:
REMARK  status: ('A' for Active; 'I' for Inactive)
REMARK    1  A    between atoms: C_1  and  C_2
REMARK    2  A    between atoms: C_5  and  C_47
REMARK    3  A    between atoms: C_9  and  C_10
REMARK    4  A    between atoms: C_9  and  N_103
REMARK    5  A    between atoms: C_10  and  C_11
REMARK    6  A    between atoms: C_11  and  O_13
REMARK    7  A    between atoms: O_13  and  C_14
REMARK    8  A    between atoms: C_18  and  C_46
REMARK    9  A    between atoms: C_23  and  C_45
REMARK   10  A    between atoms: C_34  and  C_36
REMARK   11  A    between atoms: C_36  and  C_38
REMARK   12  A    between atoms: C_36  and  C_39
REMARK   13  A    between atoms: C_39  and  C_40
REMARK   14  A    between atoms: C_40  and  C_41
REMARK   15  A    between atoms: C_41  and  C_42
REMARK   16  A    between atoms: C_42  and  C_43
REMARK   17  A    between atoms: C_42  and  C_44
REMARK                            x       y       z     vdW  Elec       q    Type
REMARK                         _______ _______ _______ _____ _____    ______ ____
ROOT
ATOM      1  C   UNL     1       2.718   2.865  -3.264  0.00  0.00    +0.180 C 
ATOM      2  C   UNL     1       1.714   3.820  -3.898  0.00  0.00    +0.046 C 
ATOM      3  C   UNL     1       1.185   4.852  -2.908  0.00  0.00    +0.015 C 
ATOM      4  C   UNL     1       0.860   4.193  -1.558  0.00  0.00    -0.008 C 
ATOM      5  C   UNL     1      -0.400   4.809  -0.988  0.00  0.00    +0.003 C 
ATOM      6  C   UNL     1      -0.461   4.888   0.525  0.00  0.00    +0.005 C 
ATOM      7  C   UNL     1      -1.697   5.695   0.975  0.00  0.00    +0.007 C 
ATOM      8  C   UNL     1      -2.945   5.039   0.445  0.00  0.00    -0.026 C 
ATOM      9  C   UNL     1      -2.856   4.866  -1.083  0.00  0.00    -0.001 C 
ATOM     10  C   UNL     1      -1.653   4.111  -1.554  0.00  0.00    +0.000 C 
ATOM     11  C   UNL     1      -1.623   2.641  -1.153  0.00  0.00    +0.031 C 
ATOM     12  C   UNL     1      -0.343   2.027  -1.660  0.00  0.00    -0.027 C 
ATOM     13  C   UNL     1       0.747   2.710  -1.796  0.00  0.00    -0.064 C 
ATOM     14  C   UNL     1       2.017   1.988  -2.220  0.00  0.00    +0.075 C 
ATOM     15  C   UNL     1      -4.252   4.327  -1.414  0.00  0.00    +0.004 C 
ATOM     16  C   UNL     1      -5.168   5.205  -0.512  0.00  0.00    +0.004 C 
ATOM     17  C   UNL     1      -4.237   5.882   0.530  0.00  0.00    -0.002 C 
ATOM     18  C   UNL     1      -3.236   3.744   1.200  0.00  0.00    +0.012 C 
ATOM     19  C   UNL     1       2.039   4.452  -0.623  0.00  0.00    +0.016 C 
ENDROOT
BRANCH  17  20
ATOM     20  C   UNL     1      -4.832   5.773   1.930  0.00  0.00    -0.010 C 
ATOM     21  C   UNL     1      -3.874   6.404   2.943  0.00  0.00    +0.008 C 
BRANCH  20  22
ATOM     22  C   UNL     1      -6.175   6.506   1.973  0.00  0.00    +0.003 C 
BRANCH  22  23
ATOM     23  C   UNL     1      -6.830   6.291   3.339  0.00  0.00    +0.001 C 
BRANCH  23  24
ATOM     24  C   UNL     1      -8.172   7.024   3.381  0.00  0.00    +0.003 C 
BRANCH  24  25
ATOM     25  C   UNL     1      -8.827   6.810   4.747  0.00  0.00    -0.017 C 
ATOM     26  C   UNL     1      -7.972   7.468   5.832  0.00  0.00    +0.007 C 
ATOM     27  C   UNL     1     -10.223   7.437   4.747  0.00  0.00    +0.007 C 
ENDBRANCH  24  25
ENDBRANCH  23  24
ENDBRANCH  22  23
ENDBRANCH  20  22
ENDBRANCH  17  20
BRANCH   1  28
ATOM     28  O   UNL     1       3.289   2.013  -4.297  0.00  0.00    -0.461 OA
BRANCH  28  29
ATOM     29  C   UNL     1       4.545   1.581  -4.105  0.00  0.00    +0.306 C 
ATOM     30  O   UNL     1       5.148   1.901  -3.109  0.00  0.00    -0.251 OA
BRANCH  29  31
ATOM     31  C   UNL     1       5.202   0.695  -5.132  0.00  0.00    +0.102 C 
BRANCH  31  32
ATOM     32  C   UNL     1       6.619   0.347  -4.674  0.00  0.00    -0.068 C 
BRANCH  32  40
ATOM     33  C   UNL     1       7.387  -0.448  -9.466  0.00  0.00    +0.005 C 
ATOM     34  C   UNL     1       7.595  -0.997  -8.053  0.00  0.00    -0.031 C 
ATOM     35  C   UNL     1       9.090  -1.203  -7.800  0.00  0.00    +0.003 C 
ATOM     36  C   UNL     1       9.294  -1.695  -6.364  0.00  0.00    -0.031 C 
ATOM     37  C   UNL     1       8.691  -0.678  -5.392  0.00  0.00    -0.076 C 
ATOM     38  C   UNL     1       7.042   0.000  -7.032  0.00  0.00    -0.076 C 
ATOM     39  C   UNL     1      10.790  -1.846  -6.083  0.00  0.00    +0.005 C 
ATOM     40  N   UNL     1       7.246  -0.543  -5.672  0.00  0.00    +0.380 N 
ATOM     41  H   UNL     1       6.808  -1.470  -5.614  0.00  0.00    -0.082 HD
ENDBRANCH  32  40
ENDBRANCH  31  32
ENDBRANCH  29  31
ENDBRANCH  28  29
ENDBRANCH   1  28
TORSDOF 10
