REMARK  Name = ZINC37254942
REMARK  5 active torsions:
REMARK  status: ('A' for Active; 'I' for Inactive)
REMARK    1  A    between atoms: C_1  and  C_2
REMARK    2  A    between atoms: C_7  and  N_10
REMARK    3  A    between atoms: N_10  and  S_11
REMARK    4  A    between atoms: S_11  and  C_14
REMARK    5  A    between atoms: C_17  and  C_19
REMARK                            x       y       z     vdW  Elec       q    Type
REMARK                         _______ _______ _______ _____ _____    ______ ____
ROOT
ATOM      1  S   UNL     1      -0.974  -3.941   2.062  0.00  0.00    +0.092 S 
ATOM      2  O   UNL     1      -2.371  -4.151   1.908  0.00  0.00    -0.150 OA
ATOM      3  O   UNL     1      -0.010  -4.907   1.666  0.00  0.00    -0.150 OA
ENDROOT
BRANCH   1   4
ATOM      4  C   UNL     1      -0.698  -3.626   3.774  0.00  0.00    +0.258 A 
ATOM      5  C   UNL     1      -1.620  -3.157   4.644  0.00  0.00    +0.072 A 
ATOM      6  C   UNL     1      -0.995  -3.051   5.894  0.00  0.00    +0.059 A 
ATOM      7  C   UNL     1       0.306  -3.470   5.718  0.00  0.00    +0.218 A 
ATOM      8  O   UNL     1       0.456  -3.819   4.423  0.00  0.00    -0.430 OA
BRANCH   7   9
ATOM      9  C   UNL     1       1.338  -3.532   6.751  0.00  0.00    +0.421 C 
ATOM     10  O   UNL     1       1.077  -3.191   7.899  0.00  0.00    -0.237 OA
ATOM     11  O   UNL     1       2.464  -3.924   6.470  0.00  0.00    -0.237 OA
ENDBRANCH   7   9
ENDBRANCH   1   4
BRANCH   1  12
ATOM     12  N   UNL     1      -0.612  -2.548   1.244  0.00  0.00    -0.184 NA
ATOM     13  H   UNL     1      -1.309  -2.067   0.771  0.00  0.00    +0.148 HD
BRANCH  12  19
ATOM     14  C   UNL     1      -0.019   1.526   0.010  0.00  0.00    +0.007 C 
ATOM     15  C   UNL     1       0.002  -0.004   0.002  0.00  0.00    -0.013 C 
ATOM     16  C   UNL     1       0.718  -0.497  -1.257  0.00  0.00    +0.003 C 
ATOM     17  C   UNL     1       0.739  -2.027  -1.265  0.00  0.00    +0.002 C 
ATOM     18  C   UNL     1       1.479  -2.534  -0.026  0.00  0.00    +0.020 C 
ATOM     19  C   UNL     1       0.763  -2.041   1.233  0.00  0.00    +0.077 C 
ATOM     20  C   UNL     1       0.742  -0.511   1.242  0.00  0.00    +0.023 C 
ENDBRANCH  12  19
ENDBRANCH   1  12
TORSDOF 4
