REMARK  Name = ZINC04860226
REMARK  10 active torsions:
REMARK  status: ('A' for Active; 'I' for Inactive)
REMARK    1  A    between atoms: C_1  and  C_2
REMARK    2  A    between atoms: C_5  and  C_28
REMARK    3  A    between atoms: C_6  and  O_8
REMARK    4  A    between atoms: O_8  and  C_9
REMARK    5  A    between atoms: C_9  and  C_10
REMARK    6  A    between atoms: C_13  and  C_23
REMARK    7  A    between atoms: C_13  and  O_27
REMARK    8  A    between atoms: C_15  and  C_17
REMARK    9  A    between atoms: C_28  and  C_29
REMARK   10  A    between atoms: C_28  and  C_30
REMARK                            x       y       z     vdW  Elec       q    Type
REMARK                         _______ _______ _______ _____ _____    ______ ____
ROOT
ATOM      1  C   UNL     1      -0.488   1.740  -2.435  0.00  0.00    +0.275 C 
ATOM      2  O   UNL     1       0.487   1.086  -2.740  0.00  0.00    -0.270 OA
ATOM      3  N   UNL     1      -0.785   1.940  -1.136  0.00  0.00    -0.149 N 
ATOM      4  C   UNL     1      -0.017   1.425   0.010  0.00  0.00    +0.256 C 
ATOM      5  C   UNL     1      -0.799   1.952   1.230  0.00  0.00    +0.119 C 
ATOM      6  C   UNL     1      -1.948   2.721   0.619  0.00  0.00    +0.045 C 
ATOM      7  N   UNL     1      -1.873   2.669  -0.648  0.00  0.00    -0.183 NA
ENDROOT
BRANCH   6   8
ATOM      8  C   UNL     1      -3.020   3.441   1.395  0.00  0.00    +0.035 C 
ATOM      9  C   UNL     1      -3.850   2.425   2.182  0.00  0.00    +0.009 C 
ATOM     10  C   UNL     1      -4.938   3.156   2.970  0.00  0.00    +0.001 C 
ATOM     11  C   UNL     1      -5.847   3.915   2.001  0.00  0.00    +0.000 C 
ATOM     12  C   UNL     1      -5.017   4.932   1.214  0.00  0.00    +0.001 C 
ATOM     13  C   UNL     1      -3.928   4.201   0.426  0.00  0.00    +0.009 C 
ENDBRANCH   6   8
BRANCH   4  14
ATOM     14  C   UNL     1       1.407   1.982  -0.001  0.00  0.00    +0.438 C 
ATOM     15  F   UNL     1       2.076   1.531  -1.144  0.00  0.00    -0.166 F 
ATOM     16  F   UNL     1       1.361   3.381  -0.009  0.00  0.00    -0.166 F 
ATOM     17  F   UNL     1       2.088   1.545   1.141  0.00  0.00    -0.166 F 
ENDBRANCH   4  14
BRANCH   4  18
ATOM     18  O   UNL     1       0.002  -0.004   0.002  0.00  0.00    -0.363 OA
ATOM     19  H   UNL     1       0.451  -0.387  -0.764  0.00  0.00    +0.212 HD
ENDBRANCH   4  18
BRANCH   1  20
ATOM     20  C   UNL     1      -1.366   2.330  -3.508  0.00  0.00    +0.326 C 
BRANCH  20  21
ATOM     21  O   UNL     1      -0.847   1.981  -4.793  0.00  0.00    -0.482 OA
BRANCH  21  27
ATOM     22  C   UNL     1      -4.602   4.501  -6.630  0.00  0.00    +0.044 C 
ATOM     23  C   UNL     1      -3.360   3.668  -6.813  0.00  0.00    -0.047 A 
ATOM     24  C   UNL     1      -2.911   3.366  -8.086  0.00  0.00    +0.004 A 
ATOM     25  C   UNL     1      -1.772   2.601  -8.257  0.00  0.00    +0.008 A 
ATOM     26  C   UNL     1      -1.076   2.142  -7.156  0.00  0.00    -0.003 A 
ATOM     27  C   UNL     1      -1.527   2.438  -5.878  0.00  0.00    +0.125 A 
ATOM     28  C   UNL     1      -2.671   3.205  -5.709  0.00  0.00    +0.049 A 
BRANCH  26  29
ATOM     29  C   UNL     1       0.169   1.313  -7.343  0.00  0.00    +0.016 C 
ATOM     30  C   UNL     1      -0.175   0.045  -8.125  0.00  0.00    +0.012 C 
ATOM     31  C   UNL     1       1.210   2.124  -8.118  0.00  0.00    +0.012 C 
ENDBRANCH  26  29
ENDBRANCH  21  27
ENDBRANCH  20  21
ENDBRANCH   1  20
TORSDOF 7
