REMARK  Name = ZINC66200625
REMARK  10 active torsions:
REMARK  status: ('A' for Active; 'I' for Inactive)
REMARK    1  A    between atoms: C_1  and  O_2
REMARK    2  A    between atoms: O_2  and  C_3
REMARK    3  A    between atoms: C_4  and  N_9
REMARK    4  A    between atoms: N_9  and  S_10
REMARK    5  A    between atoms: S_10  and  C_13
REMARK    6  A    between atoms: C_16  and  N_19
REMARK    7  A    between atoms: N_19  and  C_20
REMARK    8  A    between atoms: C_20  and  N_22
REMARK    9  A    between atoms: C_23  and  C_25
REMARK   10  A    between atoms: C_26  and  C_27
REMARK                            x       y       z     vdW  Elec       q    Type
REMARK                         _______ _______ _______ _____ _____    ______ ____
ROOT
ATOM      1  N   UNL     1      -2.593  -6.517  -4.649  0.00  0.00    -0.297 N 
ATOM      2  H   UNL     1      -3.526  -6.776  -4.595  0.00  0.00    +0.154 HD
ENDROOT
BRANCH   1   6
ATOM      3  C   UNL     1      -0.650  -5.019  -1.282  0.00  0.00    +0.111 A 
ATOM      4  C   UNL     1      -0.438  -4.435  -2.518  0.00  0.00    +0.031 A 
ATOM      5  C   UNL     1      -1.081  -4.930  -3.636  0.00  0.00    +0.025 A 
ATOM      6  C   UNL     1      -1.940  -6.014  -3.518  0.00  0.00    +0.033 A 
ATOM      7  C   UNL     1      -2.150  -6.598  -2.276  0.00  0.00    +0.025 A 
ATOM      8  C   UNL     1      -1.501  -6.102  -1.163  0.00  0.00    +0.031 A 
BRANCH   3   9
ATOM      9  S   UNL     1       0.172  -4.385   0.142  0.00  0.00    +0.093 S 
ATOM     10  O   UNL     1      -0.611  -4.765   1.265  0.00  0.00    -0.148 OA
ATOM     11  O   UNL     1       0.489  -3.029  -0.142  0.00  0.00    -0.148 OA
BRANCH   9  12
ATOM     12  N   UNL     1       1.613  -5.190   0.275  0.00  0.00    -0.072 NA
BRANCH  12  14
ATOM     13  C   UNL     1       3.701  -5.572   1.435  0.00  0.00    +0.259 A 
ATOM     14  C   UNL     1       2.482  -4.893   1.321  0.00  0.00    +0.225 A 
ATOM     15  N   UNL     1       2.159  -3.966   2.210  0.00  0.00    -0.231 NA
ATOM     16  C   UNL     1       2.989  -3.686   3.204  0.00  0.00    +0.133 A 
ATOM     17  C   UNL     1       4.189  -4.355   3.316  0.00  0.00    +0.134 A 
ATOM     18  N   UNL     1       4.519  -5.287   2.434  0.00  0.00    -0.217 NA
BRANCH  13  20
ATOM     19  C   UNL     1       5.295  -7.178   0.713  0.00  0.00    +0.279 C 
ATOM     20  O   UNL     1       4.039  -6.523   0.528  0.00  0.00    -0.477 OA
ENDBRANCH  13  20
ENDBRANCH  12  14
ENDBRANCH   9  12
ENDBRANCH   3   9
ENDBRANCH   1   6
BRANCH   1  21
ATOM     21  C   UNL     1      -1.925  -6.642  -5.813  0.00  0.00    +0.141 C 
ATOM     22  S   UNL     1      -0.245  -6.320  -5.874  0.00  0.00    -0.018 S 
BRANCH  21  23
ATOM     23  N   UNL     1      -2.580  -7.020  -6.928  0.00  0.00    -0.264 N 
ATOM     24  C   UNL     1      -1.913  -7.145  -8.092  0.00  0.00    +0.242 C 
ATOM     25  O   UNL     1      -0.718  -6.916  -8.136  0.00  0.00    -0.270 OA
ATOM     26  H   UNL     1      -3.533  -7.202  -6.893  0.00  0.00    +0.157 HD
BRANCH  24  27
ATOM     27  C   UNL     1      -2.623  -7.554  -9.302  0.00  0.00    +0.068 C 
ATOM     28  C   UNL     1      -1.953  -7.680 -10.469  0.00  0.00    +0.013 C 
BRANCH  28  29
ATOM     29  C   UNL     1      -2.666  -8.091 -11.684  0.00  0.00    -0.017 A 
ATOM     30  C   UNL     1      -4.034  -8.351 -11.652  0.00  0.00    +0.008 A 
ATOM     31  C   UNL     1      -4.704  -8.739 -12.802  0.00  0.00    +0.001 A 
ATOM     32  C   UNL     1      -4.063  -8.882 -13.995  0.00  0.00    +0.008 A 
ATOM     33  C   UNL     1      -2.683  -8.637 -14.102  0.00  0.00    -0.017 A 
ATOM     34  C   UNL     1      -1.957  -8.232 -12.956  0.00  0.00    -0.011 A 
ATOM     35  C   UNL     1      -0.585  -7.981 -13.059  0.00  0.00    +0.009 A 
ATOM     36  C   UNL     1       0.038  -8.125 -14.264  0.00  0.00    +0.001 A 
ATOM     37  C   UNL     1      -0.674  -8.517 -15.394  0.00  0.00    +0.001 A 
ATOM     38  C   UNL     1      -2.009  -8.781 -15.326  0.00  0.00    +0.008 A 
ENDBRANCH  28  29
ENDBRANCH  24  27
ENDBRANCH  21  23
ENDBRANCH   1  21
TORSDOF 9
