REMARK  Name = ZINC23339005
REMARK  13 active torsions:
REMARK  status: ('A' for Active; 'I' for Inactive)
REMARK    1  A    between atoms: C_1  and  C_2
REMARK    2  A    between atoms: C_2  and  C_3
REMARK    3  A    between atoms: C_3  and  N_4
REMARK    4  A    between atoms: C_5  and  C_32
REMARK    5  A    between atoms: C_6  and  C_9
REMARK    6  A    between atoms: C_9  and  N_10
REMARK    7  A    between atoms: N_10  and  C_11
REMARK    8  A    between atoms: N_10  and  C_15
REMARK    9  A    between atoms: C_11  and  C_12
REMARK   10  A    between atoms: C_12  and  O_13
REMARK   11  A    between atoms: O_13  and  C_14
REMARK   12  A    between atoms: C_15  and  C_16
REMARK   13  A    between atoms: N_21  and  C_23
REMARK                            x       y       z     vdW  Elec       q    Type
REMARK                         _______ _______ _______ _____ _____    ______ ____
ROOT
ATOM      1  C   UNL     1      -2.522  -2.495   1.529  0.00  0.00    +0.086 C 
ENDROOT
BRANCH   1   2
ATOM      2  C   UNL     1      -2.453  -3.192   2.889  0.00  0.00    -0.014 C 
ATOM      3  C   UNL     1      -1.054  -3.780   3.091  0.00  0.00    +0.001 C 
ATOM      4  C   UNL     1      -1.012  -4.527   4.428  0.00  0.00    -0.018 C 
ATOM      5  C   UNL     1      -2.088  -5.615   4.433  0.00  0.00    -0.078 C 
ATOM      6  N   UNL     1      -3.408  -5.001   4.237  0.00  0.00    +0.382 N 
ATOM      7  C   UNL     1      -3.488  -4.318   2.939  0.00  0.00    -0.074 C 
ATOM      8  H   UNL     1      -3.545  -4.243   5.023  0.00  0.00    -0.081 HD
BRANCH   6   9
ATOM      9  C   UNL     1      -4.478  -5.997   4.375  0.00  0.00    -0.060 C 
ATOM     10  C   UNL     1      -5.854  -5.311   4.500  0.00  0.00    +0.020 C 
ATOM     11  C   UNL     1      -6.641  -6.180   5.462  0.00  0.00    -0.046 A 
ATOM     12  C   UNL     1      -8.003  -6.241   5.705  0.00  0.00    +0.004 A 
ATOM     13  C   UNL     1      -8.504  -7.127   6.640  0.00  0.00    +0.000 A 
ATOM     14  C   UNL     1      -7.643  -7.955   7.335  0.00  0.00    +0.000 A 
ATOM     15  C   UNL     1      -6.284  -7.896   7.094  0.00  0.00    +0.004 A 
ATOM     16  C   UNL     1      -5.780  -7.008   6.157  0.00  0.00    -0.046 A 
ATOM     17  C   UNL     1      -4.356  -6.752   5.716  0.00  0.00    +0.020 C 
ENDBRANCH   6   9
ENDBRANCH   1   2
BRANCH   1  18
ATOM     18  N   UNL     1      -1.567  -1.379   1.501  0.00  0.00    -0.296 NA
BRANCH  18  19
ATOM     19  C   UNL     1      -1.526  -0.755   0.172  0.00  0.00    +0.123 C 
BRANCH  19  22
ATOM     20  N   UNL     1       1.639   1.038  -0.086  0.00  0.00    -0.268 N 
ATOM     21  C   UNL     1       0.926  -0.107  -0.098  0.00  0.00    +0.041 A 
ATOM     22  C   UNL     1      -0.373   0.213   0.107  0.00  0.00    +0.007 A 
ATOM     23  C   UNL     1      -0.456   1.602   0.249  0.00  0.00    +0.139 A 
ATOM     24  N   UNL     1       0.750   2.098   0.134  0.00  0.00    -0.179 NA
ATOM     25  C   UNL     1       1.477  -1.495  -0.303  0.00  0.00    +0.065 C 
BRANCH  20  26
ATOM     26  C   UNL     1       3.088   1.153  -0.270  0.00  0.00    +0.143 C 
BRANCH  26  28
ATOM     27  C   UNL     1       4.914   1.448  -1.949  0.00  0.00    +0.005 C 
ATOM     28  C   UNL     1       3.401   1.327  -1.757  0.00  0.00    +0.020 C 
ENDBRANCH  26  28
ENDBRANCH  20  26
ENDBRANCH  19  22
ENDBRANCH  18  19
BRANCH  18  29
ATOM     29  C   UNL     1      -1.885  -0.388   2.538  0.00  0.00    +0.112 C 
BRANCH  29  30
ATOM     30  C   UNL     1      -3.179   0.340   2.168  0.00  0.00    +0.174 C 
BRANCH  30  31
ATOM     31  O   UNL     1      -4.275  -0.575   2.234  0.00  0.00    -0.382 OA
ATOM     32  C   UNL     1      -5.551   0.031   2.015  0.00  0.00    +0.194 C 
ENDBRANCH  30  31
ENDBRANCH  29  30
ENDBRANCH  18  29
ENDBRANCH   1  18
TORSDOF 10
