REMARK  Name = ZINC66384751
REMARK  8 active torsions:
REMARK  status: ('A' for Active; 'I' for Inactive)
REMARK    1  A    between atoms: C_1  and  C_2
REMARK    2  A    between atoms: C_2  and  C_4
REMARK    3  A    between atoms: C_2  and  N_10
REMARK    4  A    between atoms: C_13  and  N_16
REMARK    5  A    between atoms: N_19  and  C_20
REMARK    6  A    between atoms: C_20  and  C_21
REMARK    7  A    between atoms: C_21  and  N_22
REMARK    8  A    between atoms: C_23  and  C_25
REMARK                            x       y       z     vdW  Elec       q    Type
REMARK                         _______ _______ _______ _____ _____    ______ ____
ROOT
ATOM      1  N   UNL     1       3.621  -0.637   3.031  0.00  0.00    -0.298 N 
ATOM      2  C   UNL     1       4.744  -1.236   3.476  0.00  0.00    +0.300 C 
ATOM      3  O   UNL     1       5.227  -2.161   2.852  0.00  0.00    -0.253 OA
ATOM      4  N   UNL     1       5.330  -0.811   4.613  0.00  0.00    -0.298 N 
ATOM      5  H   UNL     1       3.235   0.100   3.529  0.00  0.00    +0.150 HD
ATOM      6  H   UNL     1       4.944  -0.073   5.111  0.00  0.00    +0.150 HD
ENDROOT
BRANCH   1  10
ATOM      7  N   UNL     1       0.713  -0.491   1.192  0.00  0.00    +0.385 N 
ATOM      8  C   UNL     1       0.818  -1.972   1.156  0.00  0.00    -0.076 C 
ATOM      9  C   UNL     1       2.014  -2.265   2.096  0.00  0.00    +0.002 C 
ATOM     10  C   UNL     1       2.984  -1.100   1.796  0.00  0.00    +0.056 C 
ATOM     11  C   UNL     1       2.103   0.013   1.197  0.00  0.00    -0.056 C 
ATOM     12  H   UNL     1       0.233  -0.196   2.029  0.00  0.00    -0.081 HD
BRANCH   7  14
ATOM     13  C   UNL     1      -0.019   1.526   0.010  0.00  0.00    -0.008 C 
ATOM     14  C   UNL     1       0.002  -0.004   0.002  0.00  0.00    -0.041 C 
BRANCH  14  15
ATOM     15  C   UNL     1      -1.412  -0.526   0.013  0.00  0.00    -0.061 A 
ATOM     16  C   UNL     1      -2.123  -0.571   1.197  0.00  0.00    +0.002 A 
ATOM     17  C   UNL     1      -3.420  -1.049   1.207  0.00  0.00    +0.000 A 
ATOM     18  C   UNL     1      -4.006  -1.482   0.032  0.00  0.00    +0.000 A 
ATOM     19  C   UNL     1      -3.295  -1.436  -1.153  0.00  0.00    +0.000 A 
ATOM     20  C   UNL     1      -2.000  -0.954  -1.163  0.00  0.00    +0.002 A 
ENDBRANCH  14  15
ENDBRANCH   7  14
ENDBRANCH   1  10
BRANCH   4  21
ATOM     21  C   UNL     1       6.550  -1.462   5.096  0.00  0.00    +0.124 C 
BRANCH  21  22
ATOM     22  C   UNL     1       7.005  -0.793   6.394  0.00  0.00    +0.123 C 
BRANCH  22  23
ATOM     23  N   UNL     1       8.225  -1.444   6.878  0.00  0.00    -0.310 N 
ATOM     24  C   UNL     1       8.811  -1.018   8.014  0.00  0.00    +0.244 C 
ATOM     25  O   UNL     1       8.327  -0.094   8.638  0.00  0.00    -0.270 OA
ATOM     26  H   UNL     1       8.611  -2.181   6.380  0.00  0.00    +0.149 HD
BRANCH  24  27
ATOM     27  C   UNL     1      10.041  -1.675   8.502  0.00  0.00    +0.037 A 
ATOM     28  C   UNL     1      10.602  -2.733   7.784  0.00  0.00    +0.016 A 
ATOM     29  C   UNL     1      11.750  -3.343   8.243  0.00  0.00    +0.039 A 
ATOM     30  C   UNL     1      12.348  -2.907   9.416  0.00  0.00    +0.123 A 
ATOM     31  C   UNL     1      11.795  -1.857  10.133  0.00  0.00    +0.039 A 
ATOM     32  C   UNL     1      10.651  -1.236   9.679  0.00  0.00    +0.016 A 
ATOM     33  F   UNL     1      13.472  -3.508   9.862  0.00  0.00    -0.205 F 
ENDBRANCH  24  27
ENDBRANCH  22  23
ENDBRANCH  21  22
ENDBRANCH   4  21
TORSDOF 7
