REMARK  Name = ZINC02368874
REMARK  11 active torsions:
REMARK  status: ('A' for Active; 'I' for Inactive)
REMARK    1  A    between atoms: C_1  and  C_2
REMARK    2  A    between atoms: C_5  and  S_8
REMARK    3  A    between atoms: S_8  and  N_11
REMARK    4  A    between atoms: N_11  and  C_12
REMARK    5  A    between atoms: C_12  and  C_13
REMARK    6  A    between atoms: C_13  and  C_14
REMARK    7  A    between atoms: C_14  and  C_15
REMARK    8  A    between atoms: C_15  and  C_16
REMARK    9  A    between atoms: C_16  and  C_17
REMARK   10  A    between atoms: C_17  and  O_19
REMARK   11  A    between atoms: O_19  and  C_20
REMARK                            x       y       z     vdW  Elec       q    Type
REMARK                         _______ _______ _______ _____ _____    ______ ____
ROOT
ATOM      1  C   UNL     1      -3.164   6.817  -6.385  0.00  0.00    +0.312 C 
ATOM      2  O   UNL     1      -3.378   5.854  -7.083  0.00  0.00    -0.250 OA
ENDROOT
BRANCH   1   3
ATOM      3  C   UNL     1      -2.678   6.629  -4.971  0.00  0.00    +0.121 C 
BRANCH   3   4
ATOM      4  C   UNL     1      -2.540   5.135  -4.673  0.00  0.00    +0.011 C 
BRANCH   4   5
ATOM      5  C   UNL     1      -2.047   4.945  -3.237  0.00  0.00    +0.002 C 
BRANCH   5   6
ATOM      6  C   UNL     1      -1.910   3.450  -2.939  0.00  0.00    +0.017 C 
BRANCH   6   7
ATOM      7  C   UNL     1      -1.417   3.260  -1.503  0.00  0.00    +0.106 C 
BRANCH   7   8
ATOM      8  N   UNL     1      -1.285   1.829  -1.218  0.00  0.00    -0.190 NA
ATOM      9  H   UNL     1      -1.698   1.177  -1.805  0.00  0.00    +0.148 HD
BRANCH   8  10
ATOM     10  S   UNL     1      -0.429   1.325   0.108  0.00  0.00    +0.058 S 
ATOM     11  O   UNL     1      -0.507  -0.094   0.125  0.00  0.00    -0.153 OA
ATOM     12  O   UNL     1       0.810   2.020   0.080  0.00  0.00    -0.153 OA
BRANCH  10  17
ATOM     13  C   UNL     1      -3.391   3.272   4.990  0.00  0.00    +0.044 C 
ATOM     14  C   UNL     1      -2.651   2.786   3.771  0.00  0.00    -0.050 A 
ATOM     15  C   UNL     1      -2.945   1.547   3.233  0.00  0.00    +0.005 A 
ATOM     16  C   UNL     1      -2.266   1.101   2.114  0.00  0.00    +0.029 A 
ATOM     17  C   UNL     1      -1.294   1.894   1.533  0.00  0.00    +0.105 A 
ATOM     18  C   UNL     1      -0.997   3.130   2.075  0.00  0.00    +0.029 A 
ATOM     19  C   UNL     1      -1.679   3.579   3.191  0.00  0.00    +0.005 A 
ENDBRANCH  10  17
ENDBRANCH   8  10
ENDBRANCH   7   8
ENDBRANCH   6   7
ENDBRANCH   5   6
ENDBRANCH   4   5
ENDBRANCH   3   4
ENDBRANCH   1   3
BRANCH   1  20
ATOM     20  O   UNL     1      -3.359   8.054  -6.870  0.00  0.00    -0.424 OA
BRANCH  20  21
ATOM     21  C   UNL     1      -3.695   8.156  -8.182  0.00  0.00    +0.153 A 
ATOM     22  C   UNL     1      -2.706   8.361  -9.130  0.00  0.00    +0.094 A 
ATOM     23  C   UNL     1      -3.050   8.464 -10.470  0.00  0.00    +0.143 A 
ATOM     24  C   UNL     1      -4.399   8.361 -10.849  0.00  0.00    +0.023 A 
ATOM     25  C   UNL     1      -5.386   8.155  -9.878  0.00  0.00    +0.035 A 
ATOM     26  C   UNL     1      -5.032   8.049  -8.563  0.00  0.00    +0.084 A 
ATOM     27 CL   UNL     1      -6.254   7.787  -7.359  0.00  0.00    -0.080 Cl
ATOM     28  C   UNL     1      -4.756   8.471 -12.270  0.00  0.00    -0.027 A 
ATOM     29  C   UNL     1      -3.765   8.676 -13.164  0.00  0.00    +0.041 A 
ATOM     30  C   UNL     1      -2.426   8.767 -12.710  0.00  0.00    +0.341 A 
ATOM     31  O   UNL     1      -1.538   8.945 -13.524  0.00  0.00    -0.245 OA
ATOM     32  O   UNL     1      -2.105   8.663 -11.414  0.00  0.00    -0.422 OA
ATOM     33  C   UNL     1      -4.021   8.823 -14.641  0.00  0.00    +0.042 C 
ATOM     34  C   UNL     1      -5.401   8.277 -15.005  0.00  0.00    +0.005 C 
ATOM     35  C   UNL     1      -6.433   8.906 -14.062  0.00  0.00    +0.005 C 
ATOM     36  C   UNL     1      -6.203   8.348 -12.659  0.00  0.00    +0.036 C 
ENDBRANCH  20  21
ENDBRANCH   1  20
TORSDOF 10
