REMARK  Name = ZINC12757192
REMARK  13 active torsions:
REMARK  status: ('A' for Active; 'I' for Inactive)
REMARK    1  A    between atoms: C_1  and  C_2
REMARK    2  A    between atoms: C_2  and  C_4
REMARK    3  A    between atoms: C_2  and  S_15
REMARK    4  A    between atoms: N_6  and  C_7
REMARK    5  A    between atoms: N_11  and  C_12
REMARK    6  A    between atoms: C_12  and  C_13
REMARK    7  A    between atoms: C_12  and  C_14
REMARK    8  A    between atoms: S_15  and  C_16
REMARK    9  A    between atoms: C_20  and  C_34
REMARK   10  A    between atoms: N_26  and  C_27
REMARK   11  A    between atoms: C_27  and  C_28
REMARK   12  A    between atoms: C_34  and  O_36
REMARK   13  A    between atoms: O_36  and  C_37
REMARK                            x       y       z     vdW  Elec       q    Type
REMARK                         _______ _______ _______ _____ _____    ______ ____
ROOT
ATOM      1  C   UNL     1      -0.189  -0.057  -2.809  0.00  0.00    +0.173 A 
ATOM      2  N   UNL     1      -1.280   0.606  -2.515  0.00  0.00    -0.223 NA
ATOM      3  C   UNL     1      -2.124   1.045  -3.478  0.00  0.00    +0.080 A 
ATOM      4  C   UNL     1      -3.288   1.752  -3.163  0.00  0.00    +0.043 A 
ATOM      5  C   UNL     1      -4.123   2.183  -4.185  0.00  0.00    +0.061 A 
ATOM      6  C   UNL     1      -3.807   1.914  -5.523  0.00  0.00    +0.016 A 
ATOM      7  C   UNL     1      -2.674   1.223  -5.843  0.00  0.00    +0.016 A 
ATOM      8  C   UNL     1      -1.820   0.781  -4.833  0.00  0.00    +0.065 A 
ATOM      9  C   UNL     1      -0.588   0.035  -5.134  0.00  0.00    +0.262 A 
ATOM     10  O   UNL     1      -0.271  -0.223  -6.280  0.00  0.00    -0.267 OA
ATOM     11  N   UNL     1       0.182  -0.349  -4.090  0.00  0.00    -0.285 N 
ENDROOT
BRANCH   5  12
ATOM     12  C   UNL     1      -5.357   2.933  -3.859  0.00  0.00    +0.339 C 
ATOM     13  O   UNL     1      -5.636   3.168  -2.701  0.00  0.00    -0.245 OA
BRANCH  12  14
ATOM     14  O   UNL     1      -6.171   3.353  -4.846  0.00  0.00    -0.464 OA
ATOM     15  C   UNL     1      -7.345   4.070  -4.459  0.00  0.00    +0.280 C 
ENDBRANCH  12  14
ENDBRANCH   5  12
BRANCH   1  16
ATOM     16  S   UNL     1       0.851  -0.589  -1.490  0.00  0.00    -0.075 S 
BRANCH  16  18
ATOM     17  C   UNL     1      -0.019   1.526   0.010  0.00  0.00    +0.029 C 
ATOM     18  C   UNL     1       0.002  -0.004   0.002  0.00  0.00    +0.137 C 
BRANCH  18  19
ATOM     19  C   UNL     1       0.731  -0.503   1.223  0.00  0.00    +0.231 C 
ATOM     20  O   UNL     1       1.911  -0.775   1.156  0.00  0.00    -0.274 OA
ATOM     21  N   UNL     1       0.071  -0.647   2.389  0.00  0.00    -0.270 N 
ATOM     22  H   UNL     1      -0.872  -0.430   2.443  0.00  0.00    +0.156 HD
BRANCH  21  23
ATOM     23  C   UNL     1       0.746  -1.109   3.519  0.00  0.00    +0.123 A 
ATOM     24  C   UNL     1       2.063  -1.445   3.588  0.00  0.00    +0.065 A 
ATOM     25  C   UNL     1       2.332  -1.855   4.897  0.00  0.00    +0.136 A 
ATOM     26  N   UNL     1       1.226  -1.773   5.590  0.00  0.00    -0.178 NA
ATOM     27  N   UNL     1       0.211  -1.300   4.747  0.00  0.00    -0.248 N 
BRANCH  27  28
ATOM     28  C   UNL     1      -1.183  -1.058   5.127  0.00  0.00    +0.103 C 
ATOM     29  C   UNL     1      -1.809  -2.362   5.625  0.00  0.00    +0.032 C 
ATOM     30  C   UNL     1      -1.233  -0.011   6.241  0.00  0.00    +0.032 C 
ENDBRANCH  27  28
ENDBRANCH  21  23
ENDBRANCH  18  19
ENDBRANCH  16  18
ENDBRANCH   1  16
BRANCH  11  31
ATOM     31  C   UNL     1       1.422  -1.091  -4.336  0.00  0.00    +0.159 C 
BRANCH  31  32
ATOM     32  C   UNL     1       1.124  -2.591  -4.349  0.00  0.00    +0.138 C 
ATOM     33  C   UNL     1       2.429  -3.396  -4.573  0.00  0.00    +0.035 C 
ATOM     34  C   UNL     1       2.052  -4.756  -3.925  0.00  0.00    +0.031 C 
ATOM     35  C   UNL     1       1.138  -4.322  -2.759  0.00  0.00    +0.160 C 
ATOM     36  O   UNL     1       0.636  -3.014  -3.066  0.00  0.00    -0.375 OA
ENDBRANCH  31  32
ENDBRANCH  11  31
TORSDOF 9
