REMARK  Name = ZINC57406140
REMARK  6 active torsions:
REMARK  status: ('A' for Active; 'I' for Inactive)
REMARK    1  A    between atoms: C_1  and  C_2
REMARK    2  A    between atoms: C_15  and  C_17
REMARK    3  A    between atoms: C_17  and  C_19
REMARK    4  A    between atoms: C_17  and  N_20
REMARK    5  A    between atoms: N_23  and  C_26
REMARK    6  A    between atoms: C_29  and  O_32
REMARK                            x       y       z     vdW  Elec       q    Type
REMARK                         _______ _______ _______ _____ _____    ______ ____
ROOT
ATOM      1  C   UNL     1      -0.611   1.394   0.192  0.00  0.00    +0.008 C 
ATOM      2  C   UNL     1      -0.510  -0.133   0.192  0.00  0.00    -0.009 C 
ATOM      3  C   UNL     1       0.108  -0.606  -1.127  0.00  0.00    +0.008 C 
ATOM      4  C   UNL     1      -0.015  -2.126  -1.241  0.00  0.00    +0.037 C 
ATOM      5  C   UNL     1       0.563  -2.765   0.019  0.00  0.00    -0.023 A 
ATOM      6  C   UNL     1       0.723  -2.035   1.148  0.00  0.00    -0.004 A 
ATOM      7  S   UNL     1       1.412  -3.162   2.334  0.00  0.00    -0.073 S 
ATOM      8  C   UNL     1       1.485  -4.602   1.318  0.00  0.00    +0.116 A 
ATOM      9  C   UNL     1       0.967  -4.158   0.081  0.00  0.00    +0.075 A 
ATOM     10  C   UNL     1       0.895  -5.122  -0.980  0.00  0.00    +0.260 A 
ATOM     11  O   UNL     1       0.464  -4.841  -2.085  0.00  0.00    -0.267 OA
ATOM     12  N   UNL     1       1.336  -6.366  -0.674  0.00  0.00    -0.309 N 
ATOM     13  H   UNL     1       1.306  -7.049  -1.362  0.00  0.00    +0.170 HD
ATOM     14  C   UNL     1       1.818  -6.699   0.547  0.00  0.00    +0.128 A 
ATOM     15  N   UNL     1       1.900  -5.845   1.543  0.00  0.00    -0.225 NA
ATOM     16  C   UNL     1       0.386  -0.590   1.351  0.00  0.00    +0.046 C 
ENDROOT
BRANCH  14  17
ATOM     17  C   UNL     1       2.282  -8.115   0.774  0.00  0.00    +0.120 C 
ATOM     18  C   UNL     1       1.164  -9.086   0.389  0.00  0.00    +0.032 C 
BRANCH  17  19
ATOM     19  N   UNL     1       2.622  -8.297   2.192  0.00  0.00    -0.290 NA
ATOM     20  C   UNL     1       3.394  -9.531   2.394  0.00  0.00    +0.104 C 
ATOM     21  C   UNL     1       3.881  -9.592   3.845  0.00  0.00    +0.120 C 
ATOM     22  N   UNL     1       2.721  -9.432   4.735  0.00  0.00    -0.327 N 
ATOM     23  C   UNL     1       1.821  -8.292   4.506  0.00  0.00    +0.120 C 
ATOM     24  C   UNL     1       1.414  -8.281   3.029  0.00  0.00    +0.104 C 
BRANCH  22  25
ATOM     25  C   UNL     1       2.480 -10.341   5.772  0.00  0.00    +0.030 A 
ATOM     26  C   UNL     1       3.405 -11.338   6.051  0.00  0.00    +0.027 A 
ATOM     27  C   UNL     1       3.166 -12.234   7.074  0.00  0.00    +0.047 A 
ATOM     28  C   UNL     1       2.003 -12.138   7.824  0.00  0.00    +0.117 A 
ATOM     29  C   UNL     1       1.078 -11.142   7.545  0.00  0.00    +0.047 A 
ATOM     30  C   UNL     1       1.318 -10.242   6.526  0.00  0.00    +0.027 A 
BRANCH  28  31
ATOM     31  O   UNL     1       1.769 -13.020   8.831  0.00  0.00    -0.507 OA
ATOM     32  H   UNL     1       2.111 -12.737   9.690  0.00  0.00    +0.292 HD
ENDBRANCH  28  31
ENDBRANCH  22  25
ENDBRANCH  17  19
ENDBRANCH  14  17
TORSDOF 4
