REMARK  Name = ZINC02241486
REMARK  10 active torsions:
REMARK  status: ('A' for Active; 'I' for Inactive)
REMARK    1  A    between atoms: C_1  and  C_2
REMARK    2  A    between atoms: C_4  and  O_37
REMARK    3  A    between atoms: C_5  and  C_9
REMARK    4  A    between atoms: N_17  and  C_33
REMARK    5  A    between atoms: C_18  and  C_20
REMARK    6  A    between atoms: C_24  and  O_26
REMARK    7  A    between atoms: O_26  and  C_27
REMARK    8  A    between atoms: C_33  and  C_34
REMARK    9  A    between atoms: C_34  and  C_35
REMARK   10  A    between atoms: C_35  and  O_36
REMARK                            x       y       z     vdW  Elec       q    Type
REMARK                         _______ _______ _______ _____ _____    ______ ____
ROOT
ATOM      1  C   UNL     1      -0.059  -3.854  -0.404  0.00  0.00    +0.102 A 
ATOM      2  C   UNL     1      -0.014  -4.777   0.647  0.00  0.00    +0.035 A 
ATOM      3  C   UNL     1      -0.095  -6.024   0.057  0.00  0.00    +0.126 A 
ATOM      4  N   UNL     1      -0.183  -5.802  -1.288  0.00  0.00    -0.272 N 
ATOM      5  H   UNL     1      -0.253  -6.495  -1.963  0.00  0.00    +0.189 HD
ATOM      6  N   UNL     1      -0.166  -4.539  -1.526  0.00  0.00    -0.173 NA
ATOM      7  C   UNL     1      -0.054  -7.042   1.112  0.00  0.00    +0.265 C 
ATOM      8  O   UNL     1      -0.105  -8.242   0.921  0.00  0.00    -0.268 OA
ATOM      9  N   UNL     1       0.050  -6.461   2.321  0.00  0.00    -0.285 N 
ATOM     10  C   UNL     1       0.083  -5.005   2.131  0.00  0.00    +0.141 C 
ENDROOT
BRANCH   1  15
ATOM     11  C   UNL     1       0.158   1.885   0.086  0.00  0.00    +0.045 C 
ATOM     12  C   UNL     1       0.100   0.384  -0.044  0.00  0.00    -0.029 A 
ATOM     13  C   UNL     1      -0.844  -0.199  -0.870  0.00  0.00    +0.050 A 
ATOM     14  C   UNL     1      -0.901  -1.577  -0.992  0.00  0.00    +0.126 A 
ATOM     15  C   UNL     1      -0.003  -2.377  -0.279  0.00  0.00    +0.045 A 
ATOM     16  C   UNL     1       0.943  -1.780   0.550  0.00  0.00    +0.034 A 
ATOM     17  C   UNL     1       0.994  -0.404   0.659  0.00  0.00    +0.045 A 
ATOM     18 CL   UNL     1       2.179   0.339   1.688  0.00  0.00    -0.083 Cl
BRANCH  14  19
ATOM     19  O   UNL     1      -1.829  -2.151  -1.803  0.00  0.00    -0.506 OA
ATOM     20  H   UNL     1      -1.529  -2.281  -2.713  0.00  0.00    +0.292 HD
ENDBRANCH  14  19
ENDBRANCH   1  15
BRANCH  10  21
ATOM     21  C   UNL     1      -1.087  -4.364   2.832  0.00  0.00    -0.019 A 
ATOM     22  C   UNL     1      -2.323  -4.984   2.822  0.00  0.00    +0.006 A 
ATOM     23  C   UNL     1      -3.398  -4.398   3.464  0.00  0.00    +0.004 A 
ATOM     24  C   UNL     1      -3.240  -3.191   4.118  0.00  0.00    +0.046 A 
ATOM     25  C   UNL     1      -2.001  -2.567   4.129  0.00  0.00    +0.129 A 
ATOM     26  C   UNL     1      -0.922  -3.160   3.488  0.00  0.00    +0.052 A 
BRANCH  25  27
ATOM     27  O   UNL     1      -1.843  -1.380   4.771  0.00  0.00    -0.456 OA
BRANCH  27  28
ATOM     28  C   UNL     1      -2.902  -0.882   5.461  0.00  0.00    +0.128 A 
ATOM     29  C   UNL     1      -3.234  -1.409   6.701  0.00  0.00    +0.046 A 
ATOM     30  C   UNL     1      -4.312  -0.900   7.400  0.00  0.00    +0.004 A 
ATOM     31  C   UNL     1      -5.059   0.133   6.865  0.00  0.00    +0.000 A 
ATOM     32  C   UNL     1      -4.731   0.659   5.629  0.00  0.00    +0.004 A 
ATOM     33  C   UNL     1      -3.650   0.159   4.929  0.00  0.00    +0.046 A 
ENDBRANCH  27  28
ENDBRANCH  25  27
ENDBRANCH  10  21
BRANCH   9  34
ATOM     34  C   UNL     1       0.117  -7.160   3.607  0.00  0.00    +0.111 C 
BRANCH  34  35
ATOM     35  C   UNL     1       1.579  -7.449   3.954  0.00  0.00    +0.047 C 
BRANCH  35  36
ATOM     36  C   UNL     1       1.650  -8.179   5.296  0.00  0.00    +0.157 C 
BRANCH  36  37
ATOM     37  O   UNL     1       3.015  -8.449   5.620  0.00  0.00    -0.395 OA
ATOM     38  H   UNL     1       3.136  -8.911   6.461  0.00  0.00    +0.209 HD
ENDBRANCH  36  37
ENDBRANCH  35  36
ENDBRANCH  34  35
ENDBRANCH   9  34
TORSDOF 9
