REMARK  Name = ZINC08318824
REMARK  6 active torsions:
REMARK  status: ('A' for Active; 'I' for Inactive)
REMARK    1  A    between atoms: C_6  and  C_7
REMARK    2  A    between atoms: C_12  and  C_13
REMARK    3  A    between atoms: C_12  and  N_61
REMARK    4  A    between atoms: N_18  and  C_19
REMARK    5  A    between atoms: C_19  and  C_20
REMARK    6  A    between atoms: C_20  and  C_21
REMARK                            x       y       z     vdW  Elec       q    Type
REMARK                         _______ _______ _______ _____ _____    ______ ____
ROOT
ATOM      1  C   UNL     1      -1.213   3.509   0.023  0.00  0.00    +0.020 C 
ENDROOT
BRANCH   1   2
ATOM      2  C   UNL     1      -1.192   2.002   0.028  0.00  0.00    +0.204 C 
ATOM      3  O   UNL     1      -2.233   1.382   0.040  0.00  0.00    -0.277 OA
ATOM      4  N   UNL     1      -0.015   1.345   0.020  0.00  0.00    -0.242 N 
ATOM      5  C   UNL     1       0.003  -0.003   0.025  0.00  0.00    +0.306 C 
ATOM      6  O   UNL     1      -1.041  -0.625   0.042  0.00  0.00    -0.252 OA
ATOM      7  N   UNL     1       1.179  -0.661   0.011  0.00  0.00    -0.299 N 
ATOM      8  H   UNL     1       0.818   1.841   0.006  0.00  0.00    +0.159 HD
ATOM      9  H   UNL     1       2.013  -0.164  -0.002  0.00  0.00    +0.150 HD
BRANCH   7  10
ATOM     10  C   UNL     1       1.200  -2.126   0.017  0.00  0.00    +0.110 C 
BRANCH  10  11
ATOM     11  C   UNL     1       2.649  -2.615  -0.002  0.00  0.00    +0.049 C 
BRANCH  11  12
ATOM     12  C   UNL     1       2.670  -4.122   0.004  0.00  0.00    -0.072 C 
ATOM     13  C   UNL     1       2.757  -4.732  -1.134  0.00  0.00    -0.028 C 
ATOM     14  C   UNL     1       2.783  -6.225  -1.288  0.00  0.00    +0.027 C 
ATOM     15  C   UNL     1       3.109  -6.889   0.051  0.00  0.00    +0.004 C 
ATOM     16  C   UNL     1       2.193  -6.288   1.125  0.00  0.00    +0.005 C 
ATOM     17  C   UNL     1       2.583  -4.822   1.329  0.00  0.00    +0.030 C 
ENDBRANCH  11  12
ENDBRANCH  10  11
ENDBRANCH   7  10
ENDBRANCH   1   2
BRANCH   1  22
ATOM     18  C   UNL     1      -2.677   5.406   0.400  0.00  0.00    -0.037 C 
ATOM     19  C   UNL     1      -3.409   6.136  -0.745  0.00  0.00    -0.013 C 
ATOM     20  C   UNL     1      -4.210   4.997  -1.430  0.00  0.00    -0.020 C 
ATOM     21  C   UNL     1      -3.234   3.802  -1.292  0.00  0.00    -0.077 C 
ATOM     22  N   UNL     1      -2.623   3.978   0.038  0.00  0.00    +0.390 N 
ATOM     23  H   UNL     1      -3.150   3.432   0.729  0.00  0.00    -0.080 HD
BRANCH  18  29
ATOM     24  C   UNL     1      -0.443   6.038  -0.532  0.00  0.00    +0.006 A 
ATOM     25  C   UNL     1       0.833   6.550  -0.390  0.00  0.00    +0.049 A 
ATOM     26  C   UNL     1       1.270   6.993   0.850  0.00  0.00    +0.162 A 
ATOM     27  C   UNL     1       0.420   6.923   1.948  0.00  0.00    +0.162 A 
ATOM     28  C   UNL     1      -0.860   6.411   1.797  0.00  0.00    +0.051 A 
ATOM     29  C   UNL     1      -1.287   5.966   0.560  0.00  0.00    -0.057 A 
ATOM     30  O   UNL     1       0.826   7.356   3.172  0.00  0.00    -0.485 OA
ATOM     31  C   UNL     1       2.236   7.517   3.362  0.00  0.00    +0.270 C 
ATOM     32  C   UNL     1       2.802   8.267   2.148  0.00  0.00    +0.270 C 
ATOM     33  O   UNL     1       2.530   7.491   0.976  0.00  0.00    -0.485 OA
ENDBRANCH  18  29
ENDBRANCH   1  22
TORSDOF 6
