REMARK  Name = ZINC17014323
REMARK  2 active torsions:
REMARK  status: ('A' for Active; 'I' for Inactive)
REMARK    1  A    between atoms: C_1  and  C_2
REMARK    2  A    between atoms: C_8  and  N_10
REMARK                            x       y       z     vdW  Elec       q    Type
REMARK                         _______ _______ _______ _____ _____    ______ ____
ROOT
ATOM      1  N   UNL     1       2.262  -0.110   1.350  0.00  0.00    -0.265 NA
ATOM      2  C   UNL     1       2.962  -0.755   2.476  0.00  0.00    +0.193 C 
ATOM      3  N   UNL     1       4.381  -0.375   2.389  0.00  0.00    -0.304 N 
ATOM      4  C   UNL     1       4.687   0.930   2.072  0.00  0.00    +0.183 C 
ATOM      5  N   UNL     1       3.780   1.741   1.625  0.00  0.00    -0.240 NA
ATOM      6  C   UNL     1       2.386   1.351   1.444  0.00  0.00    +0.233 C 
ATOM      7  N   UNL     1       5.980   1.381   2.232  0.00  0.00    -0.267 N 
ATOM      8  C   UNL     1       6.300   2.689   1.916  0.00  0.00    +0.165 A 
ATOM      9  N   UNL     1       5.519   3.642   1.462  0.00  0.00    -0.225 NA
ATOM     10  C   UNL     1       5.972   4.886   1.194  0.00  0.00    +0.080 A 
ATOM     11  C   UNL     1       5.242   5.995   0.705  0.00  0.00    +0.029 A 
ATOM     12  C   UNL     1       5.860   7.198   0.486  0.00  0.00    +0.002 A 
ATOM     13  C   UNL     1       7.214   7.373   0.733  0.00  0.00    +0.001 A 
ATOM     14  C   UNL     1       7.958   6.311   1.212  0.00  0.00    +0.017 A 
ATOM     15  C   UNL     1       7.348   5.102   1.435  0.00  0.00    +0.041 A 
ATOM     16  S   UNL     1       7.881   3.515   2.030  0.00  0.00    -0.052 S 
ATOM     17  H   UNL     1       5.081  -1.025   2.552  0.00  0.00    +0.150 HD
ATOM     18  H   UNL     1       6.665   0.781   2.566  0.00  0.00    +0.157 HD
ENDROOT
BRANCH   1  25
ATOM     19  C   UNL     1       1.408  -2.258  -0.398  0.00  0.00    +0.009 C 
ATOM     20  C   UNL     1       0.760  -2.005   0.965  0.00  0.00    +0.003 C 
ATOM     21  C   UNL     1      -0.709  -2.429   0.917  0.00  0.00    +0.005 C 
ATOM     22  C   UNL     1      -1.357  -2.176   2.280  0.00  0.00    +0.000 C 
ATOM     23  C   UNL     1      -1.266  -0.687   2.619  0.00  0.00    +0.002 C 
ATOM     24  C   UNL     1       0.203  -0.263   2.667  0.00  0.00    +0.019 C 
ATOM     25  C   UNL     1       0.851  -0.516   1.304  0.00  0.00    +0.063 C 
ENDBRANCH   1  25
TORSDOF 1
