REMARK  Name = ZINC05405878
REMARK  7 active torsions:
REMARK  status: ('A' for Active; 'I' for Inactive)
REMARK    1  A    between atoms: C_1  and  C_2
REMARK    2  A    between atoms: C_10  and  C_11
REMARK    3  A    between atoms: N_13  and  C_14
REMARK    4  A    between atoms: C_14  and  C_16
REMARK    5  A    between atoms: C_14  and  C_26
REMARK    6  A    between atoms: C_26  and  C_27
REMARK    7  A    between atoms: C_26  and  C_28
REMARK                            x       y       z     vdW  Elec       q    Type
REMARK                         _______ _______ _______ _____ _____    ______ ____
ROOT
ATOM      1  C   UNL     1      -5.660  -0.844  -1.419  0.00  0.00    +0.280 C 
ATOM      2  O   UNL     1      -5.763  -2.035  -1.195  0.00  0.00    -0.267 OA
ATOM      3  N   UNL     1      -4.657  -0.137  -0.860  0.00  0.00    -0.302 N 
ATOM      4  H   UNL     1      -4.575   0.813  -1.039  0.00  0.00    +0.150 HD
ENDROOT
BRANCH   1  14
ATOM      5  C   UNL     1      -8.055  -2.240  -2.829  0.00  0.00    +0.048 C 
ATOM      6  C   UNL     1      -7.674  -0.784  -2.916  0.00  0.00    +0.008 A 
ATOM      7  C   UNL     1      -8.357   0.259  -3.680  0.00  0.00    +0.024 A 
ATOM      8  C   UNL     1      -9.480   0.281  -4.510  0.00  0.00    +0.012 A 
ATOM      9  C   UNL     1      -9.870   1.454  -5.092  0.00  0.00    +0.001 A 
ATOM     10  C   UNL     1      -9.158   2.624  -4.862  0.00  0.00    +0.004 A 
ATOM     11  C   UNL     1      -8.048   2.624  -4.046  0.00  0.00    +0.047 A 
ATOM     12  C   UNL     1      -7.631   1.442  -3.444  0.00  0.00    +0.136 A 
ATOM     13  O   UNL     1      -6.615   1.137  -2.614  0.00  0.00    -0.450 OA
ATOM     14  C   UNL     1      -6.628  -0.175  -2.300  0.00  0.00    +0.193 A 
ENDBRANCH   1  14
BRANCH   3  15
ATOM     15  C   UNL     1      -3.692  -0.803   0.018  0.00  0.00    +0.106 C 
BRANCH  15  16
ATOM     16  C   UNL     1      -2.397  -0.033   0.016  0.00  0.00    -0.023 A 
ATOM     17  C   UNL     1      -2.415   1.349   0.026  0.00  0.00    +0.009 A 
ATOM     18  C   UNL     1      -1.229   2.059   0.019  0.00  0.00    +0.050 A 
ATOM     19  C   UNL     1      -0.017   1.385   0.010  0.00  0.00    +0.162 A 
ATOM     20  C   UNL     1       0.002  -0.004   0.002  0.00  0.00    +0.162 A 
ATOM     21  C   UNL     1      -1.192  -0.710   0.004  0.00  0.00    +0.055 A 
ATOM     22  O   UNL     1       1.181  -0.685  -0.007  0.00  0.00    -0.485 OA
ATOM     23  C   UNL     1       2.347   0.053  -0.387  0.00  0.00    +0.270 C 
ATOM     24  C   UNL     1       2.334   1.392   0.364  0.00  0.00    +0.270 C 
ATOM     25  O   UNL     1       1.143   2.098   0.002  0.00  0.00    -0.485 OA
ENDBRANCH  15  16
BRANCH  15  26
ATOM     26  C   UNL     1      -4.250  -0.858   1.441  0.00  0.00    +0.008 C 
ATOM     27  C   UNL     1      -5.566  -1.640   1.443  0.00  0.00    +0.009 C 
ATOM     28  C   UNL     1      -3.242  -1.554   2.358  0.00  0.00    +0.009 C 
ENDBRANCH  15  26
ENDBRANCH   3  15
TORSDOF 4
