REMARK  Name = ZINC39596567
REMARK  9 active torsions:
REMARK  status: ('A' for Active; 'I' for Inactive)
REMARK    1  A    between atoms: C_1  and  C_2
REMARK    2  A    between atoms: C_6  and  C_8
REMARK    3  A    between atoms: C_8  and  C_9
REMARK    4  A    between atoms: C_13  and  C_22
REMARK    5  A    between atoms: N_24  and  C_25
REMARK    6  A    between atoms: C_25  and  C_26
REMARK    7  A    between atoms: C_26  and  C_28
REMARK    8  A    between atoms: C_26  and  O_29
REMARK    9  A    between atoms: O_29  and  C_30
REMARK                            x       y       z     vdW  Elec       q    Type
REMARK                         _______ _______ _______ _____ _____    ______ ____
ROOT
ATOM      1  C   UNL     1       3.614  -2.462   4.098  0.00  0.00    +0.220 C 
ATOM      2  O   UNL     1       4.716  -2.134   3.711  0.00  0.00    -0.275 OA
ATOM      3  N   UNL     1       3.490  -3.308   5.140  0.00  0.00    -0.300 N 
ATOM      4  C   UNL     1       2.241  -3.825   5.746  0.00  0.00    +0.121 C 
ATOM      5  C   UNL     1       2.549  -5.303   6.075  0.00  0.00    +0.100 C 
ATOM      6  C   UNL     1       4.081  -5.366   6.202  0.00  0.00    -0.004 C 
ATOM      7  C   UNL     1       4.573  -3.936   5.934  0.00  0.00    +0.115 C 
ATOM      8  C   UNL     1       4.659  -6.320   5.160  0.00  0.00    -0.010 C 
ATOM      9  C   UNL     1       6.176  -6.409   5.343  0.00  0.00    -0.082 C 
ATOM     10  N   UNL     1       6.481  -6.888   6.697  0.00  0.00    +0.379 N 
ATOM     11  C   UNL     1       6.003  -5.918   7.690  0.00  0.00    -0.082 C 
ATOM     12  C   UNL     1       4.478  -5.808   7.607  0.00  0.00    -0.010 C 
ATOM     13  H   UNL     1       6.025  -7.775   6.849  0.00  0.00    -0.086 HD
ATOM     14  H   UNL     1       7.478  -7.004   6.795  0.00  0.00    -0.086 HD
ENDROOT
BRANCH   5  15
ATOM     15  C   UNL     1       1.897  -5.699   7.375  0.00  0.00    +0.218 C 
ATOM     16  O   UNL     1       1.741  -4.875   8.251  0.00  0.00    -0.275 OA
ATOM     17  N   UNL     1       1.486  -6.968   7.563  0.00  0.00    -0.312 N 
ATOM     18  H   UNL     1       1.610  -7.628   6.862  0.00  0.00    +0.149 HD
BRANCH  17  19
ATOM     19  C   UNL     1       0.851  -7.353   8.826  0.00  0.00    +0.148 C 
BRANCH  19  20
ATOM     20  C   UNL     1       0.483  -8.837   8.781  0.00  0.00    +0.187 C 
ATOM     21  C   UNL     1      -0.290  -9.210  10.047  0.00  0.00    +0.053 C 
BRANCH  20  22
ATOM     22  O   UNL     1       1.675  -9.621   8.703  0.00  0.00    -0.488 OA
BRANCH  22  23
ATOM     23  C   UNL     1       1.567 -10.855   8.142  0.00  0.00    +0.121 A 
ATOM     24  C   UNL     1       0.322 -11.343   7.774  0.00  0.00    +0.048 A 
ATOM     25  C   UNL     1       0.213 -12.597   7.205  0.00  0.00    +0.042 A 
ATOM     26  C   UNL     1       1.345 -13.367   7.001  0.00  0.00    +0.124 A 
ATOM     27  C   UNL     1       2.589 -12.881   7.369  0.00  0.00    +0.042 A 
ATOM     28  C   UNL     1       2.701 -11.625   7.932  0.00  0.00    +0.048 A 
ATOM     29  F   UNL     1       1.238 -14.593   6.445  0.00  0.00    -0.205 F 
ENDBRANCH  22  23
ENDBRANCH  20  22
ENDBRANCH  19  20
ENDBRANCH  17  19
ENDBRANCH   5  15
BRANCH   1  30
ATOM     30  C   UNL     1       2.384  -1.925   3.413  0.00  0.00    +0.131 C 
BRANCH  30  36
ATOM     31  C   UNL     1       3.534   2.654   1.754  0.00  0.00    +0.044 C 
ATOM     32  C   UNL     1       3.344   1.182   1.495  0.00  0.00    -0.050 A 
ATOM     33  C   UNL     1       3.546   0.672   0.226  0.00  0.00    +0.003 A 
ATOM     34  C   UNL     1       3.372  -0.679  -0.011  0.00  0.00    +0.001 A 
ATOM     35  C   UNL     1       2.996  -1.519   1.020  0.00  0.00    +0.004 A 
ATOM     36  C   UNL     1       2.794  -1.009   2.289  0.00  0.00    -0.038 A 
ATOM     37  C   UNL     1       2.973   0.341   2.527  0.00  0.00    +0.007 A 
ENDBRANCH  30  36
ENDBRANCH   1  30
TORSDOF 7
