REMARK  Name = ZINC16041513
REMARK  7 active torsions:
REMARK  status: ('A' for Active; 'I' for Inactive)
REMARK    1  A    between atoms: C_3  and  C_10
REMARK    2  A    between atoms: C_5  and  N_7
REMARK    3  A    between atoms: N_12  and  C_13
REMARK    4  A    between atoms: C_13  and  C_15
REMARK    5  A    between atoms: C_13  and  O_19
REMARK    6  A    between atoms: O_19  and  C_20
REMARK    7  A    between atoms: C_20  and  C_21
REMARK                            x       y       z     vdW  Elec       q    Type
REMARK                         _______ _______ _______ _____ _____    ______ ____
ROOT
ATOM      1  C   UNL     1       2.456  -4.277  -0.045  0.00  0.00    +0.257 C 
ENDROOT
BRANCH   1   4
ATOM      2  C   UNL     1       1.250  -2.161  -0.022  0.00  0.00    +0.246 C 
ATOM      3  O   UNL     1       0.208  -2.788  -0.016  0.00  0.00    -0.270 OA
ATOM      4  N   UNL     1       2.429  -2.812  -0.037  0.00  0.00    -0.283 N 
ATOM      5  H   UNL     1       3.260  -2.312  -0.042  0.00  0.00    +0.152 HD
BRANCH   2   8
ATOM      6  C   UNL     1       2.383   1.420  -0.013  0.00  0.00    +0.003 A 
ATOM      7  C   UNL     1       2.416   0.041  -0.021  0.00  0.00    +0.013 A 
ATOM      8  C   UNL     1       1.222  -0.682  -0.013  0.00  0.00    +0.039 A 
ATOM      9  C   UNL     1       0.002  -0.004   0.002  0.00  0.00    +0.045 A 
ATOM     10  C   UNL     1      -0.017   1.375   0.010  0.00  0.00    +0.127 A 
ATOM     11  C   UNL     1       1.170   2.086   0.002  0.00  0.00    +0.033 A 
BRANCH  10  12
ATOM     12  N   UNL     1      -1.309   2.096   0.020  0.00  0.00    +0.056 N 
ATOM     13  O   UNL     1      -2.355   1.472   0.021  0.00  0.00    -0.126 OA
ATOM     14  O   UNL     1      -1.327   3.314   0.026  0.00  0.00    -0.126 OA
ENDBRANCH  10  12
ENDBRANCH   2   8
ENDBRANCH   1   4
BRANCH   1  15
ATOM     15  C   UNL     1       3.579  -4.772   0.869  0.00  0.00    +0.233 C 
ATOM     16 CL   UNL     1       5.160  -4.138   0.276  0.00  0.00    -0.079 Cl
ATOM     17 CL   UNL     1       3.289  -4.186   2.549  0.00  0.00    -0.079 Cl
ATOM     18 CL   UNL     1       3.613  -6.574   0.858  0.00  0.00    -0.079 Cl
ENDBRANCH   1  15
BRANCH   1  19
ATOM     19  O   UNL     1       2.687  -4.742  -1.377  0.00  0.00    -0.354 OA
BRANCH  19  20
ATOM     20  C   UNL     1       1.587  -4.529  -2.265  0.00  0.00    +0.164 C 
BRANCH  20  21
ATOM     21  C   UNL     1       1.944  -5.062  -3.654  0.00  0.00    +0.001 C 
ATOM     22  C   UNL     1       3.096  -4.241  -4.233  0.00  0.00    +0.002 C 
ATOM     23  C   UNL     1       3.409  -4.758  -5.641  0.00  0.00    -0.018 C 
ATOM     24  C   UNL     1       2.154  -4.634  -6.503  0.00  0.00    -0.078 C 
ATOM     25  C   UNL     1       0.719  -4.957  -4.569  0.00  0.00    -0.063 C 
ATOM     26  C   UNL     1      -0.394  -5.829  -3.977  0.00  0.00    -0.015 C 
ATOM     27  C   UNL     1      -1.623  -5.789  -4.885  0.00  0.00    -0.003 C 
ATOM     28  C   UNL     1      -1.220  -6.277  -6.280  0.00  0.00    -0.019 C 
ATOM     29  C   UNL     1      -0.107  -5.376  -6.815  0.00  0.00    -0.078 C 
ATOM     30  N   UNL     1       1.066  -5.447  -5.927  0.00  0.00    +0.382 N 
ATOM     31  H   UNL     1       1.377  -6.423  -5.859  0.00  0.00    -0.081 HD
ENDBRANCH  20  21
ENDBRANCH  19  20
ENDBRANCH   1  19
TORSDOF 7
