REMARK  Name = ZINC16666361
REMARK  11 active torsions:
REMARK  status: ('A' for Active; 'I' for Inactive)
REMARK    1  A    between atoms: C_1  and  C_2
REMARK    2  A    between atoms: C_6  and  C_29
REMARK    3  A    between atoms: C_7  and  N_8
REMARK    4  A    between atoms: N_8  and  S_9
REMARK    5  A    between atoms: S_9  and  C_12
REMARK    6  A    between atoms: C_15  and  N_19
REMARK    7  A    between atoms: C_17  and  C_18
REMARK    8  A    between atoms: C_22  and  C_27
REMARK    9  A    between atoms: C_22  and  C_28
REMARK   10  A    between atoms: C_29  and  C_30
REMARK   11  A    between atoms: C_29  and  C_31
REMARK                            x       y       z     vdW  Elec       q    Type
REMARK                         _______ _______ _______ _____ _____    ______ ____
ROOT
ATOM      1  C   UNL     1      -4.921   4.462   3.215  0.00  0.00    +0.111 A 
ATOM      2  C   UNL     1      -4.891   5.541   4.080  0.00  0.00    +0.031 A 
ATOM      3  C   UNL     1      -5.461   5.439   5.334  0.00  0.00    +0.027 A 
ATOM      4  C   UNL     1      -6.054   4.247   5.730  0.00  0.00    +0.060 A 
ATOM      5  C   UNL     1      -6.077   3.164   4.862  0.00  0.00    +0.030 A 
ATOM      6  C   UNL     1      -5.511   3.275   3.607  0.00  0.00    -0.022 A 
ATOM      7  C   UNL     1      -5.535   2.100   2.663  0.00  0.00    +0.046 C 
ENDROOT
BRANCH   4   8
ATOM      8  N   UNL     1      -6.627   4.138   7.002  0.00  0.00    -0.143 N 
ATOM      9  C   UNL     1      -7.608   3.294   7.356  0.00  0.00    +0.246 C 
ATOM     10  O   UNL     1      -8.066   2.506   6.557  0.00  0.00    -0.273 OA
ATOM     11  C   UNL     1      -8.121   3.344   8.763  0.00  0.00    +0.064 C 
ATOM     12  C   UNL     1      -7.071   4.065   9.651  0.00  0.00    +0.205 C 
ATOM     13  S   UNL     1      -6.215   5.043   8.349  0.00  0.00    +0.053 S 
ATOM     14  O   UNL     1      -4.804   4.927   8.473  0.00  0.00    -0.155 OA
ATOM     15  O   UNL     1      -6.840   6.306   8.170  0.00  0.00    -0.155 OA
ATOM     16  C   UNL     1      -8.346   1.923   9.284  0.00  0.00    +0.022 C 
ATOM     17  C   UNL     1      -9.440   4.119   8.794  0.00  0.00    +0.022 C 
ENDBRANCH   4   8
BRANCH   1  18
ATOM     18  S   UNL     1      -4.198   4.599   1.614  0.00  0.00    +0.073 S 
ATOM     19  O   UNL     1      -3.660   5.911   1.522  0.00  0.00    -0.150 OA
ATOM     20  O   UNL     1      -5.159   4.103   0.691  0.00  0.00    -0.150 OA
BRANCH  18  21
ATOM     21  N   UNL     1      -2.913   3.556   1.566  0.00  0.00    -0.216 N 
ATOM     22  H   UNL     1      -2.944   2.775   0.992  0.00  0.00    +0.174 HD
BRANCH  21  29
ATOM     23  C   UNL     1      -2.435   1.858   3.797  0.00  0.00    +0.046 C 
ATOM     24  C   UNL     1      -1.513   2.998   3.450  0.00  0.00    -0.028 A 
ATOM     25  C   UNL     1      -0.398   3.246   4.228  0.00  0.00    +0.005 A 
ATOM     26  C   UNL     1       0.449   4.292   3.910  0.00  0.00    +0.001 A 
ATOM     27  C   UNL     1       0.184   5.092   2.813  0.00  0.00    +0.006 A 
ATOM     28  C   UNL     1      -0.928   4.848   2.031  0.00  0.00    -0.022 A 
ATOM     29  C   UNL     1      -1.784   3.802   2.351  0.00  0.00    +0.054 A 
BRANCH  28  30
ATOM     30  C   UNL     1      -1.216   5.720   0.837  0.00  0.00    +0.015 C 
ATOM     31  C   UNL     1      -0.113   5.535  -0.207  0.00  0.00    +0.012 C 
ATOM     32  C   UNL     1      -1.263   7.186   1.274  0.00  0.00    +0.012 C 
ENDBRANCH  28  30
ENDBRANCH  21  29
ENDBRANCH  18  21
ENDBRANCH   1  18
TORSDOF 5
