REMARK  Name = ZINC64746116
REMARK  9 active torsions:
REMARK  status: ('A' for Active; 'I' for Inactive)
REMARK    1  A    between atoms: C_1  and  C_2
REMARK    2  A    between atoms: C_2  and  C_3
REMARK    3  A    between atoms: C_6  and  C_9
REMARK    4  A    between atoms: C_10  and  N_29
REMARK    5  A    between atoms: N_20  and  C_23
REMARK    6  A    between atoms: N_29  and  C_30
REMARK    7  A    between atoms: C_30  and  C_31
REMARK    8  A    between atoms: C_30  and  C_32
REMARK    9  A    between atoms: C_30  and  C_33
REMARK                            x       y       z     vdW  Elec       q    Type
REMARK                         _______ _______ _______ _____ _____    ______ ____
ROOT
ATOM      1  C   UNL     1       2.817  -2.139  -5.055  0.00  0.00    +0.114 A 
ATOM      2  C   UNL     1       4.036  -1.612  -5.363  0.00  0.00    +0.150 A 
ATOM      3  N   UNL     1       4.318  -1.951  -6.678  0.00  0.00    -0.190 N 
ATOM      4  C   UNL     1       3.235  -2.678  -7.105  0.00  0.00    +0.199 A 
ATOM      5  N   UNL     1       2.357  -2.793  -6.154  0.00  0.00    -0.218 NA
ATOM      6  S   UNL     1       3.673  -3.069  -8.783  0.00  0.00    -0.013 S 
ATOM      7  C   UNL     1       5.258  -2.247  -8.812  0.00  0.00    +0.184 A 
ATOM      8  N   UNL     1       5.338  -1.758  -7.605  0.00  0.00    -0.140 NA
ATOM      9  N   UNL     1       6.171  -2.154  -9.851  0.00  0.00    -0.312 N 
ATOM     10  C   UNL     1       7.440  -1.431  -9.680  0.00  0.00    +0.088 C 
ATOM     11  C   UNL     1       8.583  -2.337 -10.150  0.00  0.00    -0.059 C 
ATOM     12  N   UNL     1       8.319  -2.782 -11.525  0.00  0.00    +0.384 N 
ATOM     13  C   UNL     1       7.112  -3.618 -11.557  0.00  0.00    -0.059 C 
ATOM     14  C   UNL     1       5.900  -2.779 -11.155  0.00  0.00    +0.088 C 
ATOM     15  H   UNL     1       8.185  -1.976 -12.117  0.00  0.00    -0.081 HD
ENDROOT
BRANCH   1  19
ATOM     16  C   UNL     1       0.818  -1.808  -1.319  0.00  0.00    -0.048 A 
ATOM     17  C   UNL     1       0.087  -1.814  -2.494  0.00  0.00    +0.004 A 
ATOM     18  C   UNL     1       0.730  -1.921  -3.710  0.00  0.00    +0.010 A 
ATOM     19  C   UNL     1       2.120  -2.023  -3.753  0.00  0.00    +0.004 A 
ATOM     20  C   UNL     1       2.852  -2.017  -2.566  0.00  0.00    +0.010 A 
ATOM     21  C   UNL     1       2.198  -1.905  -1.356  0.00  0.00    +0.004 A 
BRANCH  16  23
ATOM     22  C   UNL     1      -0.032  -0.214   0.379  0.00  0.00    +0.009 C 
ATOM     23  C   UNL     1       0.110  -1.691   0.006  0.00  0.00    +0.032 C 
ENDBRANCH  16  23
ENDBRANCH   1  19
BRANCH  12  24
ATOM     24  C   UNL     1       9.465  -3.560 -12.014  0.00  0.00    -0.068 C 
ATOM     25  C   UNL     1      10.721  -2.687 -11.992  0.00  0.00    -0.015 C 
ATOM     26  C   UNL     1      11.915  -3.497 -12.501  0.00  0.00    -0.002 C 
ATOM     27  C   UNL     1      11.642  -3.961 -13.934  0.00  0.00    -0.000 C 
ATOM     28  C   UNL     1      10.385  -4.834 -13.956  0.00  0.00    -0.002 C 
ATOM     29  C   UNL     1       9.192  -4.024 -13.447  0.00  0.00    -0.015 C 
ENDBRANCH  12  24
BRANCH   2  30
ATOM     30  N   UNL     1       4.853  -0.867  -4.509  0.00  0.00    -0.323 N 
ATOM     31  H   UNL     1       4.530  -0.608  -3.632  0.00  0.00    +0.148 HD
BRANCH  30  32
ATOM     32  C   UNL     1       6.197  -0.474  -4.939  0.00  0.00    +0.025 C 
ATOM     33  C   UNL     1       6.094   0.477  -6.132  0.00  0.00    +0.031 C 
ATOM     34  C   UNL     1       6.917   0.229  -3.786  0.00  0.00    +0.031 C 
ATOM     35  C   UNL     1       6.986  -1.720  -5.348  0.00  0.00    +0.031 C 
ENDBRANCH  30  32
ENDBRANCH   2  30
TORSDOF 5
