REMARK  Name = ZINC01946935
REMARK  9 active torsions:
REMARK  status: ('A' for Active; 'I' for Inactive)
REMARK    1  A    between atoms: C_1  and  C_2
REMARK    2  A    between atoms: C_2  and  O_3
REMARK    3  A    between atoms: O_3  and  C_4
REMARK    4  A    between atoms: C_9  and  O_10
REMARK    5  A    between atoms: O_10  and  C_11
REMARK    6  A    between atoms: C_17  and  O_32
REMARK    7  A    between atoms: C_18  and  C_26
REMARK    8  A    between atoms: C_21  and  C_22
REMARK    9  A    between atoms: C_26  and  N_57
REMARK                            x       y       z     vdW  Elec       q    Type
REMARK                         _______ _______ _______ _____ _____    ______ ____
ROOT
ATOM      1  C   UNL     1      -3.791  -0.752  -2.856  0.00  0.00    +0.222 A 
ATOM      2  C   UNL     1      -3.501   0.486  -3.496  0.00  0.00    +0.235 A 
ATOM      3  O   UNL     1      -4.118   0.851  -4.483  0.00  0.00    -0.283 OA
ATOM      4  C   UNL     1      -2.426   1.309  -2.916  0.00  0.00    +0.068 A 
ATOM      5  C   UNL     1      -2.070   2.538  -3.472  0.00  0.00    +0.019 A 
ATOM      6  C   UNL     1      -1.067   3.273  -2.906  0.00  0.00    +0.046 A 
ATOM      7  C   UNL     1      -0.400   2.802  -1.777  0.00  0.00    +0.122 A 
ATOM      8  C   UNL     1      -0.742   1.585  -1.213  0.00  0.00    +0.020 A 
ATOM      9  C   UNL     1      -1.754   0.824  -1.780  0.00  0.00    +0.144 A 
ATOM     10  O   UNL     1      -2.111  -0.363  -1.247  0.00  0.00    -0.447 OA
ATOM     11  C   UNL     1      -3.087  -1.119  -1.767  0.00  0.00    +0.254 A 
ENDROOT
BRANCH  11  12
ATOM     12  C   UNL     1      -3.411  -2.434  -1.106  0.00  0.00    +0.454 C 
ATOM     13  F   UNL     1      -2.631  -3.446  -1.675  0.00  0.00    -0.163 F 
ATOM     14  F   UNL     1      -3.137  -2.348   0.263  0.00  0.00    -0.163 F 
ATOM     15  F   UNL     1      -4.766  -2.728  -1.293  0.00  0.00    -0.163 F 
ENDBRANCH  11  12
BRANCH   7  16
ATOM     16  O   UNL     1       0.594   3.544  -1.225  0.00  0.00    -0.506 OA
ATOM     17  H   UNL     1       1.472   3.353  -1.583  0.00  0.00    +0.292 HD
ENDBRANCH   7  16
BRANCH   1  18
ATOM     18  O   UNL     1      -4.773  -1.560  -3.340  0.00  0.00    -0.445 OA
BRANCH  18  24
ATOM     19  C   UNL     1      -5.403  -3.340  -4.796  0.00  0.00    +0.163 A 
ATOM     20  C   UNL     1      -5.051  -4.286  -5.745  0.00  0.00    +0.049 A 
ATOM     21  C   UNL     1      -3.739  -4.385  -6.169  0.00  0.00    +0.004 A 
ATOM     22  C   UNL     1      -2.775  -3.542  -5.648  0.00  0.00    +0.004 A 
ATOM     23  C   UNL     1      -3.120  -2.592  -4.705  0.00  0.00    +0.050 A 
ATOM     24  C   UNL     1      -4.433  -2.491  -4.272  0.00  0.00    +0.170 A 
BRANCH  19  25
ATOM     25  O   UNL     1      -6.694  -3.241  -4.379  0.00  0.00    -0.489 OA
BRANCH  25  27
ATOM     26  C   UNL     1      -9.023  -3.885  -4.372  0.00  0.00    +0.048 C 
ATOM     27  C   UNL     1      -7.635  -4.145  -4.960  0.00  0.00    +0.226 C 
ENDBRANCH  25  27
ENDBRANCH  19  25
ENDBRANCH  18  24
ENDBRANCH   1  18
BRANCH   8  28
ATOM     28  C   UNL     1      -0.013   1.086   0.008  0.00  0.00    -0.036 C 
BRANCH  28  34
ATOM     29  C   UNL     1      -0.620   3.022   1.329  0.00  0.00    -0.078 C 
ATOM     30  C   UNL     1      -1.466   3.491   2.514  0.00  0.00    -0.019 C 
ATOM     31  C   UNL     1      -0.950   2.833   3.797  0.00  0.00    -0.004 C 
ATOM     32  C   UNL     1      -0.998   1.311   3.635  0.00  0.00    -0.019 C 
ATOM     33  C   UNL     1      -0.165   0.905   2.417  0.00  0.00    -0.078 C 
ATOM     34  N   UNL     1      -0.729   1.552   1.213  0.00  0.00    +0.383 N 
ATOM     35  H   UNL     1      -1.720   1.296   1.131  0.00  0.00    -0.081 HD
ENDBRANCH  28  34
ENDBRANCH   8  28
TORSDOF 8
