REMARK  Name = ZINC05563571
REMARK  12 active torsions:
REMARK  status: ('A' for Active; 'I' for Inactive)
REMARK    1  A    between atoms: C_1  and  C_2
REMARK    2  A    between atoms: C_2  and  C_3
REMARK    3  A    between atoms: C_2  and  C_4
REMARK    4  A    between atoms: C_7  and  C_10
REMARK    5  A    between atoms: C_13  and  C_14
REMARK    6  A    between atoms: C_13  and  O_21
REMARK    7  A    between atoms: N_26  and  C_27
REMARK    8  A    between atoms: C_27  and  C_28
REMARK    9  A    between atoms: C_28  and  C_29
REMARK   10  A    between atoms: C_29  and  N_60
REMARK   11  A    between atoms: C_30  and  N_60
REMARK   12  A    between atoms: C_31  and  N_60
REMARK                            x       y       z     vdW  Elec       q    Type
REMARK                         _______ _______ _______ _____ _____    ______ ____
ROOT
ATOM      1  C   UNL     1       5.048   1.215  -0.265  0.00  0.00    +0.144 C 
ATOM      2  C   UNL     1       3.656   1.787  -0.127  0.00  0.00    +0.071 C 
ATOM      3  C   UNL     1       2.476   1.079  -0.016  0.00  0.00    +0.133 C 
ATOM      4  C   UNL     1       3.805   3.183  -0.142  0.00  0.00    +0.249 C 
ATOM      5  O   UNL     1       2.904   3.998  -0.059  0.00  0.00    -0.282 OA
ATOM      6  C   UNL     1       5.254   3.494  -0.276  0.00  0.00    +0.288 C 
ATOM      7  O   UNL     1       5.724   4.612  -0.318  0.00  0.00    -0.266 OA
ATOM      8  N   UNL     1       5.965   2.356  -0.350  0.00  0.00    -0.284 N 
ENDROOT
BRANCH   3   9
ATOM      9  C   UNL     1       1.218   1.788   0.270  0.00  0.00    +0.017 A 
ATOM     10  C   UNL     1       1.147   2.693   1.335  0.00  0.00    +0.014 A 
ATOM     11  C   UNL     1      -0.036   3.348   1.600  0.00  0.00    +0.039 A 
ATOM     12  C   UNL     1      -1.152   3.120   0.809  0.00  0.00    +0.123 A 
ATOM     13  C   UNL     1      -1.088   2.224  -0.249  0.00  0.00    +0.039 A 
ATOM     14  C   UNL     1       0.087   1.558  -0.522  0.00  0.00    +0.014 A 
ATOM     15  F   UNL     1      -2.307   3.769   1.072  0.00  0.00    -0.205 F 
ENDBRANCH   3   9
BRANCH   1  19
ATOM     16  C   UNL     1       5.994  -1.169   3.151  0.00  0.00    -0.045 A 
ATOM     17  C   UNL     1       5.613  -1.776   1.969  0.00  0.00    +0.004 A 
ATOM     18  C   UNL     1       5.307  -1.004   0.864  0.00  0.00    +0.006 A 
ATOM     19  C   UNL     1       5.382   0.374   0.940  0.00  0.00    -0.022 A 
ATOM     20  C   UNL     1       5.768   0.980   2.121  0.00  0.00    +0.006 A 
ATOM     21  C   UNL     1       6.069   0.209   3.228  0.00  0.00    +0.004 A 
BRANCH  16  23
ATOM     22  C   UNL     1       7.771  -1.742   4.782  0.00  0.00    +0.012 C 
ATOM     23  C   UNL     1       6.326  -2.010   4.357  0.00  0.00    +0.013 C 
ATOM     24  C   UNL     1       5.382  -1.651   5.505  0.00  0.00    +0.012 C 
ENDBRANCH  16  23
ENDBRANCH   1  19
BRANCH   3  25
ATOM     25  O   UNL     1       2.476  -0.262  -0.169  0.00  0.00    -0.506 OA
ATOM     26  H   UNL     1       1.546  -0.610  -0.057  0.00  0.00    +0.292 HD
ENDBRANCH   3  25
BRANCH   8  27
ATOM     27  C   UNL     1       7.420   2.270  -0.491  0.00  0.00    +0.107 C 
BRANCH  27  28
ATOM     28  C   UNL     1       7.787   2.245  -1.976  0.00  0.00    +0.000 C 
BRANCH  28  29
ATOM     29  C   UNL     1       9.308   2.155  -2.124  0.00  0.00    -0.078 C 
BRANCH  29  32
ATOM     30  C   UNL     1       9.321   3.405  -4.198  0.00  0.00    -0.097 C 
ATOM     31  C   UNL     1      11.081   1.808  -3.736  0.00  0.00    -0.097 C 
ATOM     32  N   UNL     1       9.645   2.110  -3.563  0.00  0.00    +0.376 N 
ATOM     33  H   UNL     1       9.092   1.371  -4.012  0.00  0.00    -0.083 HD
ENDBRANCH  29  32
ENDBRANCH  28  29
ENDBRANCH  27  28
ENDBRANCH   8  27
TORSDOF 8
