REMARK  Name = ZINC54445941
REMARK  9 active torsions:
REMARK  status: ('A' for Active; 'I' for Inactive)
REMARK    1  A    between atoms: C_1  and  C_2
REMARK    2  A    between atoms: C_5  and  C_7
REMARK    3  A    between atoms: C_7  and  C_9
REMARK    4  A    between atoms: C_7  and  N_10
REMARK    5  A    between atoms: N_13  and  C_14
REMARK    6  A    between atoms: C_16  and  C_21
REMARK    7  A    between atoms: N_23  and  C_24
REMARK    8  A    between atoms: C_24  and  C_25
REMARK    9  A    between atoms: C_24  and  C_26
REMARK                            x       y       z     vdW  Elec       q    Type
REMARK                         _______ _______ _______ _____ _____    ______ ____
ROOT
ATOM      1  N   UNL     1       2.660  -4.195   0.472  0.00  0.00    -0.292 N 
ATOM      2  C   UNL     1       3.015  -5.376   1.017  0.00  0.00    +0.304 C 
ATOM      3  O   UNL     1       2.783  -6.412   0.425  0.00  0.00    -0.252 OA
ATOM      4  N   UNL     1       3.626  -5.407   2.217  0.00  0.00    -0.268 N 
ATOM      5  H   UNL     1       2.845  -3.368   0.944  0.00  0.00    +0.151 HD
ATOM      6  H   UNL     1       3.885  -4.579   2.652  0.00  0.00    +0.156 HD
ENDROOT
BRANCH   4   7
ATOM      7  C   UNL     1       3.888  -6.635   2.838  0.00  0.00    +0.054 A 
ATOM      8  C   UNL     1       3.117  -7.744   2.531  0.00  0.00    +0.038 A 
ATOM      9  C   UNL     1       3.382  -8.966   3.152  0.00  0.00    +0.039 A 
ATOM     10  C   UNL     1       4.423  -9.062   4.077  0.00  0.00    +0.014 A 
ATOM     11  C   UNL     1       5.186  -7.952   4.376  0.00  0.00    +0.022 A 
ATOM     12  C   UNL     1       4.926  -6.742   3.757  0.00  0.00    +0.062 A 
ATOM     13 CL   UNL     1       5.896  -5.352   4.133  0.00  0.00    -0.082 Cl
BRANCH   9  14
ATOM     14  C   UNL     1       2.563 -10.153   2.830  0.00  0.00    +0.244 C 
ATOM     15  O   UNL     1       1.657 -10.067   2.025  0.00  0.00    -0.270 OA
ATOM     16  N   UNL     1       2.821 -11.332   3.431  0.00  0.00    -0.309 N 
ATOM     17  H   UNL     1       3.544 -11.401   4.074  0.00  0.00    +0.149 HD
BRANCH  16  18
ATOM     18  C   UNL     1       2.009 -12.509   3.112  0.00  0.00    +0.067 C 
ATOM     19  C   UNL     1       2.568 -13.191   1.862  0.00  0.00    +0.027 C 
ATOM     20  C   UNL     1       2.048 -13.489   4.287  0.00  0.00    +0.027 C 
ENDBRANCH  16  18
ENDBRANCH   9  14
ENDBRANCH   4   7
BRANCH   1  21
ATOM     21  C   UNL     1       1.996  -4.161  -0.833  0.00  0.00    +0.108 C 
ATOM     22  C   UNL     1       3.049  -4.190  -1.943  0.00  0.00    +0.033 C 
BRANCH  21  27
ATOM     23  C   UNL     1      -0.305   1.016  -0.814  0.00  0.00    +0.051 C 
ATOM     24  C   UNL     1       0.084  -0.435  -0.939  0.00  0.00    -0.013 A 
ATOM     25  C   UNL     1      -0.612  -1.461  -1.486  0.00  0.00    +0.011 A 
ATOM     26  C   UNL     1      -0.050  -2.724  -1.491  0.00  0.00    +0.013 A 
ATOM     27  C   UNL     1       1.180  -2.899  -0.949  0.00  0.00    +0.010 A 
ATOM     28  S   UNL     1       1.585  -1.245  -0.413  0.00  0.00    -0.097 S 
ENDBRANCH  21  27
ENDBRANCH   1  21
TORSDOF 5
