REMARK  Name = ZINC56168692
REMARK  8 active torsions:
REMARK  status: ('A' for Active; 'I' for Inactive)
REMARK    1  A    between atoms: C_1  and  C_2
REMARK    2  A    between atoms: C_2  and  C_4
REMARK    3  A    between atoms: C_2  and  N_10
REMARK    4  A    between atoms: C_13  and  N_16
REMARK    5  A    between atoms: C_17  and  C_19
REMARK    6  A    between atoms: C_19  and  C_21
REMARK    7  A    between atoms: C_19  and  N_22
REMARK    8  A    between atoms: N_25  and  C_26
REMARK                            x       y       z     vdW  Elec       q    Type
REMARK                         _______ _______ _______ _____ _____    ______ ____
ROOT
ATOM      1  N   UNL     1       0.842  -0.642  -4.643  0.00  0.00    -0.313 N 
ATOM      2  C   UNL     1       0.682  -1.249  -5.835  0.00  0.00    +0.233 C 
ATOM      3  O   UNL     1      -0.069  -2.196  -5.938  0.00  0.00    -0.274 OA
ATOM      4  H   UNL     1       1.443   0.115  -4.561  0.00  0.00    +0.149 HD
ENDROOT
BRANCH   1   8
ATOM      5  N   UNL     1       0.709  -0.493  -1.204  0.00  0.00    +0.385 N 
ATOM      6  C   UNL     1       0.672  -1.976  -1.274  0.00  0.00    -0.076 C 
ATOM      7  C   UNL     1       0.893  -2.266  -2.780  0.00  0.00    +0.002 C 
ATOM      8  C   UNL     1       0.110  -1.126  -3.470  0.00  0.00    +0.055 C 
ATOM      9  C   UNL     1      -0.001  -0.015  -2.410  0.00  0.00    -0.056 C 
ATOM     10  H   UNL     1       1.664  -0.168  -1.210  0.00  0.00    -0.081 HD
BRANCH   5  12
ATOM     11  C   UNL     1      -0.009   1.504   0.018  0.00  0.00    -0.008 C 
ATOM     12  C   UNL     1       0.022  -0.026   0.007  0.00  0.00    -0.041 C 
BRANCH  12  13
ATOM     13  C   UNL     1       0.758  -0.522   1.225  0.00  0.00    -0.061 A 
ATOM     14  C   UNL     1       2.141  -0.523   1.245  0.00  0.00    +0.002 A 
ATOM     15  C   UNL     1       2.816  -0.979   2.362  0.00  0.00    +0.000 A 
ATOM     16  C   UNL     1       2.108  -1.432   3.460  0.00  0.00    +0.000 A 
ATOM     17  C   UNL     1       0.726  -1.430   3.441  0.00  0.00    +0.000 A 
ATOM     18  C   UNL     1       0.051  -0.971   2.325  0.00  0.00    +0.002 A 
ENDBRANCH  12  13
ENDBRANCH   5  12
ENDBRANCH   1   8
BRANCH   2  19
ATOM     19  C   UNL     1       1.436  -0.751  -7.041  0.00  0.00    +0.157 C 
ATOM     20  C   UNL     1       2.940  -0.846  -6.778  0.00  0.00    +0.038 C 
BRANCH  19  21
ATOM     21  N   UNL     1       1.091  -1.571  -8.205  0.00  0.00    -0.288 N 
ATOM     22  C   UNL     1       1.210  -1.062  -9.447  0.00  0.00    +0.304 C 
ATOM     23  O   UNL     1       1.604   0.078  -9.602  0.00  0.00    -0.252 OA
ATOM     24  N   UNL     1       0.894  -1.817 -10.518  0.00  0.00    -0.269 N 
ATOM     25  H   UNL     1       0.778  -2.481  -8.082  0.00  0.00    +0.151 HD
ATOM     26  H   UNL     1       0.644  -2.747 -10.400  0.00  0.00    +0.156 HD
BRANCH  24  27
ATOM     27  C   UNL     1       0.924  -1.259 -11.801  0.00  0.00    +0.035 A 
ATOM     28  C   UNL     1      -0.006  -1.653 -12.754  0.00  0.00    +0.023 A 
ATOM     29  C   UNL     1       0.027  -1.100 -14.019  0.00  0.00    +0.002 A 
ATOM     30  C   UNL     1       0.984  -0.155 -14.338  0.00  0.00    +0.000 A 
ATOM     31  C   UNL     1       1.912   0.240 -13.391  0.00  0.00    +0.002 A 
ATOM     32  C   UNL     1       1.881  -0.305 -12.123  0.00  0.00    +0.023 A 
ENDBRANCH  24  27
ENDBRANCH  19  21
ENDBRANCH   2  19
TORSDOF 6
