REMARK  Name = ZINC22055484
REMARK  5 active torsions:
REMARK  status: ('A' for Active; 'I' for Inactive)
REMARK    1  A    between atoms: C_1  and  C_2
REMARK    2  A    between atoms: N_5  and  C_9
REMARK    3  A    between atoms: N_17  and  C_22
REMARK    4  A    between atoms: C_19  and  O_20
REMARK    5  A    between atoms: O_20  and  C_21
REMARK                            x       y       z     vdW  Elec       q    Type
REMARK                         _______ _______ _______ _____ _____    ______ ____
ROOT
ATOM      1  C   UNL     1      -1.073   5.986   0.158  0.00  0.00    +0.110 A 
ATOM      2  C   UNL     1      -2.306   5.332   0.134  0.00  0.00    +0.149 A 
ATOM      3  C   UNL     1      -2.367   3.967   0.137  0.00  0.00    +0.054 A 
ATOM      4  C   UNL     1      -1.188   3.219   0.163  0.00  0.00    +0.052 A 
ATOM      5  C   UNL     1      -1.214   1.748   0.161  0.00  0.00    +0.190 A 
ATOM      6  O   UNL     1      -2.270   1.136   0.135  0.00  0.00    -0.287 OA
ATOM      7  C   UNL     1       0.025   1.065   0.193  0.00  0.00    +0.069 A 
ATOM      8  C   UNL     1       1.181   1.759   0.215  0.00  0.00    +0.090 A 
ATOM      9  N   UNL     1       1.217   3.114   0.213  0.00  0.00    -0.341 N 
ATOM     10  C   UNL     1       0.061   3.866   0.188  0.00  0.00    +0.097 A 
ATOM     11  C   UNL     1       0.109   5.258   0.186  0.00  0.00    +0.168 A 
ATOM     12  F   UNL     1      -3.448   6.054   0.108  0.00  0.00    -0.203 F 
ENDROOT
BRANCH   1  16
ATOM     13  C   UNL     1      -2.236  10.026  -2.282  0.00  0.00    -0.012 C 
ATOM     14  C   UNL     1      -1.532   9.451  -1.051  0.00  0.00    -0.057 C 
ATOM     15  C   UNL     1      -1.672   7.927  -1.047  0.00  0.00    +0.089 C 
ATOM     16  N   UNL     1      -1.028   7.382   0.156  0.00  0.00    -0.328 N 
ATOM     17  C   UNL     1      -1.642   7.931   1.373  0.00  0.00    +0.086 C 
ATOM     18  C   UNL     1      -1.502   9.455   1.369  0.00  0.00    -0.063 C 
ATOM     19  N   UNL     1      -2.146  10.000   0.166  0.00  0.00    +0.383 N 
ATOM     20  H   UNL     1      -2.035  11.095   0.171  0.00  0.00    -0.085 HD
ATOM     21  H   UNL     1      -3.214   9.740   0.188  0.00  0.00    -0.085 HD
ENDBRANCH   1  16
BRANCH   9  22
ATOM     22  C   UNL     1       2.514   3.795   0.240  0.00  0.00    +0.088 C 
ATOM     23  C   UNL     1       3.769   2.922   0.288  0.00  0.00    +0.027 C 
ATOM     24  C   UNL     1       3.333   3.705   1.529  0.00  0.00    +0.027 C 
ENDBRANCH   9  22
BRANCH  11  25
ATOM     25  O   UNL     1       1.308   5.902   0.210  0.00  0.00    -0.491 OA
ATOM     26  C   UNL     1       1.798   6.409  -1.033  0.00  0.00    +0.277 C 
ENDBRANCH  11  25
TORSDOF 3
