REMARK  Name = ZINC36306677
REMARK  19 active torsions:
REMARK  status: ('A' for Active; 'I' for Inactive)
REMARK    1  A    between atoms: C_1  and  C_2
REMARK    2  A    between atoms: C_2  and  C_3
REMARK    3  A    between atoms: C_3  and  C_4
REMARK    4  A    between atoms: C_4  and  O_6
REMARK    5  A    between atoms: O_6  and  C_7
REMARK    6  A    between atoms: C_7  and  C_8
REMARK    7  A    between atoms: C_8  and  C_10
REMARK    8  A    between atoms: C_8  and  O_37
REMARK    9  A    between atoms: C_10  and  N_11
REMARK   10  A    between atoms: N_11  and  C_12
REMARK   11  A    between atoms: N_11  and  C_33
REMARK   12  A    between atoms: C_12  and  C_13
REMARK   13  A    between atoms: C_14  and  C_27
REMARK   14  A    between atoms: N_16  and  C_26
REMARK   15  A    between atoms: C_17  and  O_18
REMARK   16  A    between atoms: O_18  and  C_19
REMARK   17  A    between atoms: C_33  and  C_34
REMARK   18  A    between atoms: C_34  and  C_35
REMARK   19  A    between atoms: C_34  and  C_36
REMARK                            x       y       z     vdW  Elec       q    Type
REMARK                         _______ _______ _______ _____ _____    ______ ____
ROOT
ATOM      1  C   UNL     1      -4.407  -8.477   1.459  0.00  0.00    +0.025 A 
ATOM      2  C   UNL     1      -3.029  -8.558   1.732  0.00  0.00    +0.098 A 
ATOM      3  N   UNL     1      -2.876  -8.675   3.034  0.00  0.00    -0.168 NA
ATOM      4  N   UNL     1      -4.145  -8.672   3.628  0.00  0.00    -0.235 N 
ATOM      5  C   UNL     1      -5.070  -8.543   2.642  0.00  0.00    +0.221 A 
ATOM      6  C   UNL     1      -4.425  -8.782   5.061  0.00  0.00    +0.176 C 
ENDROOT
BRANCH   2   7
ATOM      7  C   UNL     1      -1.938  -8.519   0.727  0.00  0.00    +0.002 A 
ATOM      8  C   UNL     1      -2.053  -9.242  -0.458  0.00  0.00    +0.010 A 
ATOM      9  C   UNL     1      -1.035  -9.202  -1.390  0.00  0.00    +0.001 A 
ATOM     10  C   UNL     1       0.098  -8.446  -1.148  0.00  0.00    +0.000 A 
ATOM     11  C   UNL     1       0.217  -7.726   0.028  0.00  0.00    +0.001 A 
ATOM     12  C   UNL     1      -0.797  -7.755   0.963  0.00  0.00    +0.010 A 
ENDBRANCH   2   7
BRANCH   1  13
ATOM     13  C   UNL     1      -5.035  -8.335   0.096  0.00  0.00    -0.035 C 
BRANCH  13  14
ATOM     14  N   UNL     1      -5.326  -6.918  -0.164  0.00  0.00    +0.384 N 
ATOM     15  H   UNL     1      -5.881  -6.545   0.591  0.00  0.00    -0.081 HD
BRANCH  14  16
ATOM     16  C   UNL     1      -4.066  -6.170  -0.261  0.00  0.00    -0.043 C 
BRANCH  16  17
ATOM     17  C   UNL     1      -4.369  -4.677  -0.407  0.00  0.00    +0.136 C 
BRANCH  17  18
ATOM     18  O   UNL     1      -5.000  -4.201   0.783  0.00  0.00    -0.390 OA
ATOM     19  H   UNL     1      -4.465  -4.306   1.581  0.00  0.00    +0.210 HD
ENDBRANCH  17  18
BRANCH  17  20
ATOM     20  C   UNL     1      -3.064  -3.912  -0.634  0.00  0.00    +0.261 C 
BRANCH  20  21
ATOM     21  O   UNL     1      -3.356  -2.536  -0.886  0.00  0.00    -0.462 OA
BRANCH  21  22
ATOM     22  C   UNL     1      -2.312  -1.721  -1.107  0.00  0.00    +0.307 C 
ATOM     23  O   UNL     1      -1.188  -2.162  -1.086  0.00  0.00    -0.251 OA
BRANCH  22  24
ATOM     24  C   UNL     1      -2.543  -0.257  -1.380  0.00  0.00    +0.120 C 
BRANCH  24  26
ATOM     25  C   UNL     1      -1.433   1.926  -1.872  0.00  0.00    +0.004 C 
ATOM     26  C   UNL     1      -1.199   0.440  -1.595  0.00  0.00    +0.008 C 
ENDBRANCH  24  26
ENDBRANCH  22  24
ENDBRANCH  21  22
ENDBRANCH  20  21
ENDBRANCH  17  20
ENDBRANCH  16  17
ENDBRANCH  14  16
BRANCH  14  27
ATOM     27  C   UNL     1      -6.068  -6.794  -1.425  0.00  0.00    -0.075 C 
BRANCH  27  28
ATOM     28  C   UNL     1      -7.440  -7.454  -1.277  0.00  0.00    -0.034 C 
ATOM     29  C   UNL     1      -8.244  -6.724  -0.200  0.00  0.00    +0.005 C 
ATOM     30  C   UNL     1      -8.188  -7.380  -2.610  0.00  0.00    +0.005 C 
ENDBRANCH  27  28
ENDBRANCH  14  27
ENDBRANCH  13  14
ENDBRANCH   1  13
BRANCH   5  31
ATOM     31  O   UNL     1      -6.416  -8.493   2.809  0.00  0.00    -0.435 OA
BRANCH  31  32
ATOM     32  C   UNL     1      -7.099  -9.668   2.846  0.00  0.00    +0.165 A 
ATOM     33  C   UNL     1      -6.411 -10.872   2.819  0.00  0.00    +0.049 A 
ATOM     34  C   UNL     1      -7.107 -12.065   2.857  0.00  0.00    +0.004 A 
ATOM     35  C   UNL     1      -8.489 -12.061   2.921  0.00  0.00    +0.003 A 
ATOM     36  C   UNL     1      -9.178 -10.862   2.947  0.00  0.00    +0.042 A 
ATOM     37  C   UNL     1      -8.486  -9.665   2.915  0.00  0.00    +0.165 A 
ATOM     38  F   UNL     1      -9.160  -8.494   2.946  0.00  0.00    -0.202 F 
ENDBRANCH  31  32
ENDBRANCH   5  31
TORSDOF 15
