REMARK  Name = ZINC27497068
REMARK  13 active torsions:
REMARK  status: ('A' for Active; 'I' for Inactive)
REMARK    1  A    between atoms: C_1  and  C_2
REMARK    2  A    between atoms: C_2  and  C_3
REMARK    3  A    between atoms: C_2  and  C_4
REMARK    4  A    between atoms: C_4  and  C_6
REMARK    5  A    between atoms: C_4  and  N_23
REMARK    6  A    between atoms: N_8  and  C_9
REMARK    7  A    between atoms: C_9  and  C_10
REMARK    8  A    between atoms: C_10  and  C_12
REMARK    9  A    between atoms: C_10  and  N_17
REMARK   10  A    between atoms: N_23  and  S_24
REMARK   11  A    between atoms: S_24  and  C_27
REMARK   12  A    between atoms: C_30  and  O_33
REMARK   13  A    between atoms: O_33  and  C_34
REMARK                            x       y       z     vdW  Elec       q    Type
REMARK                         _______ _______ _______ _____ _____    ______ ____
ROOT
ATOM      1  C   UNL     1       2.053  -2.082   0.678  0.00  0.00    +0.232 C 
ATOM      2  O   UNL     1       2.415  -2.730  -0.281  0.00  0.00    -0.274 OA
ATOM      3  N   UNL     1       2.276  -2.543   1.925  0.00  0.00    -0.315 N 
ATOM      4  H   UNL     1       1.883  -1.993   2.793  0.00  0.00    +0.149 HD
ENDROOT
BRANCH   1   5
ATOM      5  C   UNL     1       1.352  -0.763   0.476  0.00  0.00    +0.165 C 
BRANCH   5   7
ATOM      6  C   UNL     1      -0.525  -1.911  -0.708  0.00  0.00    +0.009 C 
ATOM      7  C   UNL     1      -0.161  -0.988   0.457  0.00  0.00    +0.010 C 
ATOM      8  C   UNL     1      -0.599  -1.631   1.774  0.00  0.00    +0.009 C 
ENDBRANCH   5   7
BRANCH   5   9
ATOM      9  N   UNL     1       1.775  -0.176  -0.797  0.00  0.00    -0.178 NA
ATOM     10  H   UNL     1       2.146  -0.823  -1.605  0.00  0.00    +0.149 HD
BRANCH   9  11
ATOM     11  S   UNL     1       1.932   1.467  -0.940  0.00  0.00    +0.059 S 
ATOM     12  O   UNL     1       2.376   1.719  -2.266  0.00  0.00    -0.153 OA
ATOM     13  O   UNL     1       0.740   2.035  -0.414  0.00  0.00    -0.153 OA
BRANCH  11  14
ATOM     14  C   UNL     1       3.241   1.960   0.132  0.00  0.00    +0.105 A 
ATOM     15  C   UNL     1       2.966   2.311   1.441  0.00  0.00    +0.032 A 
ATOM     16  C   UNL     1       3.991   2.693   2.284  0.00  0.00    +0.047 A 
ATOM     17  C   UNL     1       5.296   2.735   1.814  0.00  0.00    +0.120 A 
ATOM     18  C   UNL     1       5.568   2.387   0.499  0.00  0.00    +0.047 A 
ATOM     19  C   UNL     1       4.540   2.001  -0.339  0.00  0.00    +0.032 A 
BRANCH  17  20
ATOM     20  O   UNL     1       6.305   3.115   2.641  0.00  0.00    -0.495 OA
ATOM     21  C   UNL     1       5.951   3.458   3.982  0.00  0.00    +0.277 C 
ENDBRANCH  17  20
ENDBRANCH  11  14
ENDBRANCH   9  11
ENDBRANCH   5   9
ENDBRANCH   1   5
BRANCH   3  22
ATOM     22  C   UNL     1       3.043  -3.775   2.124  0.00  0.00    +0.096 C 
BRANCH  22  23
ATOM     23  C   UNL     1       3.151  -4.072   3.621  0.00  0.00    +0.016 C 
BRANCH  23  24
ATOM     24  N   UNL     1       3.722  -2.908   4.312  0.00  0.00    +0.387 N 
ATOM     25  C   UNL     1       5.001  -2.513   3.707  0.00  0.00    -0.078 C 
ATOM     26  C   UNL     1       5.493  -1.216   4.354  0.00  0.00    -0.019 C 
ATOM     27  C   UNL     1       5.666  -1.436   5.859  0.00  0.00    -0.004 C 
ATOM     28  C   UNL     1       4.332  -1.894   6.457  0.00  0.00    -0.019 C 
ATOM     29  C   UNL     1       3.873  -3.171   5.749  0.00  0.00    -0.078 C 
ATOM     30  H   UNL     1       3.022  -2.067   4.197  0.00  0.00    -0.081 HD
ENDBRANCH  23  24
BRANCH  23  31
ATOM     31  C   UNL     1       4.041  -5.269   3.833  0.00  0.00    +0.093 A 
ATOM     32  C   UNL     1       3.627  -6.523   4.091  0.00  0.00    +0.043 A 
ATOM     33  C   UNL     1       4.787  -7.321   4.214  0.00  0.00    +0.041 A 
ATOM     34  C   UNL     1       5.842  -6.506   4.033  0.00  0.00    +0.195 A 
ATOM     35  O   UNL     1       5.384  -5.264   3.803  0.00  0.00    -0.469 OA
ENDBRANCH  23  31
ENDBRANCH  22  23
ENDBRANCH   3  22
TORSDOF 10
