REMARK  Name = ZINC11683513
REMARK  13 active torsions:
REMARK  status: ('A' for Active; 'I' for Inactive)
REMARK    1  A    between atoms: C_1  and  C_2
REMARK    2  A    between atoms: C_2  and  O_3
REMARK    3  A    between atoms: O_3  and  C_4
REMARK    4  A    between atoms: C_4  and  C_6
REMARK    5  A    between atoms: C_10  and  N_11
REMARK    6  A    between atoms: C_12  and  C_14
REMARK    7  A    between atoms: C_14  and  S_15
REMARK    8  A    between atoms: S_15  and  C_16
REMARK    9  A    between atoms: N_20  and  C_25
REMARK   10  A    between atoms: C_26  and  C_31
REMARK   11  A    between atoms: C_26  and  C_32
REMARK   12  A    between atoms: C_27  and  C_29
REMARK   13  A    between atoms: C_27  and  C_30
REMARK                            x       y       z     vdW  Elec       q    Type
REMARK                         _______ _______ _______ _____ _____    ______ ____
ROOT
ATOM      1  C   UNL     1      -0.647   1.516  -4.905  0.00  0.00    +0.091 A 
ATOM      2  C   UNL     1      -1.522   2.109  -5.893  0.00  0.00    -0.024 A 
ATOM      3  C   UNL     1      -2.558   2.828  -5.401  0.00  0.00    -0.016 A 
ATOM      4  S   UNL     1      -2.385   2.713  -3.644  0.00  0.00    -0.079 S 
ATOM      5  C   UNL     1      -0.959   1.732  -3.566  0.00  0.00    +0.086 A 
ATOM      6  C   UNL     1      -3.594   3.554  -6.194  0.00  0.00    -0.041 C 
ATOM      7  C   UNL     1      -2.786   2.040  -8.008  0.00  0.00    -0.069 C 
ATOM      8  C   UNL     1      -1.378   1.985  -7.404  0.00  0.00    +0.024 C 
ATOM      9  C   UNL     1      -3.562   0.786  -7.597  0.00  0.00    -0.010 C 
ATOM     10  C   UNL     1      -2.643   2.027  -9.541  0.00  0.00    -0.010 C 
ATOM     11  C   UNL     1      -4.988   3.194  -5.663  0.00  0.00    -0.005 C 
ATOM     12  C   UNL     1      -3.386   5.068  -5.994  0.00  0.00    -0.005 C 
ATOM     13  N   UNL     1      -3.522   3.283  -7.659  0.00  0.00    +0.389 N 
ATOM     14  H   UNL     1      -3.051   4.075  -8.112  0.00  0.00    -0.084 HD
ATOM     15  H   UNL     1      -4.480   3.203  -8.020  0.00  0.00    -0.084 HD
ENDROOT
BRANCH   5  16
ATOM     16  N   UNL     1      -0.288   1.272  -2.443  0.00  0.00    -0.279 N 
ATOM     17  C   UNL     1      -0.742   1.585  -1.213  0.00  0.00    +0.228 C 
ATOM     18  O   UNL     1      -1.736   2.268  -1.088  0.00  0.00    -0.275 OA
ATOM     19  H   UNL     1       0.507   0.726  -2.543  0.00  0.00    +0.155 HD
BRANCH  17  20
ATOM     20  C   UNL     1      -0.013   1.086   0.008  0.00  0.00    +0.172 C 
BRANCH  20  21
ATOM     21  S   UNL     1      -0.860   1.669   1.497  0.00  0.00    -0.096 S 
BRANCH  21  22
ATOM     22  C   UNL     1       0.174   0.961   2.735  0.00  0.00    +0.111 A 
ATOM     23  C   UNL     1      -0.102   1.152   4.104  0.00  0.00    +0.070 A 
ATOM     24  C   UNL     1      -1.101   1.839   4.828  0.00  0.00    +0.147 A 
ATOM     25  N   UNL     1      -0.869   1.681   6.100  0.00  0.00    -0.177 NA
ATOM     26  N   UNL     1       0.276   0.895   6.277  0.00  0.00    -0.249 N 
ATOM     27  C   UNL     1       0.759   0.561   5.048  0.00  0.00    +0.162 A 
ATOM     28  N   UNL     1       1.798  -0.151   4.612  0.00  0.00    -0.216 NA
ATOM     29  C   UNL     1       2.016  -0.302   3.324  0.00  0.00    +0.224 A 
ATOM     30  N   UNL     1       1.231   0.227   2.401  0.00  0.00    -0.228 NA
ATOM     31  C   UNL     1       0.855   0.499   7.564  0.00  0.00    +0.174 C 
ENDBRANCH  21  22
ENDBRANCH  20  21
ENDBRANCH  17  20
ENDBRANCH   5  16
BRANCH   1  32
ATOM     32  C   UNL     1       0.523   0.722  -5.285  0.00  0.00    +0.342 C 
ATOM     33  O   UNL     1       0.419  -0.480  -5.440  0.00  0.00    -0.245 OA
BRANCH  32  34
ATOM     34  O   UNL     1       1.717   1.324  -5.463  0.00  0.00    -0.461 OA
BRANCH  34  36
ATOM     35  C   UNL     1       4.094   1.329  -5.994  0.00  0.00    +0.048 C 
ATOM     36  C   UNL     1       2.834   0.475  -5.839  0.00  0.00    +0.229 C 
ENDBRANCH  34  36
ENDBRANCH  32  34
ENDBRANCH   1  32
TORSDOF 7
