REMARK  Name = ZINC38995118
REMARK  5 active torsions:
REMARK  status: ('A' for Active; 'I' for Inactive)
REMARK    1  A    between atoms: C_1  and  C_2
REMARK    2  A    between atoms: C_5  and  C_8
REMARK    3  A    between atoms: N_10  and  N_11
REMARK    4  A    between atoms: C_12  and  C_13
REMARK    5  A    between atoms: C_16  and  C_18
REMARK                            x       y       z     vdW  Elec       q    Type
REMARK                         _______ _______ _______ _____ _____    ______ ____
ROOT
ATOM      1  N   UNL     1      -2.347  -4.407   2.697  0.00  0.00    -0.185 NA
ATOM      2  C   UNL     1      -2.365  -5.008   3.851  0.00  0.00    +0.176 C 
ENDROOT
BRANCH   2   3
ATOM      3  C   UNL     1      -3.556  -5.749   4.272  0.00  0.00    +0.148 A 
ATOM      4  C   UNL     1      -3.711  -6.422   5.464  0.00  0.00    +0.051 A 
ATOM      5  C   UNL     1      -4.995  -6.983   5.448  0.00  0.00    +0.050 A 
ATOM      6  C   UNL     1      -5.569  -6.635   4.262  0.00  0.00    +0.137 A 
ATOM      7  O   UNL     1      -4.695  -5.886   3.563  0.00  0.00    -0.454 OA
BRANCH   6   8
ATOM      8  C   UNL     1      -6.926  -7.012   3.819  0.00  0.00    +0.036 A 
ATOM      9  C   UNL     1      -7.343  -8.343   3.890  0.00  0.00    +0.013 A 
ATOM     10  C   UNL     1      -8.612  -8.688   3.475  0.00  0.00    +0.001 A 
ATOM     11  C   UNL     1      -9.473  -7.719   2.989  0.00  0.00    +0.001 A 
ATOM     12  C   UNL     1      -9.067  -6.398   2.915  0.00  0.00    +0.021 A 
ATOM     13  C   UNL     1      -7.802  -6.037   3.333  0.00  0.00    +0.052 A 
ATOM     14 CL   UNL     1      -7.298  -4.378   3.248  0.00  0.00    -0.083 Cl
ENDBRANCH   6   8
ENDBRANCH   2   3
BRANCH   1  17
ATOM     15  C   UNL     1      -1.188  -3.077   1.099  0.00  0.00    +0.254 C 
ATOM     16  O   UNL     1      -2.158  -3.131   0.371  0.00  0.00    -0.272 OA
ATOM     17  N   UNL     1      -1.208  -3.699   2.294  0.00  0.00    -0.205 N 
ATOM     18  H   UNL     1      -0.432  -3.655   2.876  0.00  0.00    +0.177 HD
BRANCH  15  23
ATOM     19  C   UNL     1      -0.018   1.503   0.010  0.00  0.00    +0.062 C 
ATOM     20  C   UNL     1       0.002  -0.004   0.002  0.00  0.00    +0.036 C 
ATOM     21  N   UNL     1       0.008  -0.729  -1.041  0.00  0.00    -0.196 NA
ATOM     22  N   UNL     1       0.028  -2.099  -0.791  0.00  0.00    -0.257 N 
ATOM     23  C   UNL     1       0.037  -2.314   0.665  0.00  0.00    +0.182 C 
ATOM     24  C   UNL     1       0.026  -0.880   1.234  0.00  0.00    +0.085 C 
ATOM     25  H   UNL     1       0.034  -2.797  -1.465  0.00  0.00    +0.169 HD
ENDBRANCH  15  23
ENDBRANCH   1  17
TORSDOF 4
