REMARK  Name = ZINC12547265
REMARK  8 active torsions:
REMARK  status: ('A' for Active; 'I' for Inactive)
REMARK    1  A    between atoms: C_1  and  C_2
REMARK    2  A    between atoms: C_2  and  C_4
REMARK    3  A    between atoms: C_2  and  O_16
REMARK    4  A    between atoms: N_12  and  C_13
REMARK    5  A    between atoms: O_16  and  C_17
REMARK    6  A    between atoms: C_17  and  C_19
REMARK    7  A    between atoms: C_22  and  S_25
REMARK    8  A    between atoms: S_25  and  C_28
REMARK                            x       y       z     vdW  Elec       q    Type
REMARK                         _______ _______ _______ _____ _____    ______ ____
ROOT
ATOM      1  C   UNL     1       2.106   7.303   1.411  0.00  0.00    +0.060 C 
ATOM      2  C   UNL     1       2.190   6.684   0.015  0.00  0.00    +0.239 C 
ENDROOT
BRANCH   2   3
ATOM      3  C   UNL     1       1.497   5.345   0.015  0.00  0.00    +0.156 A 
ATOM      4  N   UNL     1       0.208   5.173   0.027  0.00  0.00    -0.228 NA
ATOM      5  C   UNL     1      -0.075   3.845   0.023  0.00  0.00    +0.090 A 
ATOM      6  C   UNL     1      -1.266   3.114   0.031  0.00  0.00    +0.030 A 
ATOM      7  C   UNL     1      -1.226   1.748   0.017  0.00  0.00    +0.002 A 
ATOM      8  C   UNL     1      -0.013   1.076   0.008  0.00  0.00    +0.002 A 
ATOM      9  C   UNL     1       1.175   1.777   0.000  0.00  0.00    +0.028 A 
ATOM     10  C   UNL     1       1.154   3.165   0.008  0.00  0.00    +0.074 A 
ATOM     11  N   UNL     1       2.130   4.141   0.003  0.00  0.00    -0.268 N 
BRANCH  11  12
ATOM     12  C   UNL     1       3.578   3.921  -0.012  0.00  0.00    +0.450 C 
ATOM     13  F   UNL     1       4.127   4.508  -1.156  0.00  0.00    -0.185 F 
ATOM     14  F   UNL     1       4.149   4.497   1.128  0.00  0.00    -0.185 F 
ENDBRANCH  11  12
ENDBRANCH   2   3
BRANCH   2  15
ATOM     15  O   UNL     1       1.543   7.563  -0.944  0.00  0.00    -0.450 OA
BRANCH  15  16
ATOM     16  C   UNL     1       2.314   8.497  -1.534  0.00  0.00    +0.340 C 
ATOM     17  O   UNL     1       3.494   8.575  -1.256  0.00  0.00    -0.245 OA
BRANCH  16  18
ATOM     18  C   UNL     1       1.724   9.426  -2.519  0.00  0.00    +0.059 A 
ATOM     19  C   UNL     1       0.370   9.335  -2.846  0.00  0.00    +0.017 A 
ATOM     20  C   UNL     1      -0.175  10.209  -3.763  0.00  0.00    +0.028 A 
ATOM     21  C   UNL     1       0.619  11.167  -4.367  0.00  0.00    +0.088 A 
ATOM     22  C   UNL     1       1.963  11.259  -4.053  0.00  0.00    +0.028 A 
ATOM     23  C   UNL     1       2.520  10.395  -3.133  0.00  0.00    +0.017 A 
BRANCH  21  24
ATOM     24  S   UNL     1      -0.084  12.276  -5.543  0.00  0.00    -0.006 S 
ATOM     25  O   UNL     1      -1.459  12.351  -5.192  0.00  0.00    -0.170 OA
ATOM     26  O   UNL     1       0.741  13.431  -5.490  0.00  0.00    -0.170 OA
ATOM     27  C   UNL     1       0.108  11.443  -7.142  0.00  0.00    +0.200 C 
ENDBRANCH  21  24
ENDBRANCH  16  18
ENDBRANCH  15  16
ENDBRANCH   2  15
TORSDOF 6
