REMARK  Name = ZINC00663539
REMARK  10 active torsions:
REMARK  status: ('A' for Active; 'I' for Inactive)
REMARK    1  A    between atoms: C_1  and  O_2
REMARK    2  A    between atoms: O_2  and  C_3
REMARK    3  A    between atoms: C_6  and  C_9
REMARK    4  A    between atoms: C_15  and  N_30
REMARK    5  A    between atoms: C_16  and  C_18
REMARK    6  A    between atoms: C_18  and  C_20
REMARK    7  A    between atoms: C_23  and  O_28
REMARK    8  A    between atoms: C_24  and  O_26
REMARK    9  A    between atoms: O_26  and  C_27
REMARK   10  A    between atoms: O_28  and  C_29
REMARK                            x       y       z     vdW  Elec       q    Type
REMARK                         _______ _______ _______ _____ _____    ______ ____
ROOT
ATOM      1  C   UNL     1       0.298   1.233   0.112  0.00  0.00    -0.002 A 
ATOM      2  C   UNL     1      -0.824   1.729   0.769  0.00  0.00    -0.018 A 
ATOM      3  C   UNL     1      -0.866   3.054   1.167  0.00  0.00    +0.046 A 
ATOM      4  N   UNL     1       0.155   3.858   0.916  0.00  0.00    -0.244 NA
ATOM      5  C   UNL     1       1.237   3.443   0.296  0.00  0.00    +0.112 A 
ATOM      6  C   UNL     1       1.391   2.111  -0.150  0.00  0.00    +0.037 A 
ATOM      7  C   UNL     1       2.648   1.823  -0.816  0.00  0.00    +0.053 A 
ATOM      8  C   UNL     1       3.565   2.848  -0.956  0.00  0.00    +0.083 A 
ATOM      9  S   UNL     1       2.752   4.234  -0.188  0.00  0.00    -0.064 S 
ATOM     10  C   UNL     1      -2.182   3.337   1.860  0.00  0.00    +0.056 C 
ATOM     11  C   UNL     1      -2.747   1.952   2.236  0.00  0.00    +0.011 C 
ATOM     12  C   UNL     1      -2.105   1.032   1.176  0.00  0.00    +0.038 C 
ENDROOT
BRANCH   1  16
ATOM     13  C   UNL     1       0.459  -2.835  -1.110  0.00  0.00    +0.120 A 
ATOM     14  C   UNL     1       1.194  -2.413  -0.010  0.00  0.00    +0.046 A 
ATOM     15  C   UNL     1       1.145  -1.094   0.389  0.00  0.00    +0.012 A 
ATOM     16  C   UNL     1       0.354  -0.184  -0.313  0.00  0.00    -0.017 A 
ATOM     17  C   UNL     1      -0.388  -0.613  -1.415  0.00  0.00    +0.012 A 
ATOM     18  C   UNL     1      -0.329  -1.932  -1.812  0.00  0.00    +0.046 A 
BRANCH  13  20
ATOM     19  C   UNL     1      -0.271  -4.502  -2.639  0.00  0.00    +0.277 C 
ATOM     20  O   UNL     1       0.510  -4.135  -1.500  0.00  0.00    -0.495 OA
ENDBRANCH  13  20
ENDBRANCH   1  16
BRANCH   7  21
ATOM     21  N   UNL     1       2.922   0.552  -1.300  0.00  0.00    -0.356 N 
ATOM     22  H   UNL     1       2.256  -0.149  -1.224  0.00  0.00    +0.142 HD
ATOM     23  H   UNL     1       3.779   0.365  -1.714  0.00  0.00    +0.142 HD
ENDBRANCH   7  21
BRANCH   8  24
ATOM     24  C   UNL     1       4.843   2.805  -1.561  0.00  0.00    +0.202 C 
ATOM     25  O   UNL     1       5.304   1.742  -1.936  0.00  0.00    -0.286 OA
BRANCH  24  26
ATOM     26  C   UNL     1       5.618   4.051  -1.740  0.00  0.00    +0.027 A 
ATOM     27  C   UNL     1       7.014   4.017  -1.710  0.00  0.00    +0.015 A 
ATOM     28  C   UNL     1       7.735   5.179  -1.876  0.00  0.00    +0.050 A 
ATOM     29  C   UNL     1       7.077   6.386  -2.075  0.00  0.00    +0.162 A 
ATOM     30  C   UNL     1       5.684   6.426  -2.106  0.00  0.00    +0.162 A 
ATOM     31  C   UNL     1       4.955   5.264  -1.944  0.00  0.00    +0.061 A 
BRANCH  30  32
ATOM     32  O   UNL     1       5.043   7.609  -2.301  0.00  0.00    -0.491 OA
ATOM     33  C   UNL     1       3.614   7.577  -2.322  0.00  0.00    +0.277 C 
ENDBRANCH  30  32
BRANCH  29  34
ATOM     34  O   UNL     1       7.793   7.528  -2.239  0.00  0.00    -0.491 OA
ATOM     35  C   UNL     1       9.216   7.414  -2.196  0.00  0.00    +0.277 C 
ENDBRANCH  29  34
ENDBRANCH  24  26
ENDBRANCH   8  24
TORSDOF 7
