REMARK  Name = ZINC35034911
REMARK  8 active torsions:
REMARK  status: ('A' for Active; 'I' for Inactive)
REMARK    1  A    between atoms: C_1  and  C_2
REMARK    2  A    between atoms: C_2  and  C_3
REMARK    3  A    between atoms: C_3  and  C_5
REMARK    4  A    between atoms: C_3  and  N_23
REMARK    5  A    between atoms: N_15  and  C_16
REMARK    6  A    between atoms: C_16  and  C_17
REMARK    7  A    between atoms: N_31  and  C_32
REMARK    8  A    between atoms: C_32  and  C_33
REMARK                            x       y       z     vdW  Elec       q    Type
REMARK                         _______ _______ _______ _____ _____    ______ ____
ROOT
ATOM      1  C   UNL     1       0.469  -2.029  -0.870  0.00  0.00    +0.100 A 
ATOM      2  N   UNL     1       0.946  -2.904  -0.038  0.00  0.00    -0.235 NA
ATOM      3  C   UNL     1       0.707  -4.231  -0.187  0.00  0.00    +0.078 A 
ATOM      4  C   UNL     1       1.219  -5.173   0.707  0.00  0.00    +0.028 A 
ATOM      5  C   UNL     1       0.951  -6.510   0.517  0.00  0.00    +0.002 A 
ATOM      6  C   UNL     1       0.177  -6.935  -0.555  0.00  0.00    +0.001 A 
ATOM      7  C   UNL     1      -0.339  -6.025  -1.451  0.00  0.00    +0.015 A 
ATOM      8  C   UNL     1      -0.080  -4.667  -1.276  0.00  0.00    +0.065 A 
ATOM      9  C   UNL     1      -0.604  -3.650  -2.200  0.00  0.00    +0.262 A 
ATOM     10  O   UNL     1      -1.289  -3.959  -3.158  0.00  0.00    -0.267 OA
ATOM     11  N   UNL     1      -0.300  -2.357  -1.940  0.00  0.00    -0.293 N 
ENDROOT
BRANCH   1  12
ATOM     12  C   UNL     1       0.781  -0.574  -0.633  0.00  0.00    -0.001 C 
BRANCH  12  13
ATOM     13  N   UNL     1       2.143  -0.446  -0.097  0.00  0.00    +0.388 N 
ATOM     14  C   UNL     1       2.441   0.972   0.144  0.00  0.00    -0.058 C 
ATOM     15  C   UNL     1       3.816   1.098   0.808  0.00  0.00    +0.091 C 
ATOM     16  N   UNL     1       4.805   0.404  -0.031  0.00  0.00    -0.289 N 
ATOM     17  C   UNL     1       4.508  -0.973  -0.457  0.00  0.00    +0.091 C 
ATOM     18  C   UNL     1       3.101  -1.001  -1.062  0.00  0.00    -0.058 C 
ATOM     19  C   UNL     1       5.950   1.012  -0.399  0.00  0.00    +0.302 C 
ATOM     20  O   UNL     1       6.216   2.118   0.030  0.00  0.00    -0.253 OA
ATOM     21  N   UNL     1       6.801   0.393  -1.242  0.00  0.00    -0.300 N 
ATOM     22  H   UNL     1       6.558  -0.459  -1.637  0.00  0.00    +0.150 HD
ATOM     23  H   UNL     1       2.211  -0.954   0.772  0.00  0.00    -0.081 HD
BRANCH  21  24
ATOM     24  C   UNL     1       8.092   1.008  -1.561  0.00  0.00    +0.102 C 
ATOM     25  C   UNL     1       8.858   0.108  -2.533  0.00  0.00    +0.024 C 
ENDBRANCH  21  24
ENDBRANCH  12  13
BRANCH  12  27
ATOM     26  C   UNL     1      -0.098  -0.744   1.700  0.00  0.00    +0.002 C 
ATOM     27  C   UNL     1      -0.218   0.005   0.371  0.00  0.00    -0.011 C 
ENDBRANCH  12  27
ENDBRANCH   1  12
BRANCH  11  28
ATOM     28  C   UNL     1      -0.801  -1.302  -2.824  0.00  0.00    +0.161 C 
BRANCH  28  29
ATOM     29  C   UNL     1       0.116  -1.164  -4.012  0.00  0.00    -0.028 A 
ATOM     30  C   UNL     1       1.192  -0.298  -3.957  0.00  0.00    +0.005 A 
ATOM     31  C   UNL     1       2.034  -0.171  -5.046  0.00  0.00    +0.000 A 
ATOM     32  C   UNL     1       1.800  -0.910  -6.190  0.00  0.00    +0.000 A 
ATOM     33  C   UNL     1       0.724  -1.777  -6.245  0.00  0.00    +0.000 A 
ATOM     34  C   UNL     1      -0.115  -1.907  -5.154  0.00  0.00    +0.005 A 
ENDBRANCH  28  29
ENDBRANCH  11  28
TORSDOF 6
