REMARK  Name = ZINC35415735
REMARK  3 active torsions:
REMARK  status: ('A' for Active; 'I' for Inactive)
REMARK    1  A    between atoms: C_4  and  C_7
REMARK    2  A    between atoms: C_10  and  C_12
REMARK    3  A    between atoms: C_19  and  C_27
REMARK                            x       y       z     vdW  Elec       q    Type
REMARK                         _______ _______ _______ _____ _____    ______ ____
ROOT
ATOM      1  C   UNL     1       5.159  -4.117  -0.281  0.00  0.00    +0.115 C 
ATOM      2  C   UNL     1       6.007  -4.397  -1.502  0.00  0.00    +0.103 C 
ATOM      3  N   UNL     1       5.477  -4.879  -2.576  0.00  0.00    -0.289 NA
ATOM      4  N   UNL     1       7.357  -4.126  -1.444  0.00  0.00    -0.273 N 
ATOM      5  C   UNL     1       7.977  -3.890  -0.281  0.00  0.00    +0.236 C 
ATOM      6  O   UNL     1       9.174  -3.696  -0.291  0.00  0.00    -0.274 OA
ATOM      7  C   UNL     1       7.258  -3.855   1.037  0.00  0.00    +0.184 C 
ATOM      8  C   UNL     1       5.932  -4.614   0.948  0.00  0.00    +0.010 C 
ATOM      9  C   UNL     1       6.205  -6.112   0.805  0.00  0.00    +0.010 C 
ATOM     10  C   UNL     1       4.876  -6.864   0.702  0.00  0.00    +0.001 C 
ATOM     11  C   UNL     1       4.048  -6.611   1.963  0.00  0.00    +0.000 C 
ATOM     12  C   UNL     1       3.775  -5.112   2.103  0.00  0.00    +0.001 C 
ATOM     13  C   UNL     1       5.103  -4.359   2.207  0.00  0.00    +0.010 C 
ATOM     14  H   UNL     1       6.030  -5.055  -3.353  0.00  0.00    +0.188 HD
ATOM     15  H   UNL     1       7.871  -4.106  -2.266  0.00  0.00    +0.156 HD
ENDROOT
BRANCH   1  19
ATOM     16  C   UNL     1       3.699  -0.689  -0.037  0.00  0.00    +0.078 A 
ATOM     17  C   UNL     1       4.893  -0.026   0.062  0.00  0.00    +0.075 A 
ATOM     18  S   UNL     1       6.036  -1.396  -0.016  0.00  0.00    -0.079 S 
ATOM     19  C   UNL     1       4.908  -2.636  -0.162  0.00  0.00    +0.090 A 
ATOM     20  N   UNL     1       3.761  -2.008  -0.143  0.00  0.00    -0.243 NA
BRANCH  16  24
ATOM     21  C   UNL     1      -0.017   1.379   0.010  0.00  0.00    +0.000 A 
ATOM     22  C   UNL     1       1.169   2.092   0.002  0.00  0.00    +0.001 A 
ATOM     23  C   UNL     1       2.377   1.426  -0.013  0.00  0.00    +0.010 A 
ATOM     24  C   UNL     1       2.402   0.033  -0.021  0.00  0.00    +0.001 A 
ATOM     25  C   UNL     1       1.205  -0.680  -0.013  0.00  0.00    +0.010 A 
ATOM     26  C   UNL     1       0.002  -0.004   0.002  0.00  0.00    +0.001 A 
ENDBRANCH  16  24
ENDBRANCH   1  19
BRANCH   7  27
ATOM     27  C   UNL     1       8.104  -4.477   2.069  0.00  0.00    +0.076 C 
ATOM     28  N   UNL     1       8.756  -4.957   2.865  0.00  0.00    -0.196 NA
ENDBRANCH   7  27
TORSDOF 3
