REMARK  Name = ZINC06693338
REMARK  7 active torsions:
REMARK  status: ('A' for Active; 'I' for Inactive)
REMARK    1  A    between atoms: C_1  and  C_2
REMARK    2  A    between atoms: C_2  and  C_3
REMARK    3  A    between atoms: C_2  and  N_4
REMARK    4  A    between atoms: N_4  and  C_5
REMARK    5  A    between atoms: C_5  and  C_6
REMARK    6  A    between atoms: C_5  and  C_7
REMARK    7  A    between atoms: C_8  and  C_10
REMARK                            x       y       z     vdW  Elec       q    Type
REMARK                         _______ _______ _______ _____ _____    ______ ____
ROOT
ATOM      1  C   UNL     1      -0.924  -2.282  -0.269  0.00  0.00    +0.077 A 
ATOM      2  C   UNL     1      -0.110  -2.961  -1.126  0.00  0.00    +0.036 A 
ATOM      3  C   UNL     1       0.038  -4.345  -0.999  0.00  0.00    +0.073 A 
ATOM      4  C   UNL     1      -0.703  -4.947   0.050  0.00  0.00    +0.116 A 
ATOM      5  S   UNL     1      -1.549  -3.574   0.792  0.00  0.00    -0.064 S 
ATOM      6  N   UNL     1      -0.658  -6.242   0.284  0.00  0.00    -0.222 NA
ATOM      7  C   UNL     1       0.093  -7.050  -0.463  0.00  0.00    +0.141 A 
ATOM      8  C   UNL     1       0.115  -8.429  -0.182  0.00  0.00    +0.047 A 
ATOM      9  C   UNL     1       0.882  -9.256  -0.944  0.00  0.00    +0.005 A 
ATOM     10  C   UNL     1       1.636  -8.721  -2.000  0.00  0.00    +0.018 A 
ATOM     11  C   UNL     1       1.603  -7.396  -2.256  0.00  0.00    +0.096 A 
ATOM     12  N   UNL     1       0.839  -6.553  -1.498  0.00  0.00    -0.268 N 
ATOM     13  C   UNL     1       0.834  -5.237  -1.786  0.00  0.00    +0.267 A 
ATOM     14  O   UNL     1       1.503  -4.809  -2.710  0.00  0.00    -0.267 OA
ENDROOT
BRANCH   1  16
ATOM     15  N   UNL     1      -2.484  -0.421  -0.067  0.00  0.00    -0.292 N 
ATOM     16  C   UNL     1      -1.215  -0.847  -0.229  0.00  0.00    +0.254 C 
ATOM     17  O   UNL     1      -0.311  -0.040  -0.342  0.00  0.00    -0.269 OA
BRANCH  15  19
ATOM     18  C   UNL     1      -2.109   1.773   0.947  0.00  0.00    +0.028 C 
ATOM     19  C   UNL     1      -2.797   1.005  -0.184  0.00  0.00    +0.070 C 
ATOM     20  C   UNL     1      -2.300   1.528  -1.533  0.00  0.00    +0.028 C 
ENDBRANCH  15  19
BRANCH  15  21
ATOM     21  C   UNL     1      -3.548  -1.384   0.225  0.00  0.00    +0.070 C 
ATOM     22  C   UNL     1      -4.091  -1.133   1.633  0.00  0.00    +0.028 C 
ATOM     23  C   UNL     1      -4.678  -1.219  -0.793  0.00  0.00    +0.028 C 
ENDBRANCH  15  21
ENDBRANCH   1  16
TORSDOF 3
