REMARK  Name = ZINC03355801
REMARK  10 active torsions:
REMARK  status: ('A' for Active; 'I' for Inactive)
REMARK    1  A    between atoms: C_1  and  C_2
REMARK    2  A    between atoms: C_2  and  N_3
REMARK    3  A    between atoms: C_4  and  C_28
REMARK    4  A    between atoms: C_7  and  S_8
REMARK    5  A    between atoms: S_8  and  C_9
REMARK    6  A    between atoms: C_9  and  C_11
REMARK    7  A    between atoms: C_9  and  C_17
REMARK    8  A    between atoms: N_19  and  C_20
REMARK    9  A    between atoms: C_22  and  C_27
REMARK   10  A    between atoms: C_25  and  C_26
REMARK                            x       y       z     vdW  Elec       q    Type
REMARK                         _______ _______ _______ _____ _____    ______ ____
ROOT
ATOM      1  C   UNL     1       4.858   1.485  -0.251  0.00  0.00    +0.170 C 
ENDROOT
BRANCH   1   2
ATOM      2  C   UNL     1       5.097   1.136  -1.697  0.00  0.00    -0.025 A 
ATOM      3  C   UNL     1       5.178   2.139  -2.645  0.00  0.00    +0.005 A 
ATOM      4  C   UNL     1       5.402   1.820  -3.972  0.00  0.00    +0.000 A 
ATOM      5  C   UNL     1       5.535   0.497  -4.351  0.00  0.00    +0.000 A 
ATOM      6  C   UNL     1       5.450  -0.505  -3.404  0.00  0.00    +0.000 A 
ATOM      7  C   UNL     1       5.230  -0.186  -2.077  0.00  0.00    +0.005 A 
ENDBRANCH   1   2
BRANCH   1   8
ATOM      8  C   UNL     1       3.550   2.222  -0.121  0.00  0.00    +0.235 C 
ATOM      9  O   UNL     1       3.535   3.434  -0.115  0.00  0.00    -0.274 OA
ATOM     10  N   UNL     1       2.397   1.533  -0.012  0.00  0.00    -0.284 N 
ATOM     11  H   UNL     1       2.413   0.565   0.049  0.00  0.00    +0.155 HD
BRANCH  10  12
ATOM     12  C   UNL     1       1.175   2.215   0.013  0.00  0.00    +0.037 A 
ATOM     13  C   UNL     1       1.084   3.458   0.626  0.00  0.00    +0.027 A 
ATOM     14  C   UNL     1      -0.123   4.128   0.650  0.00  0.00    -0.049 A 
ATOM     15  C   UNL     1      -1.241   3.562   0.064  0.00  0.00    +0.004 A 
ATOM     16  C   UNL     1      -1.153   2.327  -0.551  0.00  0.00    +0.005 A 
ATOM     17  C   UNL     1       0.050   1.649  -0.574  0.00  0.00    -0.029 A 
ATOM     18  C   UNL     1       0.144   0.301  -1.239  0.00  0.00    +0.045 C 
ATOM     19  C   UNL     1      -0.223   5.477   1.315  0.00  0.00    +0.044 C 
ENDBRANCH  10  12
ENDBRANCH   1   8
BRANCH   1  20
ATOM     20  S   UNL     1       6.205   2.536   0.347  0.00  0.00    -0.068 S 
BRANCH  20  25
ATOM     21  N   UNL     1       8.852   1.660   0.550  0.00  0.00    -0.301 N 
ATOM     22  C   UNL     1       9.534   0.491   0.298  0.00  0.00    +0.185 A 
ATOM     23  N   UNL     1       8.656  -0.377  -0.151  0.00  0.00    -0.127 NA
ATOM     24  N   UNL     1       7.490   0.161  -0.193  0.00  0.00    -0.122 NA
ATOM     25  C   UNL     1       7.551   1.405   0.228  0.00  0.00    +0.193 A 
BRANCH  22  26
ATOM     26  C   UNL     1      10.979   0.258   0.493  0.00  0.00    +0.126 A 
ATOM     27  C   UNL     1      11.535  -0.989   0.193  0.00  0.00    +0.142 A 
ATOM     28  N   UNL     1      12.828  -1.190   0.364  0.00  0.00    -0.260 NA
ATOM     29  C   UNL     1      13.595  -0.216   0.827  0.00  0.00    +0.130 A 
ATOM     30  C   UNL     1      13.048   1.018   1.131  0.00  0.00    +0.131 A 
ATOM     31  N   UNL     1      11.757   1.232   0.959  0.00  0.00    -0.249 NA
ENDBRANCH  22  26
BRANCH  21  33
ATOM     32  C   UNL     1       9.354   2.914   2.589  0.00  0.00    +0.027 C 
ATOM     33  C   UNL     1       9.408   2.916   1.060  0.00  0.00    +0.122 C 
ENDBRANCH  21  33
ENDBRANCH  20  25
ENDBRANCH   1  20
TORSDOF 7
