REMARK  Name = ZINC02408198
REMARK  5 active torsions:
REMARK  status: ('A' for Active; 'I' for Inactive)
REMARK    1  A    between atoms: C_4  and  C_7
REMARK    2  A    between atoms: C_7  and  C_8
REMARK    3  A    between atoms: C_8  and  C_9
REMARK    4  A    between atoms: C_17  and  C_29
REMARK    5  A    between atoms: C_20  and  C_23
REMARK                            x       y       z     vdW  Elec       q    Type
REMARK                         _______ _______ _______ _____ _____    ______ ____
ROOT
ATOM      1  C   UNL     1       5.487  -1.699   1.381  0.00  0.00    +0.220 C 
ATOM      2  O   UNL     1       6.005  -1.990   0.324  0.00  0.00    -0.275 OA
ATOM      3  N   UNL     1       6.087  -2.034   2.541  0.00  0.00    -0.253 N 
ATOM      4  C   UNL     1       7.307  -2.716   2.525  0.00  0.00    +0.242 A 
ATOM      5  N   UNL     1       7.978  -3.086   1.424  0.00  0.00    -0.180 NA
ATOM      6  C   UNL     1       9.077  -3.701   1.769  0.00  0.00    +0.216 A 
ATOM      7  N   UNL     1       9.131  -3.740   3.123  0.00  0.00    -0.224 N 
ATOM      8  N   UNL     1       7.984  -3.094   3.586  0.00  0.00    -0.131 NA
ATOM      9  C   UNL     1      10.216  -4.354   3.886  0.00  0.00    +0.143 C 
ATOM     10  C   UNL     1      10.981  -5.319   2.971  0.00  0.00    +0.058 C 
ATOM     11  C   UNL     1      11.328  -4.616   1.653  0.00  0.00    +0.106 C 
ATOM     12  N   UNL     1      10.072  -4.250   0.971  0.00  0.00    -0.307 N 
ATOM     13  H   UNL     1       5.672  -1.801   3.386  0.00  0.00    +0.158 HD
ATOM     14  H   UNL     1       9.948  -4.384   0.018  0.00  0.00    +0.149 HD
ENDROOT
BRANCH   9  15
ATOM     15  C   UNL     1       9.644  -5.112   5.057  0.00  0.00    -0.023 A 
ATOM     16  C   UNL     1       8.763  -6.155   4.841  0.00  0.00    +0.007 A 
ATOM     17  C   UNL     1       8.238  -6.850   5.914  0.00  0.00    +0.020 A 
ATOM     18  C   UNL     1       8.594  -6.501   7.205  0.00  0.00    +0.041 A 
ATOM     19  C   UNL     1       9.476  -5.457   7.420  0.00  0.00    +0.020 A 
ATOM     20  C   UNL     1      10.005  -4.766   6.346  0.00  0.00    +0.007 A 
ATOM     21 CL   UNL     1       7.935  -7.373   8.553  0.00  0.00    -0.084 Cl
ENDBRANCH   9  15
BRANCH  11  22
ATOM     22  C   UNL     1      12.129  -5.546   0.780  0.00  0.00    -0.027 A 
ATOM     23  C   UNL     1      11.489  -6.525   0.042  0.00  0.00    +0.005 A 
ATOM     24  C   UNL     1      12.225  -7.378  -0.759  0.00  0.00    +0.000 A 
ATOM     25  C   UNL     1      13.600  -7.253  -0.823  0.00  0.00    +0.000 A 
ATOM     26  C   UNL     1      14.240  -6.274  -0.086  0.00  0.00    +0.000 A 
ATOM     27  C   UNL     1      13.504  -5.418   0.712  0.00  0.00    +0.005 A 
ENDBRANCH  11  22
BRANCH   1  28
ATOM     28  C   UNL     1       4.171  -0.963   1.399  0.00  0.00    +0.101 C 
BRANCH  28  29
ATOM     29  C   UNL     1       3.711  -0.707  -0.038  0.00  0.00    +0.044 C 
BRANCH  29  33
ATOM     30  C   UNL     1      -0.017   1.378   0.010  0.00  0.00    +0.000 A 
ATOM     31  C   UNL     1       1.171   2.086   0.002  0.00  0.00    +0.000 A 
ATOM     32  C   UNL     1       2.377   1.411  -0.013  0.00  0.00    +0.003 A 
ATOM     33  C   UNL     1       2.396   0.029  -0.020  0.00  0.00    -0.047 A 
ATOM     34  C   UNL     1       1.208  -0.679  -0.012  0.00  0.00    +0.003 A 
ATOM     35  C   UNL     1       0.002  -0.004   0.002  0.00  0.00    +0.000 A 
ENDBRANCH  29  33
ENDBRANCH  28  29
ENDBRANCH   1  28
TORSDOF 5
