REMARK  Name = ZINC39448999
REMARK  6 active torsions:
REMARK  status: ('A' for Active; 'I' for Inactive)
REMARK    1  A    between atoms: C_4  and  C_7
REMARK    2  A    between atoms: C_7  and  C_8
REMARK    3  A    between atoms: C_18  and  C_21
REMARK    4  A    between atoms: C_26  and  O_27
REMARK    5  A    between atoms: N_30  and  C_31
REMARK    6  A    between atoms: C_31  and  C_32
REMARK                            x       y       z     vdW  Elec       q    Type
REMARK                         _______ _______ _______ _____ _____    ______ ____
ROOT
ATOM      1  C   UNL     1       3.262  -1.340   1.494  0.00  0.00    +0.082 C 
ATOM      2  C   UNL     1       4.747  -1.722   1.530  0.00  0.00    +0.103 C 
ATOM      3  C   UNL     1       4.926  -3.087   0.920  0.00  0.00    +0.183 C 
ATOM      4  O   UNL     1       5.968  -3.363   0.359  0.00  0.00    -0.290 OA
ATOM      5  C   UNL     1       3.895  -4.051   0.994  0.00  0.00    +0.111 A 
ATOM      6  C   UNL     1       2.687  -3.720   1.581  0.00  0.00    +0.081 A 
ATOM      7  C   UNL     1       1.618  -4.723   1.665  0.00  0.00    +0.099 A 
ATOM      8  C   UNL     1       1.863  -6.006   1.126  0.00  0.00    +0.067 A 
ATOM      9  C   UNL     1       0.866  -6.977   1.192  0.00  0.00    +0.025 A 
ATOM     10  C   UNL     1      -0.344  -6.630   1.795  0.00  0.00    +0.004 A 
ATOM     11  C   UNL     1      -0.510  -5.338   2.306  0.00  0.00    +0.120 A 
ATOM     12  N   UNL     1       0.449  -4.444   2.229  0.00  0.00    -0.252 NA
ATOM     13  C   UNL     1       3.170  -6.280   0.510  0.00  0.00    +0.261 A 
ATOM     14  O   UNL     1       3.401  -7.378   0.037  0.00  0.00    -0.267 OA
ATOM     15  N   UNL     1       4.110  -5.318   0.468  0.00  0.00    -0.299 N 
ATOM     16  N   UNL     1       2.488  -2.446   2.080  0.00  0.00    -0.337 N 
ATOM     17  H   UNL     1       1.856  -2.285   2.797  0.00  0.00    +0.146 HD
ENDROOT
BRANCH  10  18
ATOM     18  C   UNL     1      -1.441  -7.621   1.895  0.00  0.00    +0.025 A 
ATOM     19  C   UNL     1      -1.841  -8.339   0.769  0.00  0.00    +0.012 A 
ATOM     20  C   UNL     1      -2.862  -9.261   0.867  0.00  0.00    +0.001 A 
ATOM     21  C   UNL     1      -3.493  -9.476   2.080  0.00  0.00    +0.004 A 
ATOM     22  C   UNL     1      -3.106  -8.770   3.203  0.00  0.00    +0.046 A 
ATOM     23  C   UNL     1      -2.077  -7.845   3.120  0.00  0.00    +0.125 A 
BRANCH  23  24
ATOM     24  O   UNL     1      -1.692  -7.154   4.224  0.00  0.00    -0.506 OA
ATOM     25  H   UNL     1      -2.168  -6.323   4.354  0.00  0.00    +0.292 HD
ENDBRANCH  23  24
ENDBRANCH  10  18
BRANCH   1  26
ATOM     26  C   UNL     1       2.822  -1.113   0.046  0.00  0.00    +0.057 C 
BRANCH  26  30
ATOM     27  C   UNL     1      -1.227   0.244  -0.017  0.00  0.00    +0.000 A 
ATOM     28  C   UNL     1      -0.193   1.159   0.057  0.00  0.00    +0.000 A 
ATOM     29  C   UNL     1       1.118   0.719   0.078  0.00  0.00    +0.004 A 
ATOM     30  C   UNL     1       1.394  -0.634   0.025  0.00  0.00    -0.046 A 
ATOM     31  C   UNL     1       0.359  -1.548  -0.049  0.00  0.00    +0.004 A 
ATOM     32  C   UNL     1      -0.951  -1.109  -0.071  0.00  0.00    +0.000 A 
ENDBRANCH  26  30
ENDBRANCH   1  26
BRANCH  15  33
ATOM     33  C   UNL     1       5.402  -5.617  -0.154  0.00  0.00    +0.160 C 
BRANCH  33  34
ATOM     34  C   UNL     1       6.340  -6.179   0.882  0.00  0.00    -0.028 A 
ATOM     35  C   UNL     1       7.244  -5.348   1.519  0.00  0.00    +0.005 A 
ATOM     36  C   UNL     1       8.105  -5.863   2.470  0.00  0.00    +0.000 A 
ATOM     37  C   UNL     1       8.062  -7.209   2.784  0.00  0.00    +0.000 A 
ATOM     38  C   UNL     1       7.158  -8.039   2.148  0.00  0.00    +0.000 A 
ATOM     39  C   UNL     1       6.294  -7.523   1.201  0.00  0.00    +0.005 A 
ENDBRANCH  33  34
ENDBRANCH  15  33
TORSDOF 6
