REMARK  Name = ZINC44970399
REMARK  9 active torsions:
REMARK  status: ('A' for Active; 'I' for Inactive)
REMARK    1  A    between atoms: C_1  and  C_2
REMARK    2  A    between atoms: C_4  and  C_7
REMARK    3  A    between atoms: C_7  and  N_8
REMARK    4  A    between atoms: N_8  and  C_9
REMARK    5  A    between atoms: N_12  and  C_13
REMARK    6  A    between atoms: C_13  and  C_14
REMARK    7  A    between atoms: C_14  and  O_15
REMARK    8  A    between atoms: O_15  and  C_16
REMARK    9  A    between atoms: C_22  and  C_24
REMARK                            x       y       z     vdW  Elec       q    Type
REMARK                         _______ _______ _______ _____ _____    ______ ____
ROOT
ATOM      1  N   UNL     1      -1.691  -3.832  -1.387  0.00  0.00    -0.283 N 
ATOM      2  C   UNL     1      -0.756  -4.794  -1.975  0.00  0.00    +0.134 C 
ATOM      3  C   UNL     1      -2.728  -3.369  -2.114  0.00  0.00    +0.302 C 
ATOM      4  O   UNL     1      -3.504  -2.571  -1.626  0.00  0.00    -0.253 OA
ATOM      5  N   UNL     1      -2.904  -3.793  -3.381  0.00  0.00    -0.297 N 
ATOM      6  H   UNL     1      -2.285  -4.430  -3.771  0.00  0.00    +0.150 HD
ENDROOT
BRANCH   1   7
ATOM      7  C   UNL     1      -1.500  -3.372  -0.010  0.00  0.00    +0.167 C 
BRANCH   7  11
ATOM      8  C   UNL     1      -0.018   1.503   0.010  0.00  0.00    +0.089 C 
ATOM      9  C   UNL     1       0.002  -0.004   0.002  0.00  0.00    +0.135 A 
ATOM     10  C   UNL     1      -1.077  -0.810   0.003  0.00  0.00    +0.072 A 
ATOM     11  C   UNL     1      -0.627  -2.143  -0.007  0.00  0.00    +0.101 A 
ATOM     12  N   UNL     1       0.676  -2.130  -0.013  0.00  0.00    -0.081 NA
ATOM     13  O   UNL     1       1.098  -0.778  -0.013  0.00  0.00    -0.360 OA
ENDBRANCH   7  11
ENDBRANCH   1   7
BRANCH   5  14
ATOM     14  C   UNL     1      -4.031  -3.290  -4.171  0.00  0.00    +0.133 C 
BRANCH  14  15
ATOM     15  C   UNL     1      -4.001  -3.924  -5.564  0.00  0.00    +0.179 C 
BRANCH  15  16
ATOM     16  O   UNL     1      -4.216  -5.332  -5.451  0.00  0.00    -0.375 OA
BRANCH  16  17
ATOM     17  C   UNL     1      -4.207  -6.024  -6.701  0.00  0.00    +0.121 C 
ATOM     18  C   UNL     1      -2.781  -6.478  -7.022  0.00  0.00    +0.032 C 
ATOM     19  C   UNL     1      -2.284  -7.413  -5.918  0.00  0.00    +0.003 C 
ATOM     20  C   UNL     1      -3.201  -8.635  -5.832  0.00  0.00    +0.000 C 
ATOM     21  C   UNL     1      -4.626  -8.181  -5.512  0.00  0.00    +0.006 C 
ATOM     22  C   UNL     1      -5.124  -7.245  -6.615  0.00  0.00    +0.015 C 
ATOM     23  C   UNL     1      -6.550  -6.791  -6.295  0.00  0.00    +0.010 C 
ENDBRANCH  16  17
ENDBRANCH  15  16
ENDBRANCH  14  15
ENDBRANCH   5  14
TORSDOF 6
