REMARK  Name = ZINC62825898
REMARK  5 active torsions:
REMARK  status: ('A' for Active; 'I' for Inactive)
REMARK    1  A    between atoms: C_1  and  C_2
REMARK    2  A    between atoms: C_4  and  C_19
REMARK    3  A    between atoms: C_5  and  N_18
REMARK    4  A    between atoms: C_6  and  C_8
REMARK    5  A    between atoms: C_10  and  C_13
REMARK                            x       y       z     vdW  Elec       q    Type
REMARK                         _______ _______ _______ _____ _____    ______ ____
ROOT
ATOM      1  C   UNL     1      -0.157   1.497   0.043  0.00  0.00    +0.044 C 
ATOM      2  C   UNL     1      -0.064  -0.007   0.018  0.00  0.00    -0.049 A 
ATOM      3  C   UNL     1      -0.242  -0.689  -1.175  0.00  0.00    +0.008 A 
ATOM      4  C   UNL     1      -0.159  -2.066  -1.212  0.00  0.00    -0.029 A 
ATOM      5  C   UNL     1       0.106  -2.778  -0.050  0.00  0.00    +0.040 A 
ATOM      6  C   UNL     1       0.288  -2.091   1.160  0.00  0.00    +0.061 A 
ATOM      7  C   UNL     1       0.205  -0.697   1.180  0.00  0.00    +0.018 A 
ATOM      8  C   UNL     1      -0.356  -2.797  -2.515  0.00  0.00    +0.045 C 
ENDROOT
BRANCH   6   9
ATOM      9  C   UNL     1       0.569  -2.836   2.402  0.00  0.00    +0.261 A 
ATOM     10  N   UNL     1      -0.018  -2.648   3.562  0.00  0.00    -0.187 NA
ATOM     11  C   UNL     1       0.483  -3.500   4.471  0.00  0.00    +0.203 A 
ATOM     12  N   UNL     1       1.399  -4.243   3.896  0.00  0.00    -0.056 NA
ATOM     13  O   UNL     1       1.466  -3.828   2.540  0.00  0.00    -0.332 OA
BRANCH  11  14
ATOM     14  C   UNL     1       0.069  -3.586   5.892  0.00  0.00    +0.029 A 
ATOM     15  C   UNL     1       0.661  -4.508   6.755  0.00  0.00    +0.019 A 
ATOM     16  C   UNL     1       0.214  -4.508   8.032  0.00  0.00    +0.046 A 
ATOM     17  S   UNL     1      -1.020  -3.223   8.002  0.00  0.00    -0.104 S 
ATOM     18  C   UNL     1      -0.894  -2.763   6.391  0.00  0.00    +0.057 A 
ENDBRANCH  11  14
ENDBRANCH   6   9
BRANCH   5  19
ATOM     19  N   UNL     1       0.190  -4.166  -0.084  0.00  0.00    -0.357 N 
ATOM     20  H   UNL     1       0.164  -4.633  -0.934  0.00  0.00    +0.142 HD
ATOM     21  H   UNL     1       0.274  -4.668   0.742  0.00  0.00    +0.142 HD
ENDBRANCH   5  19
TORSDOF 3
