REMARK  Name = ZINC45594061
REMARK  12 active torsions:
REMARK  status: ('A' for Active; 'I' for Inactive)
REMARK    1  A    between atoms: C_1  and  C_2
REMARK    2  A    between atoms: C_2  and  O_3
REMARK    3  A    between atoms: O_3  and  C_4
REMARK    4  A    between atoms: C_7  and  N_10
REMARK    5  A    between atoms: C_11  and  C_29
REMARK    6  A    between atoms: C_14  and  S_15
REMARK    7  A    between atoms: S_15  and  C_16
REMARK    8  A    between atoms: C_16  and  C_18
REMARK    9  A    between atoms: C_16  and  C_19
REMARK   10  A    between atoms: N_25  and  C_26
REMARK   11  A    between atoms: N_25  and  C_27
REMARK   12  A    between atoms: C_33  and  C_35
REMARK                            x       y       z     vdW  Elec       q    Type
REMARK                         _______ _______ _______ _____ _____    ______ ____
ROOT
ATOM      1  N   UNL     1       1.098  -5.965   1.732  0.00  0.00    -0.270 N 
ATOM      2  C   UNL     1       0.650  -6.726   2.790  0.00  0.00    +0.169 A 
ATOM      3  N   UNL     1       1.012  -7.966   2.552  0.00  0.00    -0.128 NA
ATOM      4  N   UNL     1       1.645  -8.033   1.436  0.00  0.00    -0.122 NA
ATOM      5  C   UNL     1       1.723  -6.841   0.888  0.00  0.00    +0.197 A 
ENDROOT
BRANCH   2   6
ATOM      6  C   UNL     1      -0.095  -6.239   3.969  0.00  0.00    +0.020 A 
ATOM      7  C   UNL     1      -0.735  -4.998   3.931  0.00  0.00    +0.011 A 
ATOM      8  C   UNL     1      -1.430  -4.550   5.035  0.00  0.00    +0.001 A 
ATOM      9  C   UNL     1      -1.493  -5.326   6.179  0.00  0.00    +0.003 A 
ATOM     10  C   UNL     1      -0.861  -6.556   6.224  0.00  0.00    -0.050 A 
ATOM     11  C   UNL     1      -0.167  -7.019   5.125  0.00  0.00    +0.015 A 
ATOM     12  C   UNL     1      -0.934  -7.394   7.474  0.00  0.00    +0.044 C 
ENDBRANCH   2   6
BRANCH   1  16
ATOM     13  C   UNL     1       0.628  -1.853   1.207  0.00  0.00    +0.121 A 
ATOM     14  C   UNL     1      -0.038  -2.740   0.373  0.00  0.00    +0.047 A 
ATOM     15  C   UNL     1       0.118  -4.101   0.546  0.00  0.00    +0.030 A 
ATOM     16  C   UNL     1       0.940  -4.582   1.556  0.00  0.00    +0.051 A 
ATOM     17  C   UNL     1       1.606  -3.695   2.390  0.00  0.00    +0.030 A 
ATOM     18  C   UNL     1       1.454  -2.334   2.213  0.00  0.00    +0.047 A 
BRANCH  13  19
ATOM     19  O   UNL     1       0.474  -0.513   1.036  0.00  0.00    -0.492 OA
BRANCH  19  21
ATOM     20  C   UNL     1      -0.438   1.440  -0.056  0.00  0.00    +0.048 C 
ATOM     21  C   UNL     1      -0.392  -0.089  -0.018  0.00  0.00    +0.225 C 
ENDBRANCH  19  21
ENDBRANCH  13  19
ENDBRANCH   1  16
BRANCH   5  22
ATOM     22  S   UNL     1       2.494  -6.444  -0.646  0.00  0.00    -0.075 S 
BRANCH  22  23
ATOM     23  C   UNL     1       3.118  -8.037  -1.249  0.00  0.00    +0.119 C 
ATOM     24  C   UNL     1       1.940  -8.968  -1.543  0.00  0.00    +0.028 C 
BRANCH  23  25
ATOM     25  C   UNL     1       3.914  -7.820  -2.510  0.00  0.00    +0.149 A 
ATOM     26  N   UNL     1       3.448  -7.022  -3.454  0.00  0.00    -0.198 NA
ATOM     27  C   UNL     1       4.149  -6.827  -4.569  0.00  0.00    +0.217 A 
ATOM     28  N   UNL     1       5.318  -7.437  -4.732  0.00  0.00    -0.181 NA
ATOM     29  C   UNL     1       5.783  -8.239  -3.780  0.00  0.00    +0.222 A 
ATOM     30  N   UNL     1       5.079  -8.425  -2.666  0.00  0.00    -0.198 NA
ATOM     31  N   UNL     1       6.997  -8.875  -3.944  0.00  0.00    -0.306 N 
ATOM     32  C   UNL     1       7.773  -8.666  -5.169  0.00  0.00    +0.132 C 
ATOM     33  C   UNL     1       7.508  -9.759  -2.894  0.00  0.00    +0.132 C 
ATOM     34  N   UNL     1       3.662  -5.994  -5.555  0.00  0.00    -0.327 N 
ATOM     35  H   UNL     1       2.808  -5.549  -5.436  0.00  0.00    +0.145 HD
ATOM     36  H   UNL     1       4.173  -5.853  -6.367  0.00  0.00    +0.145 HD
ENDBRANCH  23  25
ENDBRANCH  22  23
ENDBRANCH   5  22
TORSDOF 7
