REMARK  Name = ZINC21227563
REMARK  7 active torsions:
REMARK  status: ('A' for Active; 'I' for Inactive)
REMARK    1  A    between atoms: C_1  and  C_2
REMARK    2  A    between atoms: C_7  and  N_8
REMARK    3  A    between atoms: C_17  and  S_18
REMARK    4  A    between atoms: S_18  and  C_19
REMARK    5  A    between atoms: C_19  and  C_21
REMARK    6  A    between atoms: C_19  and  C_22
REMARK    7  A    between atoms: N_24  and  C_25
REMARK                            x       y       z     vdW  Elec       q    Type
REMARK                         _______ _______ _______ _____ _____    ______ ____
ROOT
ATOM      1  N   UNL     1       4.527   4.990   1.355  0.00  0.00    -0.255 N 
ATOM      2  C   UNL     1       3.592   4.155   0.863  0.00  0.00    +0.268 A 
ATOM      3  O   UNL     1       3.304   4.178  -0.321  0.00  0.00    -0.267 OA
ATOM      4  C   UNL     1       2.942   3.240   1.751  0.00  0.00    +0.076 A 
ATOM      5  C   UNL     1       1.905   2.253   1.430  0.00  0.00    -0.023 A 
ATOM      6  C   UNL     1       1.439   1.509   2.453  0.00  0.00    -0.004 A 
ATOM      7  S   UNL     1       2.349   2.054   3.875  0.00  0.00    -0.073 S 
ATOM      8  C   UNL     1       3.347   3.296   3.093  0.00  0.00    +0.117 A 
ATOM      9  N   UNL     1       4.279   4.143   3.517  0.00  0.00    -0.215 NA
ATOM     10  C   UNL     1       4.862   4.976   2.680  0.00  0.00    +0.178 A 
ATOM     11  C   UNL     1       0.382   0.450   2.412  0.00  0.00    +0.043 C 
ATOM     12  C   UNL     1       0.684  -0.523   1.264  0.00  0.00    +0.005 C 
ATOM     13  C   UNL     1       0.002  -0.004   0.002  0.00  0.00    +0.001 C 
ATOM     14  C   UNL     1      -0.019   1.523   0.010  0.00  0.00    +0.005 C 
ATOM     15  C   UNL     1       1.401   2.078  -0.000  0.00  0.00    +0.037 C 
ENDROOT
BRANCH   1  22
ATOM     16  C   UNL     1       6.916   4.143   0.060  0.00  0.00    +0.046 C 
ATOM     17  C   UNL     1       6.335   5.516  -0.159  0.00  0.00    -0.026 A 
ATOM     18  C   UNL     1       6.964   6.406  -1.009  0.00  0.00    +0.005 A 
ATOM     19  C   UNL     1       6.432   7.666  -1.211  0.00  0.00    +0.000 A 
ATOM     20  C   UNL     1       5.269   8.040  -0.563  0.00  0.00    +0.002 A 
ATOM     21  C   UNL     1       4.632   7.154   0.284  0.00  0.00    +0.026 A 
ATOM     22  C   UNL     1       5.167   5.889   0.493  0.00  0.00    +0.055 A 
ENDBRANCH   1  22
BRANCH  10  23
ATOM     23  S   UNL     1       6.092   6.089   3.277  0.00  0.00    -0.075 S 
BRANCH  23  24
ATOM     24  C   UNL     1       6.108   5.629   5.027  0.00  0.00    +0.137 C 
ATOM     25  C   UNL     1       4.757   5.973   5.658  0.00  0.00    +0.029 C 
BRANCH  24  26
ATOM     26  C   UNL     1       7.201   6.388   5.735  0.00  0.00    +0.226 C 
ATOM     27  O   UNL     1       7.590   7.447   5.291  0.00  0.00    -0.275 OA
ATOM     28  N   UNL     1       7.746   5.889   6.863  0.00  0.00    -0.312 N 
ATOM     29  H   UNL     1       7.393   4.928   7.266  0.00  0.00    +0.149 HD
BRANCH  28  30
ATOM     30  C   UNL     1       8.808   6.626   7.551  0.00  0.00    +0.073 C 
ATOM     31  C   UNL     1      10.012   5.827   8.053  0.00  0.00    +0.024 C 
ATOM     32  C   UNL     1       8.987   6.373   9.050  0.00  0.00    +0.024 C 
ENDBRANCH  28  30
ENDBRANCH  24  26
ENDBRANCH  23  24
ENDBRANCH  10  23
TORSDOF 5
