REMARK  Name = ZINC64588303
REMARK  11 active torsions:
REMARK  status: ('A' for Active; 'I' for Inactive)
REMARK    1  A    between atoms: C_1  and  C_2
REMARK    2  A    between atoms: C_2  and  C_3
REMARK    3  A    between atoms: C_3  and  C_5
REMARK    4  A    between atoms: C_3  and  N_6
REMARK    5  A    between atoms: C_7  and  C_9
REMARK    6  A    between atoms: N_18  and  C_21
REMARK    7  A    between atoms: C_21  and  C_22
REMARK    8  A    between atoms: C_22  and  C_24
REMARK    9  A    between atoms: N_30  and  C_33
REMARK   10  A    between atoms: C_33  and  C_34
REMARK   11  A    between atoms: C_33  and  C_35
REMARK                            x       y       z     vdW  Elec       q    Type
REMARK                         _______ _______ _______ _____ _____    ______ ____
ROOT
ATOM      1  C   UNL     1       4.246   0.462  -2.305  0.00  0.00    +0.039 A 
ATOM      2  C   UNL     1       4.862   0.696  -1.073  0.00  0.00    +0.014 A 
ATOM      3  C   UNL     1       6.184   1.078  -1.020  0.00  0.00    +0.016 A 
ATOM      4  C   UNL     1       6.909   1.232  -2.201  0.00  0.00    +0.064 A 
ATOM      5  C   UNL     1       6.295   0.999  -3.440  0.00  0.00    +0.067 A 
ATOM      6  C   UNL     1       4.966   0.609  -3.488  0.00  0.00    +0.040 A 
ATOM      7  N   UNL     1       7.036   1.159  -4.611  0.00  0.00    -0.229 N 
ATOM      8  C   UNL     1       8.357   1.541  -4.556  0.00  0.00    +0.240 A 
ATOM      9  N   UNL     1       8.816   1.617  -5.776  0.00  0.00    -0.129 NA
ATOM     10  N   UNL     1       7.779   1.279  -6.654  0.00  0.00    -0.203 N 
ATOM     11  C   UNL     1       6.692   1.000  -5.907  0.00  0.00    +0.353 A 
ATOM     12  O   UNL     1       5.598   0.666  -6.325  0.00  0.00    -0.244 OA
ATOM     13  N   UNL     1       8.989   1.778  -3.342  0.00  0.00    -0.274 N 
ATOM     14  C   UNL     1       8.327   1.642  -2.176  0.00  0.00    +0.263 A 
ATOM     15  O   UNL     1       8.890   1.853  -1.119  0.00  0.00    -0.267 OA
ENDROOT
BRANCH   1  17
ATOM     16  N   UNL     1       2.125  -0.091  -1.209  0.00  0.00    -0.309 N 
ATOM     17  C   UNL     1       2.824   0.051  -2.353  0.00  0.00    +0.244 C 
ATOM     18  O   UNL     1       2.288  -0.157  -3.423  0.00  0.00    -0.270 OA
ATOM     19  H   UNL     1       2.553   0.075  -0.355  0.00  0.00    +0.149 HD
BRANCH  16  20
ATOM     20  C   UNL     1       0.718  -0.497  -1.257  0.00  0.00    +0.070 C 
ATOM     21  C   UNL     1       0.630  -2.023  -1.329  0.00  0.00    +0.028 C 
BRANCH  20  23
ATOM     22  C   UNL     1      -0.019   1.526   0.010  0.00  0.00    +0.005 C 
ATOM     23  C   UNL     1       0.002  -0.004   0.002  0.00  0.00    +0.018 C 
ENDBRANCH  20  23
ENDBRANCH  16  20
ENDBRANCH   1  17
BRANCH  13  24
ATOM     24  C   UNL     1      10.396   2.184  -3.329  0.00  0.00    +0.088 C 
ATOM     25  C   UNL     1      10.526   3.553  -2.659  0.00  0.00    +0.031 C 
ATOM     26  C   UNL     1      11.217   1.154  -2.550  0.00  0.00    +0.031 C 
ENDBRANCH  13  24
BRANCH  10  27
ATOM     27  C   UNL     1       7.861   1.235  -8.116  0.00  0.00    +0.228 C 
BRANCH  27  28
ATOM     28  C   UNL     1       7.497   2.585  -8.680  0.00  0.00    +0.184 C 
ATOM     29  O   UNL     1       7.199   3.493  -7.934  0.00  0.00    -0.290 OA
BRANCH  28  30
ATOM     30  C   UNL     1       7.503   2.800 -10.136  0.00  0.00    +0.019 A 
ATOM     31  C   UNL     1       7.841   1.753 -10.999  0.00  0.00    +0.011 A 
ATOM     32  C   UNL     1       7.844   1.963 -12.362  0.00  0.00    +0.001 A 
ATOM     33  C   UNL     1       7.514   3.205 -12.876  0.00  0.00    +0.000 A 
ATOM     34  C   UNL     1       7.179   4.246 -12.027  0.00  0.00    +0.001 A 
ATOM     35  C   UNL     1       7.166   4.051 -10.663  0.00  0.00    +0.011 A 
ENDBRANCH  28  30
ENDBRANCH  27  28
ENDBRANCH  10  27
TORSDOF 7
