REMARK  Name = ZINC01900371
REMARK  10 active torsions:
REMARK  status: ('A' for Active; 'I' for Inactive)
REMARK    1  A    between atoms: C_1  and  O_2
REMARK    2  A    between atoms: O_2  and  C_3
REMARK    3  A    between atoms: C_6  and  C_9
REMARK    4  A    between atoms: N_10  and  N_11
REMARK    5  A    between atoms: C_13  and  C_27
REMARK    6  A    between atoms: C_15  and  N_16
REMARK    7  A    between atoms: C_17  and  C_18
REMARK    8  A    between atoms: C_23  and  O_24
REMARK    9  A    between atoms: C_30  and  O_33
REMARK   10  A    between atoms: O_33  and  C_34
REMARK                            x       y       z     vdW  Elec       q    Type
REMARK                         _______ _______ _______ _____ _____    ______ ____
ROOT
ATOM      1  N   UNL     1      -3.873  -4.737  -0.009  0.00  0.00    -0.205 N 
ATOM      2  C   UNL     1      -2.603  -4.250   0.160  0.00  0.00    +0.142 A 
ATOM      3  C   UNL     1      -1.761  -5.320   0.132  0.00  0.00    +0.068 A 
ATOM      4  N   UNL     1      -2.498  -6.431  -0.049  0.00  0.00    -0.322 N 
ATOM      5  C   UNL     1      -3.771  -6.098  -0.130  0.00  0.00    +0.230 A 
ATOM      6  H   UNL     1      -2.148  -7.334  -0.106  0.00  0.00    +0.169 HD
ENDROOT
BRANCH   3   7
ATOM      7  C   UNL     1      -0.285  -5.269   0.275  0.00  0.00    +0.000 A 
ATOM      8  C   UNL     1       0.459  -6.448   0.264  0.00  0.00    +0.013 A 
ATOM      9  C   UNL     1       1.830  -6.397   0.398  0.00  0.00    +0.046 A 
ATOM     10  C   UNL     1       2.470  -5.174   0.543  0.00  0.00    +0.120 A 
ATOM     11  C   UNL     1       1.732  -3.998   0.555  0.00  0.00    +0.046 A 
ATOM     12  C   UNL     1       0.361  -4.042   0.416  0.00  0.00    +0.013 A 
BRANCH  10  13
ATOM     13  O   UNL     1       3.822  -5.127   0.675  0.00  0.00    -0.495 OA
ATOM     14  C   UNL     1       4.416  -3.836   0.821  0.00  0.00    +0.277 C 
ENDBRANCH  10  13
ENDBRANCH   3   7
BRANCH   1  16
ATOM     15  C   UNL     1      -5.823  -4.033  -1.089  0.00  0.00    +0.141 C 
ATOM     16  N   UNL     1      -5.054  -3.985  -0.044  0.00  0.00    -0.172 NA
BRANCH  15  20
ATOM     17  C   UNL     1      -4.385  -5.725  -4.707  0.00  0.00    +0.120 A 
ATOM     18  C   UNL     1      -3.495  -5.413  -3.687  0.00  0.00    +0.046 A 
ATOM     19  C   UNL     1      -3.957  -4.863  -2.511  0.00  0.00    +0.013 A 
ATOM     20  C   UNL     1      -5.324  -4.620  -2.345  0.00  0.00    -0.005 A 
ATOM     21  C   UNL     1      -6.215  -4.936  -3.375  0.00  0.00    +0.013 A 
ATOM     22  C   UNL     1      -5.743  -5.480  -4.549  0.00  0.00    +0.046 A 
BRANCH  17  24
ATOM     23  C   UNL     1      -2.517  -6.492  -5.961  0.00  0.00    +0.277 C 
ATOM     24  O   UNL     1      -3.925  -6.266  -5.865  0.00  0.00    -0.495 OA
ENDBRANCH  17  24
ENDBRANCH  15  20
ENDBRANCH   1  16
BRANCH   5  25
ATOM     25  N   UNL     1      -4.806  -6.959  -0.306  0.00  0.00    -0.220 NA
ATOM     26  C   UNL     1      -4.580  -8.242  -0.408  0.00  0.00    +0.126 C 
BRANCH  26  27
ATOM     27  C   UNL     1      -5.699  -9.173  -0.599  0.00  0.00    +0.037 A 
ATOM     28  C   UNL     1      -5.462 -10.549  -0.703  0.00  0.00    +0.028 A 
ATOM     29  C   UNL     1      -6.518 -11.416  -0.881  0.00  0.00    +0.020 A 
ATOM     30  C   UNL     1      -7.815 -10.933  -0.959  0.00  0.00    +0.034 A 
ATOM     31  C   UNL     1      -8.064  -9.578  -0.858  0.00  0.00    +0.061 A 
ATOM     32  C   UNL     1      -7.015  -8.690  -0.672  0.00  0.00    +0.139 A 
ATOM     33 BR   UNL     1      -9.838  -8.933  -0.966  0.00  0.00    -0.046 Br
ATOM     34 BR   UNL     1      -6.196 -13.274  -1.022  0.00  0.00    -0.050 Br
BRANCH  32  35
ATOM     35  O   UNL     1      -7.259  -7.359  -0.567  0.00  0.00    -0.505 OA
ATOM     36  H   UNL     1      -7.250  -6.889  -1.413  0.00  0.00    +0.292 HD
ENDBRANCH  32  35
ENDBRANCH  26  27
ENDBRANCH   5  25
TORSDOF 8
