REMARK  Name = ZINC35584662
REMARK  9 active torsions:
REMARK  status: ('A' for Active; 'I' for Inactive)
REMARK    1  A    between atoms: C_1  and  C_2
REMARK    2  A    between atoms: C_2  and  C_3
REMARK    3  A    between atoms: C_3  and  N_4
REMARK    4  A    between atoms: N_4  and  C_5
REMARK    5  A    between atoms: C_5  and  C_7
REMARK    6  A    between atoms: C_5  and  C_19
REMARK    7  A    between atoms: C_19  and  C_20
REMARK    8  A    between atoms: C_19  and  C_21
REMARK    9  A    between atoms: C_19  and  C_22
REMARK                            x       y       z     vdW  Elec       q    Type
REMARK                         _______ _______ _______ _____ _____    ______ ____
ROOT
ATOM      1  C   UNL     1       1.661  -4.053   2.287  0.00  0.00    -0.039 A 
ATOM      2  C   UNL     1       0.915  -4.763   1.362  0.00  0.00    +0.052 A 
ATOM      3  C   UNL     1       1.107  -6.127   1.228  0.00  0.00    +0.162 A 
ATOM      4  C   UNL     1       2.043  -6.780   2.017  0.00  0.00    +0.163 A 
ATOM      5  C   UNL     1       2.788  -6.068   2.941  0.00  0.00    +0.069 A 
ATOM      6  C   UNL     1       2.599  -4.702   3.070  0.00  0.00    +0.046 A 
ATOM      7 CL   UNL     1       3.536  -3.803   4.222  0.00  0.00    -0.083 Cl
ATOM      8  O   UNL     1       2.224  -8.125   1.876  0.00  0.00    -0.488 OA
ATOM      9  C   UNL     1       1.137  -8.950   2.299  0.00  0.00    +0.232 C 
ATOM     10  C   UNL     1       0.102  -9.086   1.194  0.00  0.00    +0.082 C 
ATOM     11  C   UNL     1      -0.568  -7.762   0.861  0.00  0.00    +0.232 C 
ATOM     12  O   UNL     1       0.378  -6.838   0.319  0.00  0.00    -0.488 OA
ENDROOT
BRANCH   1  13
ATOM     13  C   UNL     1       1.456  -2.568   2.436  0.00  0.00    -0.034 C 
BRANCH  13  14
ATOM     14  C   UNL     1       0.572  -2.295   3.655  0.00  0.00    -0.046 C 
ATOM     15  C   UNL     1      -0.768  -3.012   3.483  0.00  0.00    +0.009 C 
ATOM     16  C   UNL     1       1.268  -2.811   4.916  0.00  0.00    +0.009 C 
ATOM     17  C   UNL     1       0.332  -0.789   3.784  0.00  0.00    +0.009 C 
ENDBRANCH  13  14
BRANCH  13  18
ATOM     18  N   UNL     1       0.804  -2.040   1.230  0.00  0.00    +0.384 N 
ATOM     19  H   UNL     1       0.577  -1.067   1.370  0.00  0.00    -0.085 HD
ATOM     20  H   UNL     1      -0.041  -2.560   1.049  0.00  0.00    -0.085 HD
BRANCH  18  21
ATOM     21  C   UNL     1       1.714  -2.170   0.085  0.00  0.00    -0.082 C 
BRANCH  21  23
ATOM     22  C   UNL     1       1.942  -1.868  -2.385  0.00  0.00    +0.002 C 
ATOM     23  C   UNL     1       0.994  -1.732  -1.192  0.00  0.00    -0.022 C 
ENDBRANCH  21  23
ENDBRANCH  18  21
ENDBRANCH  13  18
ENDBRANCH   1  13
TORSDOF 5
