REMARK  Name = ZINC65494953
REMARK  7 active torsions:
REMARK  status: ('A' for Active; 'I' for Inactive)
REMARK    1  A    between atoms: C_1  and  C_2
REMARK    2  A    between atoms: C_4  and  C_8
REMARK    3  A    between atoms: C_5  and  C_7
REMARK    4  A    between atoms: C_8  and  C_9
REMARK    5  A    between atoms: C_8  and  N_10
REMARK    6  A    between atoms: N_13  and  C_14
REMARK    7  A    between atoms: N_13  and  C_15
REMARK                            x       y       z     vdW  Elec       q    Type
REMARK                         _______ _______ _______ _____ _____    ______ ____
ROOT
ATOM      1  N   UNL     1      -2.786  -3.079   0.471  0.00  0.00    -0.293 N 
ATOM      2  C   UNL     1      -3.542  -4.045   1.030  0.00  0.00    +0.303 C 
ATOM      3  O   UNL     1      -3.104  -5.174   1.135  0.00  0.00    -0.253 OA
ATOM      4  N   UNL     1      -4.782  -3.758   1.472  0.00  0.00    -0.286 N 
ATOM      5  C   UNL     1      -5.309  -2.397   1.344  0.00  0.00    +0.134 C 
ATOM      6  H   UNL     1      -3.135  -2.178   0.387  0.00  0.00    +0.151 HD
ENDROOT
BRANCH   4   7
ATOM      7  C   UNL     1      -5.604  -4.808   2.079  0.00  0.00    +0.077 C 
ATOM      8  C   UNL     1      -6.889  -4.983   1.267  0.00  0.00    +0.022 C 
ATOM      9  C   UNL     1      -7.747  -6.080   1.902  0.00  0.00    +0.002 C 
ATOM     10  C   UNL     1      -8.101  -5.684   3.337  0.00  0.00    +0.000 C 
ATOM     11  C   UNL     1      -6.816  -5.509   4.149  0.00  0.00    +0.002 C 
ATOM     12  C   UNL     1      -5.957  -4.413   3.514  0.00  0.00    +0.022 C 
ENDBRANCH   4   7
BRANCH   1  13
ATOM     13  C   UNL     1      -1.437  -3.390  -0.009  0.00  0.00    +0.105 C 
ATOM     14  C   UNL     1      -1.518  -3.946  -1.432  0.00  0.00    +0.033 C 
BRANCH  13  18
ATOM     15  C   UNL     1      -0.018   1.503   0.010  0.00  0.00    +0.086 C 
ATOM     16  C   UNL     1       0.002  -0.004   0.002  0.00  0.00    +0.103 A 
ATOM     17  C   UNL     1      -1.078  -0.805   0.003  0.00  0.00    +0.050 A 
ATOM     18  C   UNL     1      -0.601  -2.136  -0.007  0.00  0.00    +0.013 A 
ATOM     19  C   UNL     1       0.742  -2.069  -0.013  0.00  0.00    +0.107 A 
ATOM     20  O   UNL     1       1.102  -0.775  -0.013  0.00  0.00    -0.465 OA
ATOM     21  C   UNL     1       1.684  -3.245  -0.023  0.00  0.00    +0.086 C 
ENDBRANCH  13  18
ENDBRANCH   1  13
TORSDOF 3
