REMARK  Name = ZINC09480063
REMARK  3 active torsions:
REMARK  status: ('A' for Active; 'I' for Inactive)
REMARK    1  A    between atoms: C_1  and  C_2
REMARK    2  A    between atoms: N_23  and  C_26
REMARK    3  A    between atoms: C_29  and  N_32
REMARK                            x       y       z     vdW  Elec       q    Type
REMARK                         _______ _______ _______ _____ _____    ______ ____
ROOT
ATOM      1  C   UNL     1       0.162   6.948   2.528  0.00  0.00    +0.047 C 
ATOM      2  C   UNL     1      -0.171   5.484   2.405  0.00  0.00    -0.011 A 
ATOM      3  C   UNL     1      -1.425   5.030   2.761  0.00  0.00    +0.046 A 
ATOM      4  C   UNL     1      -1.739   3.687   2.652  0.00  0.00    +0.020 A 
ATOM      5  C   UNL     1      -0.792   2.794   2.182  0.00  0.00    +0.006 A 
ATOM      6  C   UNL     1       0.460   3.243   1.825  0.00  0.00    -0.027 A 
ATOM      7  C   UNL     1       0.788   4.592   1.931  0.00  0.00    +0.040 A 
ATOM      8  N   UNL     1       2.104   4.803   1.514  0.00  0.00    -0.286 N 
ATOM      9  C   UNL     1       2.703   3.660   1.124  0.00  0.00    +0.212 C 
ATOM     10  O   UNL     1       3.838   3.542   0.716  0.00  0.00    -0.277 OA
ATOM     11  C   UNL     1       1.689   2.561   1.293  0.00  0.00    +0.053 C 
ATOM     12  C   UNL     1       1.403   1.855  -0.037  0.00  0.00    +0.089 C 
ATOM     13  C   UNL     1       2.261   0.561   0.011  0.00  0.00    +0.074 C 
ATOM     14  C   UNL     1       2.990   0.611   1.366  0.00  0.00    -0.054 C 
ATOM     15  C   UNL     1       1.032   0.689   2.675  0.00  0.00    -0.076 C 
ATOM     16  C   UNL     1       1.628  -0.712   2.919  0.00  0.00    -0.020 C 
ATOM     17  C   UNL     1       2.920  -0.774   2.035  0.00  0.00    -0.016 C 
ATOM     18  C   UNL     1       1.227  -0.542   0.037  0.00  0.00    +0.228 C 
ATOM     19  O   UNL     1       1.469  -1.729   0.081  0.00  0.00    -0.275 OA
ATOM     20  N   UNL     1       0.002  -0.004   0.002  0.00  0.00    -0.210 N 
ATOM     21  C   UNL     1      -0.016   1.333  -0.043  0.00  0.00    +0.229 C 
ATOM     22  O   UNL     1      -1.014   2.019  -0.086  0.00  0.00    -0.275 OA
ATOM     23 CL   UNL     1      -2.614   6.150   3.350  0.00  0.00    -0.083 Cl
ATOM     24  H   UNL     1       2.537   5.670   1.506  0.00  0.00    +0.155 HD
ATOM     25  N   UNL     1       2.168   1.487   2.168  0.00  0.00    +0.395 N 
ATOM     26  H   UNL     1       2.704   1.879   2.951  0.00  0.00    -0.079 HD
ENDROOT
BRANCH  20  27
ATOM     27  C   UNL     1      -1.167  -0.778   0.012  0.00  0.00    +0.044 A 
ATOM     28  C   UNL     1      -2.011  -0.749   1.114  0.00  0.00    +0.026 A 
ATOM     29  C   UNL     1      -3.164  -1.509   1.119  0.00  0.00    +0.034 A 
ATOM     30  C   UNL     1      -3.473  -2.306   0.032  0.00  0.00    +0.126 A 
ATOM     31  C   UNL     1      -2.631  -2.342  -1.064  0.00  0.00    +0.034 A 
ATOM     32  C   UNL     1      -1.480  -1.580  -1.077  0.00  0.00    +0.026 A 
BRANCH  30  33
ATOM     33  N   UNL     1      -4.707  -3.124   0.043  0.00  0.00    +0.056 N 
ATOM     34  O   UNL     1      -4.980  -3.827  -0.913  0.00  0.00    -0.126 OA
ATOM     35  O   UNL     1      -5.449  -3.094   1.008  0.00  0.00    -0.126 OA
ENDBRANCH  30  33
ENDBRANCH  20  27
TORSDOF 2
