REMARK  Name = ZINC42639752
REMARK  9 active torsions:
REMARK  status: ('A' for Active; 'I' for Inactive)
REMARK    1  A    between atoms: C_1  and  C_2
REMARK    2  A    between atoms: C_2  and  C_3
REMARK    3  A    between atoms: C_3  and  C_4
REMARK    4  A    between atoms: C_4  and  N_5
REMARK    5  A    between atoms: C_6  and  C_20
REMARK    6  A    between atoms: C_7  and  C_19
REMARK    7  A    between atoms: C_9  and  S_10
REMARK    8  A    between atoms: S_10  and  C_11
REMARK    9  A    between atoms: C_11  and  C_12
REMARK                            x       y       z     vdW  Elec       q    Type
REMARK                         _______ _______ _______ _____ _____    ______ ____
ROOT
ATOM      1  N   UNL     1       1.425  -2.500  -2.470  0.00  0.00    -0.324 N 
ATOM      2  C   UNL     1       0.845  -2.769  -3.690  0.00  0.00    +0.037 A 
ATOM      3  C   UNL     1       1.829  -3.175  -4.510  0.00  0.00    +0.034 A 
ATOM      4  N   UNL     1       2.985  -3.160  -3.825  0.00  0.00    -0.338 N 
ATOM      5  C   UNL     1       2.756  -2.751  -2.599  0.00  0.00    +0.147 A 
ATOM      6  C   UNL     1       1.664  -3.580  -5.953  0.00  0.00    +0.065 C 
ATOM      7  C   UNL     1      -0.615  -2.634  -4.039  0.00  0.00    +0.065 C 
ATOM      8  H   UNL     1       3.852  -3.409  -4.181  0.00  0.00    +0.168 HD
ENDROOT
BRANCH   1   9
ATOM      9  C   UNL     1       0.739  -2.027  -1.265  0.00  0.00    +0.124 C 
BRANCH   9  10
ATOM     10  C   UNL     1       0.718  -0.497  -1.257  0.00  0.00    +0.021 C 
BRANCH  10  12
ATOM     11  C   UNL     1      -0.019   1.526   0.010  0.00  0.00    +0.004 C 
ATOM     12  C   UNL     1       0.002  -0.004   0.002  0.00  0.00    -0.002 C 
ENDBRANCH  10  12
ENDBRANCH   9  10
ENDBRANCH   1   9
BRANCH   5  13
ATOM     13  S   UNL     1       3.967  -2.562  -1.333  0.00  0.00    -0.087 S 
BRANCH  13  14
ATOM     14  C   UNL     1       5.520  -3.050  -2.134  0.00  0.00    +0.109 C 
BRANCH  14  15
ATOM     15  C   UNL     1       6.670  -2.932  -1.133  0.00  0.00    +0.128 C 
ATOM     16  C   UNL     1       7.996  -3.224  -1.840  0.00  0.00    +0.032 C 
ATOM     17  C   UNL     1       9.136  -3.162  -0.819  0.00  0.00    +0.005 C 
ATOM     18  C   UNL     1       8.848  -4.156   0.311  0.00  0.00    +0.028 C 
ATOM     19  C   UNL     1       7.490  -3.828   0.935  0.00  0.00    +0.160 C 
ATOM     20  O   UNL     1       6.479  -3.872  -0.074  0.00  0.00    -0.376 OA
ENDBRANCH  14  15
ENDBRANCH  13  14
ENDBRANCH   5  13
TORSDOF 6
