REMARK  Name = ZINC65534616
REMARK  3 active torsions:
REMARK  status: ('A' for Active; 'I' for Inactive)
REMARK    1  A    between atoms: C_5  and  C_7
REMARK    2  A    between atoms: C_7  and  N_8
REMARK    3  A    between atoms: C_16  and  C_18
REMARK                            x       y       z     vdW  Elec       q    Type
REMARK                         _______ _______ _______ _____ _____    ______ ____
ROOT
ATOM      1  N   UNL     1       1.594  -2.620   1.329  0.00  0.00    -0.304 N 
ATOM      2  C   UNL     1       2.894  -2.756   1.834  0.00  0.00    +0.053 A 
ATOM      3  C   UNL     1       4.126  -2.531   1.230  0.00  0.00    +0.025 A 
ATOM      4  C   UNL     1       5.294  -2.737   1.938  0.00  0.00    +0.002 A 
ATOM      5  C   UNL     1       5.243  -3.169   3.250  0.00  0.00    +0.002 A 
ATOM      6  C   UNL     1       4.024  -3.396   3.859  0.00  0.00    +0.025 A 
ATOM      7  C   UNL     1       2.843  -3.191   3.155  0.00  0.00    +0.050 A 
ATOM      8  N   UNL     1       1.508  -3.351   3.551  0.00  0.00    -0.323 N 
ATOM      9  C   UNL     1       0.666  -2.987   2.405  0.00  0.00    +0.182 C 
ATOM     10  H   UNL     1       1.198  -3.644   4.422  0.00  0.00    +0.148 HD
ENDROOT
BRANCH   9  11
ATOM     11  C   UNL     1      -0.188  -4.184   1.981  0.00  0.00    +0.141 C 
ATOM     12  C   UNL     1      -1.210  -4.483   3.049  0.00  0.00    +0.057 A 
ATOM     13  H   UNL     1      -2.855  -6.354   4.930  0.00  0.00    +0.166 HD
ATOM     14  C   UNL     1      -1.493  -5.735   3.476  0.00  0.00    +0.039 A 
ATOM     15  N   UNL     1      -2.449  -5.626   4.435  0.00  0.00    -0.349 N 
ATOM     16  C   UNL     1      -2.726  -4.308   4.567  0.00  0.00    +0.171 A 
ATOM     17  N   UNL     1      -1.978  -3.633   3.732  0.00  0.00    -0.348 N 
ATOM     18  C   UNL     1      -0.824  -6.971   2.929  0.00  0.00    +0.070 C 
ATOM     19  C   UNL     1      -0.131  -6.588   1.614  0.00  0.00    +0.088 C 
ATOM     20  N   UNL     1       0.668  -5.371   1.814  0.00  0.00    -0.305 NA
ATOM     21  H   UNL     1       1.324  -5.240   1.058  0.00  0.00    +0.123 HD
ATOM     22  H   UNL     1      -1.982  -2.669   3.626  0.00  0.00    +0.166 HD
ENDBRANCH   9  11
BRANCH   1  23
ATOM     23  C   UNL     1       1.229  -2.186  -0.022  0.00  0.00    +0.143 C 
BRANCH  23  28
ATOM     24  C   UNL     1      -0.774   1.010   0.155  0.00  0.00    +0.000 A 
ATOM     25  C   UNL     1       0.219   1.965   0.041  0.00  0.00    +0.001 A 
ATOM     26  C   UNL     1       1.539   1.578  -0.094  0.00  0.00    +0.020 A 
ATOM     27  C   UNL     1       1.866   0.234  -0.114  0.00  0.00    +0.046 A 
ATOM     28  C   UNL     1       0.873  -0.722   0.001  0.00  0.00    -0.012 A 
ATOM     29  C   UNL     1      -0.447  -0.333   0.135  0.00  0.00    +0.006 A 
ATOM     30 CL   UNL     1       3.524  -0.254  -0.284  0.00  0.00    -0.083 Cl
ENDBRANCH  23  28
ENDBRANCH   1  23
TORSDOF 3
