REMARK  Name = ZINC38704692
REMARK  10 active torsions:
REMARK  status: ('A' for Active; 'I' for Inactive)
REMARK    1  A    between atoms: C_1  and  C_2
REMARK    2  A    between atoms: C_2  and  C_3
REMARK    3  A    between atoms: C_3  and  C_4
REMARK    4  A    between atoms: C_4  and  N_5
REMARK    5  A    between atoms: C_6  and  C_25
REMARK    6  A    between atoms: C_9  and  C_16
REMARK    7  A    between atoms: C_17  and  C_24
REMARK    8  A    between atoms: C_19  and  C_23
REMARK    9  A    between atoms: C_21  and  O_22
REMARK   10  A    between atoms: C_28  and  C_31
REMARK                            x       y       z     vdW  Elec       q    Type
REMARK                         _______ _______ _______ _____ _____    ______ ____
ROOT
ATOM      1  N   UNL     1      -2.835  -2.621   0.077  0.00  0.00    -0.285 N 
ATOM      2  C   UNL     1      -3.695  -2.864   1.243  0.00  0.00    +0.141 C 
ATOM      3  C   UNL     1      -5.002  -3.372   0.698  0.00  0.00    +0.035 A 
ATOM      4  C   UNL     1      -6.296  -3.827   0.971  0.00  0.00    +0.102 A 
ATOM      5  N   UNL     1      -6.869  -4.104  -0.184  0.00  0.00    -0.173 NA
ATOM      6  N   UNL     1      -6.064  -3.869  -1.158  0.00  0.00    -0.272 N 
ATOM      7  H   UNL     1      -6.273  -4.001  -2.097  0.00  0.00    +0.189 HD
ATOM      8  C   UNL     1      -4.872  -3.407  -0.677  0.00  0.00    +0.126 A 
ATOM      9  C   UNL     1      -3.530  -2.934  -1.032  0.00  0.00    +0.265 C 
ATOM     10  O   UNL     1      -3.104  -2.841  -2.167  0.00  0.00    -0.268 OA
ENDROOT
BRANCH   4  11
ATOM     11  C   UNL     1      -6.911  -3.972   2.314  0.00  0.00    +0.047 A 
ATOM     12  C   UNL     1      -7.549  -5.159   2.667  0.00  0.00    -0.037 A 
ATOM     13  C   UNL     1      -8.119  -5.289   3.917  0.00  0.00    +0.007 A 
ATOM     14  C   UNL     1      -8.061  -4.244   4.822  0.00  0.00    -0.047 A 
ATOM     15  C   UNL     1      -7.431  -3.062   4.482  0.00  0.00    +0.049 A 
ATOM     16  C   UNL     1      -6.849  -2.920   3.232  0.00  0.00    +0.127 A 
ATOM     17  C   UNL     1      -8.687  -4.395   6.184  0.00  0.00    +0.044 C 
ATOM     18  C   UNL     1      -7.616  -6.300   1.685  0.00  0.00    +0.044 C 
BRANCH  16  19
ATOM     19  O   UNL     1      -6.225  -1.760   2.898  0.00  0.00    -0.506 OA
ATOM     20  H   UNL     1      -6.819  -1.077   2.558  0.00  0.00    +0.292 HD
ENDBRANCH  16  19
ENDBRANCH   4  11
BRANCH   2  21
ATOM     21  C   UNL     1      -3.069  -3.899   2.142  0.00  0.00    -0.022 A 
ATOM     22  C   UNL     1      -2.534  -5.053   1.600  0.00  0.00    +0.006 A 
ATOM     23  C   UNL     1      -1.959  -6.002   2.425  0.00  0.00    +0.004 A 
ATOM     24  C   UNL     1      -1.920  -5.798   3.791  0.00  0.00    -0.050 A 
ATOM     25  C   UNL     1      -2.454  -4.644   4.333  0.00  0.00    +0.004 A 
ATOM     26  C   UNL     1      -3.025  -3.692   3.508  0.00  0.00    +0.006 A 
ATOM     27  C   UNL     1      -1.295  -6.833   4.690  0.00  0.00    +0.044 C 
ENDBRANCH   2  21
BRANCH   1  28
ATOM     28  C   UNL     1      -1.460  -2.118   0.115  0.00  0.00    +0.109 C 
BRANCH  28  29
ATOM     29  C   UNL     1      -1.474  -0.589   0.054  0.00  0.00    +0.019 C 
BRANCH  29  31
ATOM     30  C   UNL     1      -0.053   1.465   0.033  0.00  0.00    +0.004 C 
ATOM     31  C   UNL     1      -0.038  -0.063   0.094  0.00  0.00    -0.002 C 
ENDBRANCH  29  31
ENDBRANCH  28  29
ENDBRANCH   1  28
TORSDOF 6
