REMARK  Name = ZINC30976783
REMARK  9 active torsions:
REMARK  status: ('A' for Active; 'I' for Inactive)
REMARK    1  A    between atoms: C_1  and  C_2
REMARK    2  A    between atoms: C_5  and  C_8
REMARK    3  A    between atoms: C_10  and  C_13
REMARK    4  A    between atoms: C_13  and  N_14
REMARK    5  A    between atoms: C_17  and  C_20
REMARK    6  A    between atoms: N_22  and  C_23
REMARK    7  A    between atoms: C_23  and  C_25
REMARK    8  A    between atoms: C_23  and  C_26
REMARK    9  A    between atoms: C_31  and  C_32
REMARK                            x       y       z     vdW  Elec       q    Type
REMARK                         _______ _______ _______ _____ _____    ______ ____
ROOT
ATOM      1  N   UNL     1      -3.585   7.702   1.880  0.00  0.00    +0.386 N 
ATOM      2  C   UNL     1      -2.574   7.671   2.945  0.00  0.00    -0.077 C 
ATOM      3  C   UNL     1      -1.247   7.163   2.376  0.00  0.00    -0.006 C 
ATOM      4  C   UNL     1      -1.450   5.760   1.798  0.00  0.00    +0.071 C 
ATOM      5  C   UNL     1      -2.541   5.811   0.725  0.00  0.00    -0.006 C 
ATOM      6  C   UNL     1      -3.830   6.358   1.342  0.00  0.00    -0.077 C 
ATOM      7  H   UNL     1      -3.192   8.324   1.062  0.00  0.00    -0.081 HD
ENDROOT
BRANCH   4   8
ATOM      8  C   UNL     1      -0.161   5.279   1.182  0.00  0.00    +0.216 C 
ATOM      9  O   UNL     1       0.823   5.987   1.203  0.00  0.00    -0.276 OA
ATOM     10  N   UNL     1      -0.102   4.060   0.609  0.00  0.00    -0.309 N 
ATOM     11  H   UNL     1      -0.994   3.417   0.590  0.00  0.00    +0.149 HD
BRANCH  10  12
ATOM     12  C   UNL     1       1.151   3.592   0.010  0.00  0.00    +0.100 C 
ATOM     13  C   UNL     1       1.256   4.112  -1.425  0.00  0.00    +0.033 C 
BRANCH  12  14
ATOM     14  C   UNL     1       1.171   2.085   0.002  0.00  0.00    -0.025 A 
ATOM     15  C   UNL     1      -0.017   1.378   0.010  0.00  0.00    +0.006 A 
ATOM     16  C   UNL     1       0.002  -0.004   0.002  0.00  0.00    +0.000 A 
ATOM     17  C   UNL     1       1.209  -0.679  -0.014  0.00  0.00    +0.000 A 
ATOM     18  C   UNL     1       2.396   0.028  -0.021  0.00  0.00    +0.004 A 
ATOM     19  C   UNL     1       2.377   1.411  -0.014  0.00  0.00    -0.046 A 
ATOM     20  C   UNL     1       3.672   2.182  -0.022  0.00  0.00    +0.044 C 
ENDBRANCH  12  14
ENDBRANCH  10  12
ENDBRANCH   4   8
BRANCH   1  21
ATOM     21  C   UNL     1      -4.833   8.314   2.356  0.00  0.00    +0.022 C 
BRANCH  21  24
ATOM     22  C   UNL     1      -7.228   8.355  -0.323  0.00  0.00    +0.202 A 
ATOM     23  N   UNL     1      -6.647   7.718   0.718  0.00  0.00    -0.193 NA
ATOM     24  C   UNL     1      -5.753   8.553   1.187  0.00  0.00    +0.211 A 
ATOM     25  O   UNL     1      -5.815   9.658   0.438  0.00  0.00    -0.340 OA
ATOM     26  N   UNL     1      -6.658   9.528  -0.425  0.00  0.00    -0.056 NA
BRANCH  22  31
ATOM     27  C   UNL     1     -11.421   6.290  -3.688  0.00  0.00    +0.044 C 
ATOM     28  C   UNL     1     -10.324   6.831  -2.808  0.00  0.00    -0.050 A 
ATOM     29  C   UNL     1      -9.819   8.098  -3.036  0.00  0.00    +0.004 A 
ATOM     30  C   UNL     1      -8.814   8.597  -2.233  0.00  0.00    +0.012 A 
ATOM     31  C   UNL     1      -8.309   7.824  -1.190  0.00  0.00    +0.022 A 
ATOM     32  C   UNL     1      -8.819   6.546  -0.967  0.00  0.00    +0.012 A 
ATOM     33  C   UNL     1      -9.827   6.058  -1.774  0.00  0.00    +0.004 A 
ENDBRANCH  22  31
ENDBRANCH  21  24
ENDBRANCH   1  21
TORSDOF 6
