REMARK  Name = ZINC25151475
REMARK  13 active torsions:
REMARK  status: ('A' for Active; 'I' for Inactive)
REMARK    1  A    between atoms: C_1  and  C_2
REMARK    2  A    between atoms: C_5  and  N_9
REMARK    3  A    between atoms: C_6  and  C_8
REMARK    4  A    between atoms: N_9  and  S_10
REMARK    5  A    between atoms: S_10  and  C_13
REMARK    6  A    between atoms: C_16  and  N_22
REMARK    7  A    between atoms: C_17  and  N_19
REMARK    8  A    between atoms: N_22  and  C_23
REMARK    9  A    between atoms: C_23  and  C_24
REMARK   10  A    between atoms: C_24  and  C_25
REMARK   11  A    between atoms: C_25  and  N_26
REMARK   12  A    between atoms: C_28  and  C_35
REMARK   13  A    between atoms: C_31  and  C_34
REMARK                            x       y       z     vdW  Elec       q    Type
REMARK                         _______ _______ _______ _____ _____    ______ ____
ROOT
ATOM      1  C   UNL     1       1.406   2.991   1.218  0.00  0.00    +0.111 A 
ATOM      2  C   UNL     1       0.932   4.289   1.273  0.00  0.00    +0.031 A 
ATOM      3  C   UNL     1       1.085   5.033   2.426  0.00  0.00    +0.027 A 
ATOM      4  C   UNL     1       1.727   4.480   3.527  0.00  0.00    +0.058 A 
ATOM      5  C   UNL     1       2.207   3.179   3.466  0.00  0.00    +0.149 A 
ATOM      6  C   UNL     1       2.045   2.438   2.312  0.00  0.00    +0.063 A 
ENDROOT
BRANCH   1   7
ATOM      7  S   UNL     1       1.202   2.043  -0.253  0.00  0.00    +0.072 S 
ATOM      8  O   UNL     1       2.219   1.050  -0.241  0.00  0.00    -0.150 OA
ATOM      9  O   UNL     1       1.057   2.972  -1.319  0.00  0.00    -0.150 OA
BRANCH   7  10
ATOM     10  N   UNL     1      -0.242   1.242  -0.123  0.00  0.00    -0.216 N 
ATOM     11  H   UNL     1      -0.264   0.142  -0.142  0.00  0.00    +0.174 HD
BRANCH  10  16
ATOM     12  C   UNL     1      -5.069   4.168   0.412  0.00  0.00    +0.044 C 
ATOM     13  C   UNL     1      -3.786   3.391   0.271  0.00  0.00    -0.050 A 
ATOM     14  C   UNL     1      -2.765   3.883  -0.522  0.00  0.00    +0.005 A 
ATOM     15  C   UNL     1      -1.589   3.173  -0.655  0.00  0.00    +0.025 A 
ATOM     16  C   UNL     1      -1.430   1.963   0.009  0.00  0.00    +0.051 A 
ATOM     17  C   UNL     1      -2.459   1.470   0.801  0.00  0.00    -0.028 A 
ATOM     18  C   UNL     1      -3.632   2.188   0.933  0.00  0.00    +0.008 A 
ATOM     19  C   UNL     1      -2.294   0.155   1.519  0.00  0.00    +0.046 C 
ENDBRANCH  10  16
ENDBRANCH   7  10
ENDBRANCH   1   7
BRANCH   5  20
ATOM     20  N   UNL     1       2.890   2.585   4.638  0.00  0.00    +0.058 N 
ATOM     21  O   UNL     1       3.409   1.487   4.548  0.00  0.00    -0.126 OA
ATOM     22  O   UNL     1       2.935   3.196   5.690  0.00  0.00    -0.126 OA
ENDBRANCH   5  20
BRANCH   4  23
ATOM     23  N   UNL     1       1.888   5.232   4.694  0.00  0.00    -0.342 N 
ATOM     24  H   UNL     1       2.311   4.764   5.595  0.00  0.00    +0.146 HD
BRANCH  23  25
ATOM     25  C   UNL     1       1.495   6.643   4.716  0.00  0.00    +0.103 C 
BRANCH  25  26
ATOM     26  C   UNL     1       1.774   7.229   6.102  0.00  0.00    +0.034 C 
BRANCH  26  27
ATOM     27  C   UNL     1       1.363   8.702   6.125  0.00  0.00    +0.086 C 
BRANCH  27  28
ATOM     28  N   UNL     1       1.631   9.264   7.455  0.00  0.00    -0.297 NA
ATOM     29  C   UNL     1       0.763   8.650   8.471  0.00  0.00    +0.115 C 
ATOM     30  C   UNL     1       1.116   9.220   9.848  0.00  0.00    +0.130 C 
ATOM     31  O   UNL     1       0.988  10.644   9.816  0.00  0.00    -0.371 OA
ATOM     32  C   UNL     1       1.819  11.275   8.838  0.00  0.00    +0.130 C 
ATOM     33  C   UNL     1       1.474  10.726   7.451  0.00  0.00    +0.115 C 
ATOM     34  C   UNL     1       3.288  10.983   9.151  0.00  0.00    +0.039 C 
ATOM     35  C   UNL     1       0.165   8.645  10.899  0.00  0.00    +0.039 C 
ENDBRANCH  27  28
ENDBRANCH  26  27
ENDBRANCH  25  26
ENDBRANCH  23  25
ENDBRANCH   4  23
TORSDOF 9
