REMARK  Name = ZINC65813852
REMARK  7 active torsions:
REMARK  status: ('A' for Active; 'I' for Inactive)
REMARK    1  A    between atoms: C_1  and  C_2
REMARK    2  A    between atoms: C_4  and  N_20
REMARK    3  A    between atoms: C_6  and  C_7
REMARK    4  A    between atoms: C_21  and  C_23
REMARK    5  A    between atoms: C_23  and  C_24
REMARK    6  A    between atoms: C_23  and  C_25
REMARK    7  A    between atoms: C_23  and  C_26
REMARK                            x       y       z     vdW  Elec       q    Type
REMARK                         _______ _______ _______ _____ _____    ______ ____
ROOT
ATOM      1  C   UNL     1       0.532   1.444   0.019  0.00  0.00    +0.045 C 
ATOM      2  C   UNL     1       0.203  -0.026   0.005  0.00  0.00    -0.029 A 
ATOM      3  C   UNL     1       0.103  -0.738  -1.162  0.00  0.00    +0.035 A 
ATOM      4  C   UNL     1      -0.201  -2.078  -1.093  0.00  0.00    +0.073 A 
ATOM      5  S   UNL     1      -0.352  -2.379   0.553  0.00  0.00    -0.069 S 
ATOM      6  C   UNL     1      -0.011  -0.744   1.175  0.00  0.00    +0.079 A 
ENDROOT
BRANCH   6   7
ATOM      7  C   UNL     1       0.030  -0.278   2.559  0.00  0.00    +0.254 C 
ATOM      8  O   UNL     1       0.137   0.912   2.798  0.00  0.00    -0.269 OA
ATOM      9  N   UNL     1      -0.050  -1.164   3.571  0.00  0.00    -0.294 N 
ATOM     10  C   UNL     1      -0.156  -0.662   4.911  0.00  0.00    +0.112 C 
ATOM     11  C   UNL     1      -0.998  -1.529   5.797  0.00  0.00    +0.007 C 
ATOM     12  C   UNL     1      -2.300  -1.957   5.140  0.00  0.00    +0.008 C 
ATOM     13  C   UNL     1      -2.196  -3.226   4.319  0.00  0.00    -0.009 C 
ATOM     14  C   UNL     1      -1.511  -4.341   5.114  0.00  0.00    +0.007 C 
ATOM     15  C   UNL     1      -0.116  -3.837   5.490  0.00  0.00    -0.009 C 
ATOM     16  C   UNL     1      -0.274  -2.666   6.461  0.00  0.00    +0.008 C 
ATOM     17  C   UNL     1       0.680  -3.436   4.270  0.00  0.00    +0.026 C 
ATOM     18  C   UNL     1      -0.030  -2.580   3.252  0.00  0.00    +0.077 C 
ATOM     19  C   UNL     1      -1.461  -3.042   3.000  0.00  0.00    +0.026 C 
ENDBRANCH   6   7
BRANCH   4  20
ATOM     20  N   UNL     1      -0.349  -2.976  -2.143  0.00  0.00    -0.280 N 
ATOM     21  C   UNL     1      -0.651  -4.265  -1.891  0.00  0.00    +0.223 C 
ATOM     22  O   UNL     1      -0.793  -4.641  -0.746  0.00  0.00    -0.275 OA
ATOM     23  H   UNL     1      -0.235  -2.675  -3.058  0.00  0.00    +0.155 HD
BRANCH  21  24
ATOM     24  C   UNL     1      -0.811  -5.238  -3.030  0.00  0.00    +0.039 C 
ATOM     25  C   UNL     1      -1.149  -6.623  -2.473  0.00  0.00    +0.020 C 
ATOM     26  C   UNL     1      -1.940  -4.768  -3.948  0.00  0.00    +0.020 C 
ATOM     27  C   UNL     1       0.494  -5.313  -3.824  0.00  0.00    +0.020 C 
ENDBRANCH  21  24
ENDBRANCH   4  20
TORSDOF 3
