REMARK  Name = ZINC39710395
REMARK  12 active torsions:
REMARK  status: ('A' for Active; 'I' for Inactive)
REMARK    1  A    between atoms: C_1  and  C_2
REMARK    2  A    between atoms: C_2  and  C_3
REMARK    3  A    between atoms: C_10  and  C_15
REMARK    4  A    between atoms: C_15  and  C_17
REMARK    5  A    between atoms: C_15  and  N_27
REMARK    6  A    between atoms: N_22  and  C_23
REMARK    7  A    between atoms: C_23  and  C_24
REMARK    8  A    between atoms: C_23  and  C_25
REMARK    9  A    between atoms: C_23  and  C_26
REMARK   10  A    between atoms: N_30  and  C_33
REMARK   11  A    between atoms: C_37  and  C_40
REMARK   12  A    between atoms: C_38  and  C_39
REMARK                            x       y       z     vdW  Elec       q    Type
REMARK                         _______ _______ _______ _____ _____    ______ ____
ROOT
ATOM      1  C   UNL     1      -6.411  -1.060  -2.833  0.00  0.00    -0.009 C 
ENDROOT
BRANCH   1   9
ATOM      2  C   UNL     1      -1.182   0.037  -0.485  0.00  0.00    -0.047 A 
ATOM      3  C   UNL     1      -1.604  -0.392   0.773  0.00  0.00    +0.005 A 
ATOM      4  C   UNL     1      -2.768  -1.065   0.967  0.00  0.00    +0.024 A 
ATOM      5  C   UNL     1      -3.611  -1.361  -0.120  0.00  0.00    +0.040 A 
ATOM      6  N   UNL     1      -4.751  -2.021   0.081  0.00  0.00    -0.285 N 
ATOM      7  C   UNL     1      -5.588  -2.331  -0.895  0.00  0.00    +0.223 C 
ATOM      8  O   UNL     1      -6.615  -2.936  -0.650  0.00  0.00    -0.275 OA
ATOM      9  C   UNL     1      -5.264  -1.931  -2.317  0.00  0.00    +0.088 C 
ATOM     10  C   UNL     1      -3.968  -1.180  -2.551  0.00  0.00    -0.006 C 
ATOM     11  C   UNL     1      -3.191  -0.920  -1.462  0.00  0.00    -0.007 A 
ATOM     12  C   UNL     1      -1.927  -0.195  -1.597  0.00  0.00    +0.013 A 
ATOM     13  H   UNL     1      -4.978  -2.287   0.986  0.00  0.00    +0.155 HD
BRANCH   2  15
ATOM     14  C   UNL     1      -0.125   2.279  -0.455  0.00  0.00    +0.009 C 
ATOM     15  C   UNL     1       0.123   0.778  -0.613  0.00  0.00    +0.032 C 
ENDBRANCH   2  15
ENDBRANCH   1   9
BRANCH   1  16
ATOM     16  N   UNL     1      -7.667  -1.819  -2.773  0.00  0.00    +0.387 N 
ATOM     17  C   UNL     1      -7.477  -3.128  -3.411  0.00  0.00    -0.059 C 
ATOM     18  C   UNL     1      -8.751  -3.964  -3.249  0.00  0.00    +0.086 C 
ATOM     19  N   UNL     1      -9.886  -3.191  -3.775  0.00  0.00    -0.333 N 
ATOM     20  C   UNL     1     -10.057  -1.806  -3.310  0.00  0.00    +0.086 C 
ATOM     21  C   UNL     1      -8.722  -1.072  -3.469  0.00  0.00    -0.059 C 
ATOM     22  H   UNL     1      -7.933  -1.953  -1.809  0.00  0.00    -0.081 HD
BRANCH  19  23
ATOM     23  C   UNL     1     -10.777  -3.756  -4.690  0.00  0.00    +0.033 A 
ATOM     24  C   UNL     1     -11.910  -4.423  -4.239  0.00  0.00    +0.023 A 
ATOM     25  C   UNL     1     -12.789  -4.980  -5.147  0.00  0.00    +0.002 A 
ATOM     26  C   UNL     1     -12.542  -4.876  -6.504  0.00  0.00    +0.004 A 
ATOM     27  C   UNL     1     -11.416  -4.214  -6.956  0.00  0.00    -0.046 A 
ATOM     28  C   UNL     1     -10.536  -3.649  -6.054  0.00  0.00    -0.027 A 
ATOM     29  C   UNL     1      -9.312  -2.922  -6.548  0.00  0.00    +0.046 C 
ATOM     30  C   UNL     1     -11.151  -4.105  -8.436  0.00  0.00    +0.044 C 
ENDBRANCH  19  23
ENDBRANCH   1  16
BRANCH   1  31
ATOM     31  C   UNL     1      -6.531   0.193  -1.963  0.00  0.00    +0.205 C 
ATOM     32  N   UNL     1      -7.087  -0.148  -0.646  0.00  0.00    -0.152 NA
ATOM     33  N   UNL     1      -8.150   0.457  -0.494  0.00  0.00    -0.070 NA
ATOM     34  N   UNL     1      -8.483   1.254  -1.589  0.00  0.00    -0.179 N 
ATOM     35  N   UNL     1      -7.507   1.135  -2.548  0.00  0.00    -0.183 NA
ATOM     36  H   UNL     1      -9.278   1.804  -1.662  0.00  0.00    +0.191 HD
BRANCH  35  37
ATOM     37  C   UNL     1      -6.882   2.435  -2.828  0.00  0.00    +0.035 C 
ATOM     38  C   UNL     1      -5.713   2.240  -3.796  0.00  0.00    +0.029 C 
ATOM     39  C   UNL     1      -7.914   3.372  -3.458  0.00  0.00    +0.029 C 
ATOM     40  C   UNL     1      -6.367   3.046  -1.524  0.00  0.00    +0.029 C 
ENDBRANCH  35  37
ENDBRANCH   1  31
TORSDOF 6
