REMARK  Name = ZINC14429737
REMARK  7 active torsions:
REMARK  status: ('A' for Active; 'I' for Inactive)
REMARK    1  A    between atoms: C_1  and  C_2
REMARK    2  A    between atoms: C_2  and  C_3
REMARK    3  A    between atoms: C_2  and  C_4
REMARK    4  A    between atoms: C_4  and  C_5
REMARK    5  A    between atoms: C_5  and  C_7
REMARK    6  A    between atoms: C_5  and  N_17
REMARK    7  A    between atoms: N_9  and  C_10
REMARK                            x       y       z     vdW  Elec       q    Type
REMARK                         _______ _______ _______ _____ _____    ______ ____
ROOT
ATOM      1  C   UNL     1      -1.164  -3.529   0.003  0.00  0.00    +0.171 C 
ENDROOT
BRANCH   1   2
ATOM      2  N   UNL     1      -0.454  -2.248   0.004  0.00  0.00    -0.222 N 
ATOM      3  C   UNL     1      -1.055  -1.045   0.007  0.00  0.00    +0.254 C 
ATOM      4  O   UNL     1      -2.254  -0.851   0.010  0.00  0.00    -0.270 OA
ATOM      5  C   UNL     1      -0.011   0.003   0.006  0.00  0.00    +0.049 A 
ATOM      6  C   UNL     1      -0.031   1.388   0.009  0.00  0.00    +0.014 A 
ATOM      7  C   UNL     1       1.163   2.092   0.008  0.00  0.00    +0.001 A 
ATOM      8  C   UNL     1       2.372   1.422   0.003  0.00  0.00    +0.001 A 
ATOM      9  C   UNL     1       2.407   0.036   0.001  0.00  0.00    +0.014 A 
ATOM     10  C   UNL     1       1.221  -0.681   0.003  0.00  0.00    +0.049 A 
ATOM     11  C   UNL     1       0.885  -2.120   0.001  0.00  0.00    +0.254 C 
ATOM     12  O   UNL     1       1.685  -3.035  -0.002  0.00  0.00    -0.270 OA
ENDBRANCH   1   2
BRANCH   1  13
ATOM     13  C   UNL     1      -2.032  -3.622  -1.225  0.00  0.00    +0.238 C 
ATOM     14  O   UNL     1      -2.055  -2.708  -2.022  0.00  0.00    -0.273 OA
ATOM     15  N   UNL     1      -2.783  -4.721  -1.439  0.00  0.00    -0.283 N 
ATOM     16  H   UNL     1      -2.705  -5.484  -0.846  0.00  0.00    +0.155 HD
BRANCH  15  17
ATOM     17  C   UNL     1      -3.675  -4.760  -2.516  0.00  0.00    +0.047 A 
ATOM     18  C   UNL     1      -4.182  -3.580  -3.044  0.00  0.00    +0.024 A 
ATOM     19  C   UNL     1      -5.059  -3.622  -4.110  0.00  0.00    +0.002 A 
ATOM     20  C   UNL     1      -5.440  -4.838  -4.646  0.00  0.00    +0.001 A 
ATOM     21  C   UNL     1      -4.941  -6.016  -4.120  0.00  0.00    +0.016 A 
ATOM     22  C   UNL     1      -4.060  -5.980  -3.057  0.00  0.00    +0.035 A 
ATOM     23  I   UNL     1      -3.306  -7.765  -2.260  0.00  0.00    -0.042 I 
ENDBRANCH  15  17
ENDBRANCH   1  13
BRANCH   1  24
ATOM     24  C   UNL     1      -2.040  -3.628   1.254  0.00  0.00    +0.035 C 
BRANCH  24  26
ATOM     25  C   UNL     1      -2.025  -3.632   3.753  0.00  0.00    +0.007 C 
ATOM     26  C   UNL     1      -1.149  -3.659   2.498  0.00  0.00    -0.015 C 
ATOM     27  C   UNL     1      -0.308  -4.937   2.491  0.00  0.00    +0.007 C 
ENDBRANCH  24  26
ENDBRANCH   1  24
TORSDOF 5
