REMARK  Name = ZINC14971279
REMARK  8 active torsions:
REMARK  status: ('A' for Active; 'I' for Inactive)
REMARK    1  A    between atoms: C_1  and  C_2
REMARK    2  A    between atoms: C_7  and  C_8
REMARK    3  A    between atoms: C_16  and  C_31
REMARK    4  A    between atoms: C_17  and  C_20
REMARK    5  A    between atoms: N_22  and  C_23
REMARK    6  A    between atoms: C_23  and  C_24
REMARK    7  A    between atoms: C_24  and  C_25
REMARK    8  A    between atoms: C_30  and  N_62
REMARK                            x       y       z     vdW  Elec       q    Type
REMARK                         _______ _______ _______ _____ _____    ______ ____
ROOT
ATOM      1  C   UNL     1       0.163  -4.176   0.235  0.00  0.00    +0.047 C 
ATOM      2  C   UNL     1       0.140  -2.670   0.192  0.00  0.00    -0.006 A 
ATOM      3  C   UNL     1      -1.052  -1.984   0.044  0.00  0.00    +0.120 A 
ATOM      4  N   UNL     1      -1.038  -0.660   0.016  0.00  0.00    -0.219 NA
ATOM      5  C   UNL     1       0.099   0.012   0.117  0.00  0.00    +0.252 A 
ATOM      6  N   UNL     1       1.260  -0.604   0.260  0.00  0.00    -0.210 NA
ATOM      7  C   UNL     1       1.323  -1.933   0.302  0.00  0.00    +0.079 A 
ATOM      8  N   UNL     1       0.069   1.404   0.078  0.00  0.00    -0.196 N 
ATOM      9  C   UNL     1      -1.046   2.176  -0.069  0.00  0.00    +0.096 A 
ATOM     10  C   UNL     1      -0.620   3.508  -0.052  0.00  0.00    +0.083 A 
ATOM     11  C   UNL     1       0.784   3.491   0.101  0.00  0.00    +0.148 A 
ATOM     12  N   UNL     1       1.178   2.251   0.177  0.00  0.00    -0.171 NA
ENDROOT
BRANCH   7  13
ATOM     13  C   UNL     1       2.627  -2.620   0.461  0.00  0.00    +0.001 A 
ATOM     14  C   UNL     1       2.710  -3.799   1.202  0.00  0.00    +0.013 A 
ATOM     15  C   UNL     1       3.924  -4.437   1.344  0.00  0.00    +0.039 A 
ATOM     16  C   UNL     1       5.062  -3.904   0.760  0.00  0.00    +0.123 A 
ATOM     17  C   UNL     1       4.985  -2.731   0.027  0.00  0.00    +0.039 A 
ATOM     18  C   UNL     1       3.774  -2.088  -0.125  0.00  0.00    +0.013 A 
ATOM     19  F   UNL     1       6.250  -4.530   0.906  0.00  0.00    -0.205 F 
ENDBRANCH   7  13
BRANCH   9  20
ATOM     20  C   UNL     1      -2.427   1.702  -0.214  0.00  0.00    +0.038 A 
ATOM     21  C   UNL     1      -2.921   0.684  -1.013  0.00  0.00    +0.018 A 
ATOM     22  C   UNL     1      -4.269   0.419  -0.975  0.00  0.00    +0.008 A 
ATOM     23  C   UNL     1      -5.071   1.164  -0.169  0.00  0.00    +0.046 A 
ATOM     24  S   UNL     1      -3.910   2.290   0.587  0.00  0.00    -0.095 S 
ENDBRANCH   9  20
BRANCH  10  25
ATOM     25  C   UNL     1      -1.470   4.699  -0.176  0.00  0.00    +0.248 C 
ATOM     26  O   UNL     1      -2.674   4.577  -0.303  0.00  0.00    -0.270 OA
ATOM     27  N   UNL     1      -0.918   5.928  -0.148  0.00  0.00    -0.311 N 
ATOM     28  H   UNL     1       0.042   6.026  -0.046  0.00  0.00    +0.149 HD
BRANCH  27  29
ATOM     29  C   UNL     1      -1.766   7.116  -0.272  0.00  0.00    +0.103 C 
BRANCH  29  30
ATOM     30  C   UNL     1      -0.896   8.373  -0.210  0.00  0.00    +0.003 C 
BRANCH  30  31
ATOM     31  C   UNL     1      -1.791   9.614  -0.211  0.00  0.00    -0.068 C 
ATOM     32  C   UNL     1      -2.530   9.727  -1.560  0.00  0.00    -0.017 C 
ATOM     33  C   UNL     1      -2.524  11.254  -1.836  0.00  0.00    -0.020 C 
ATOM     34  C   UNL     1      -1.145  11.668  -1.264  0.00  0.00    -0.079 C 
ATOM     35  C   UNL     1       0.448  10.482   0.134  0.00  0.00    -0.096 C 
ATOM     36  N   UNL     1      -0.983  10.835  -0.056  0.00  0.00    +0.380 N 
ATOM     37  H   UNL     1      -1.311  11.358   0.764  0.00  0.00    -0.082 HD
ENDBRANCH  30  31
ENDBRANCH  29  30
ENDBRANCH  27  29
ENDBRANCH  10  25
TORSDOF 6
