REMARK  Name = ZINC59884769
REMARK  9 active torsions:
REMARK  status: ('A' for Active; 'I' for Inactive)
REMARK    1  A    between atoms: C_4  and  N_32
REMARK    2  A    between atoms: C_5  and  C_7
REMARK    3  A    between atoms: N_8  and  N_9
REMARK    4  A    between atoms: C_13  and  S_16
REMARK    5  A    between atoms: N_14  and  N_15
REMARK    6  A    between atoms: S_16  and  C_17
REMARK    7  A    between atoms: C_17  and  C_18
REMARK    8  A    between atoms: N_20  and  C_21
REMARK    9  A    between atoms: C_22  and  C_30
REMARK                            x       y       z     vdW  Elec       q    Type
REMARK                         _______ _______ _______ _____ _____    ______ ____
ROOT
ATOM      1  N   UNL     1       1.970  -4.166   0.195  0.00  0.00    -0.204 N 
ATOM      2  C   UNL     1       3.069  -4.917   0.306  0.00  0.00    +0.254 A 
ATOM      3  N   UNL     1       4.337  -4.467   0.403  0.00  0.00    -0.109 NA
ATOM      4  N   UNL     1       5.142  -5.466   0.495  0.00  0.00    -0.119 NA
ATOM      5  C   UNL     1       4.438  -6.619   0.463  0.00  0.00    +0.210 A 
ATOM      6  N   UNL     1       3.117  -6.288   0.348  0.00  0.00    -0.211 N 
ATOM      7  H   UNL     1       1.098  -4.588   0.135  0.00  0.00    +0.177 HD
ENDROOT
BRANCH   6   8
ATOM      8  N   UNL     1       2.058  -7.148   0.286  0.00  0.00    -0.294 N 
ATOM      9  H   UNL     1       1.854  -7.402  -0.669  0.00  0.00    +0.163 HD
ATOM     10  H   UNL     1       2.224  -7.968   0.851  0.00  0.00    +0.163 HD
ENDBRANCH   6   8
BRANCH   1  12
ATOM     11  C   UNL     1       0.985  -2.141   0.057  0.00  0.00    +0.140 C 
ATOM     12  N   UNL     1       2.067  -2.880   0.167  0.00  0.00    -0.187 NA
BRANCH  11  17
ATOM     13  C   UNL     1       2.451   1.305  -0.044  0.00  0.00    +0.001 A 
ATOM     14  C   UNL     1       1.304   2.083  -0.034  0.00  0.00    +0.002 A 
ATOM     15  C   UNL     1       0.053   1.488   0.005  0.00  0.00    +0.033 A 
ATOM     16  C   UNL     1      -0.061   0.115   0.035  0.00  0.00    +0.135 A 
ATOM     17  C   UNL     1       1.095  -0.681   0.025  0.00  0.00    +0.025 A 
ATOM     18  C   UNL     1       2.358  -0.068  -0.015  0.00  0.00    +0.012 A 
BRANCH  16  19
ATOM     19  N   UNL     1      -1.398  -0.518   0.078  0.00  0.00    +0.057 N 
ATOM     20  O   UNL     1      -2.475   0.227   0.218  0.00  0.00    -0.126 OA
ATOM     21  O   UNL     1      -1.511  -1.826  -0.025  0.00  0.00    -0.126 OA
ENDBRANCH  16  19
ENDBRANCH  11  17
ENDBRANCH   1  12
BRANCH   5  22
ATOM     22  S   UNL     1       5.062  -8.154   0.551  0.00  0.00    -0.075 S 
BRANCH  22  23
ATOM     23  C   UNL     1       6.851  -7.893   0.697  0.00  0.00    +0.173 C 
BRANCH  23  24
ATOM     24  C   UNL     1       7.548  -9.226   0.787  0.00  0.00    +0.228 C 
ATOM     25  O   UNL     1       6.902 -10.252   0.756  0.00  0.00    -0.275 OA
ATOM     26  N   UNL     1       8.890  -9.279   0.902  0.00  0.00    -0.278 N 
ATOM     27  H   UNL     1       9.407  -8.459   0.927  0.00  0.00    +0.155 HD
BRANCH  26  28
ATOM     28  C   UNL     1       9.532 -10.507   0.985  0.00  0.00    +0.090 A 
ATOM     29  C   UNL     1      10.889 -10.751   1.112  0.00  0.00    +0.084 A 
ATOM     30  C   UNL     1      11.311 -12.139   1.179  0.00  0.00    -0.018 A 
ATOM     31  C   UNL     1      10.297 -13.029   1.107  0.00  0.00    -0.004 A 
ATOM     32  S   UNL     1       8.840 -12.037   0.962  0.00  0.00    -0.077 S 
ATOM     33  C   UNL     1      10.406 -14.522   1.146  0.00  0.00    +0.043 C 
ATOM     34  C   UNL     1      11.873 -14.905   0.902  0.00  0.00    +0.005 C 
ATOM     35  C   UNL     1      12.766 -14.047   1.804  0.00  0.00    +0.005 C 
ATOM     36  C   UNL     1      12.756 -12.596   1.319  0.00  0.00    +0.037 C 
BRANCH  29  37
ATOM     37  C   UNL     1      11.837  -9.680   1.174  0.00  0.00    +0.102 C 
ATOM     38  N   UNL     1      12.589  -8.830   1.223  0.00  0.00    -0.191 NA
ENDBRANCH  29  37
ENDBRANCH  26  28
ENDBRANCH  23  24
ENDBRANCH  22  23
ENDBRANCH   5  22
TORSDOF 9
