REMARK  Name = ZINC09065094
REMARK  7 active torsions:
REMARK  status: ('A' for Active; 'I' for Inactive)
REMARK    1  A    between atoms: C_1  and  C_2
REMARK    2  A    between atoms: C_5  and  C_8
REMARK    3  A    between atoms: N_9  and  N_10
REMARK    4  A    between atoms: C_11  and  C_13
REMARK    5  A    between atoms: C_13  and  C_15
REMARK    6  A    between atoms: C_13  and  N_26
REMARK    7  A    between atoms: C_27  and  C_29
REMARK                            x       y       z     vdW  Elec       q    Type
REMARK                         _______ _______ _______ _____ _____    ______ ____
ROOT
ATOM      1  C   UNL     1       0.125  -8.491   2.246  0.00  0.00    +0.212 C 
ENDROOT
BRANCH   1   2
ATOM      2  C   UNL     1      -1.103  -9.005   1.539  0.00  0.00    +0.099 A 
ATOM      3  C   UNL     1      -1.105  -9.142   0.083  0.00  0.00    +0.013 A 
ATOM      4  C   UNL     1       0.009  -8.809  -0.690  0.00  0.00    +0.010 A 
ATOM      5  C   UNL     1      -0.041  -8.955  -2.048  0.00  0.00    +0.001 A 
ATOM      6  C   UNL     1      -1.187  -9.431  -2.672  0.00  0.00    +0.001 A 
ATOM      7  C   UNL     1      -2.301  -9.768  -1.936  0.00  0.00    +0.014 A 
ATOM      8  C   UNL     1      -2.272  -9.628  -0.549  0.00  0.00    +0.050 A 
ATOM      9  C   UNL     1      -3.426  -9.970   0.292  0.00  0.00    +0.272 A 
ATOM     10  N   UNL     1      -3.326  -9.808   1.628  0.00  0.00    -0.242 N 
ATOM     11  N   UNL     1      -2.158  -9.332   2.224  0.00  0.00    -0.173 NA
ATOM     12  O   UNL     1      -4.454 -10.392  -0.207  0.00  0.00    -0.266 OA
ATOM     13  H   UNL     1      -4.085 -10.032   2.189  0.00  0.00    +0.192 HD
ENDBRANCH   1   2
BRANCH   1  15
ATOM     14  N   UNL     1       0.090  -6.304   1.091  0.00  0.00    -0.205 N 
ATOM     15  C   UNL     1       0.105  -6.984   2.255  0.00  0.00    +0.259 C 
ATOM     16  O   UNL     1       0.103  -6.383   3.308  0.00  0.00    -0.272 OA
ATOM     17  H   UNL     1       0.092  -6.784   0.248  0.00  0.00    +0.177 HD
BRANCH  14  19
ATOM     18  C   UNL     1       0.058  -4.248  -0.021  0.00  0.00    +0.138 C 
ATOM     19  N   UNL     1       0.072  -4.903   1.099  0.00  0.00    -0.188 NA
BRANCH  18  24
ATOM     20  C   UNL     1      -0.018   1.503   0.010  0.00  0.00    +0.044 C 
ATOM     21  C   UNL     1       0.002  -0.004   0.002  0.00  0.00    -0.050 A 
ATOM     22  C   UNL     1       0.006  -0.686  -1.202  0.00  0.00    +0.004 A 
ATOM     23  C   UNL     1       0.024  -2.065  -1.217  0.00  0.00    +0.010 A 
ATOM     24  C   UNL     1       0.039  -2.773  -0.013  0.00  0.00    -0.005 A 
ATOM     25  C   UNL     1       0.036  -2.078   1.198  0.00  0.00    +0.010 A 
ATOM     26  C   UNL     1       0.023  -0.699   1.198  0.00  0.00    +0.004 A 
ENDBRANCH  18  24
ENDBRANCH  14  19
ENDBRANCH   1  15
BRANCH   1  27
ATOM     27  N   UNL     1       0.138  -8.986   3.625  0.00  0.00    -0.295 N 
ATOM     28  C   UNL     1       0.649 -10.204   3.898  0.00  0.00    +0.245 C 
ATOM     29  O   UNL     1       1.098 -10.890   3.001  0.00  0.00    -0.270 OA
ATOM     30  H   UNL     1      -0.220  -8.439   4.341  0.00  0.00    +0.150 HD
BRANCH  28  31
ATOM     31  C   UNL     1       0.662 -10.704   5.289  0.00  0.00    +0.037 A 
ATOM     32  C   UNL     1       0.142  -9.921   6.321  0.00  0.00    +0.013 A 
ATOM     33  C   UNL     1       0.157 -10.394   7.617  0.00  0.00    +0.001 A 
ATOM     34  C   UNL     1       0.687 -11.641   7.895  0.00  0.00    +0.000 A 
ATOM     35  C   UNL     1       1.205 -12.422   6.877  0.00  0.00    +0.001 A 
ATOM     36  C   UNL     1       1.190 -11.964   5.576  0.00  0.00    +0.013 A 
ENDBRANCH  28  31
ENDBRANCH   1  27
TORSDOF 6
