REMARK  Name = ZINC09886344
REMARK  10 active torsions:
REMARK  status: ('A' for Active; 'I' for Inactive)
REMARK    1  A    between atoms: C_1  and  C_2
REMARK    2  A    between atoms: C_4  and  N_29
REMARK    3  A    between atoms: C_7  and  C_8
REMARK    4  A    between atoms: N_9  and  N_10
REMARK    5  A    between atoms: C_11  and  C_13
REMARK    6  A    between atoms: C_13  and  C_15
REMARK    7  A    between atoms: C_13  and  N_18
REMARK    8  A    between atoms: C_15  and  C_16
REMARK    9  A    between atoms: C_15  and  C_17
REMARK   10  A    between atoms: C_19  and  C_21
REMARK                            x       y       z     vdW  Elec       q    Type
REMARK                         _______ _______ _______ _____ _____    ______ ____
ROOT
ATOM      1  N   UNL     1       2.867  -2.394  -0.479  0.00  0.00    -0.205 N 
ATOM      2  C   UNL     1       4.186  -2.522  -0.726  0.00  0.00    +0.253 C 
ATOM      3  O   UNL     1       4.703  -3.620  -0.705  0.00  0.00    -0.272 OA
ATOM      4  H   UNL     1       2.438  -1.529  -0.574  0.00  0.00    +0.177 HD
ENDROOT
BRANCH   1   6
ATOM      5  C   UNL     1       0.869  -3.368   0.244  0.00  0.00    +0.138 C 
ATOM      6  N   UNL     1       2.117  -3.509  -0.083  0.00  0.00    -0.188 NA
BRANCH   5  13
ATOM      7  C   UNL     1      -1.956  -2.938  -0.195  0.00  0.00    +0.044 C 
ATOM      8  C   UNL     1      -1.061  -1.798   0.219  0.00  0.00    -0.040 A 
ATOM      9  C   UNL     1      -1.587  -0.536   0.392  0.00  0.00    +0.027 A 
ATOM     10  C   UNL     1      -0.761   0.516   0.774  0.00  0.00    +0.030 A 
ATOM     11  C   UNL     1       0.597   0.299   0.984  0.00  0.00    +0.024 A 
ATOM     12  C   UNL     1       1.129  -0.960   0.813  0.00  0.00    +0.011 A 
ATOM     13  C   UNL     1       0.303  -2.020   0.429  0.00  0.00    -0.002 A 
BRANCH  10  14
ATOM     14  N   UNL     1      -1.297   1.792   0.949  0.00  0.00    -0.330 N 
ATOM     15  C   UNL     1      -1.141   2.247   2.354  0.00  0.00    +0.105 C 
ATOM     16  C   UNL     1      -1.280   3.787   2.245  0.00  0.00    +0.020 C 
ATOM     17  C   UNL     1      -0.561   4.105   0.914  0.00  0.00    +0.020 C 
ATOM     18  C   UNL     1      -0.580   2.786   0.121  0.00  0.00    +0.105 C 
ENDBRANCH  10  14
ENDBRANCH   5  13
ENDBRANCH   1   6
BRANCH   2  19
ATOM     19  C   UNL     1       5.018  -1.303  -1.030  0.00  0.00    +0.163 C 
BRANCH  19  20
ATOM     20  N   UNL     1       6.284  -1.716  -1.641  0.00  0.00    -0.300 N 
ATOM     21  C   UNL     1       6.956  -0.863  -2.439  0.00  0.00    +0.245 C 
ATOM     22  O   UNL     1       6.512   0.248  -2.652  0.00  0.00    -0.270 OA
ATOM     23  H   UNL     1       6.638  -2.602  -1.471  0.00  0.00    +0.150 HD
BRANCH  21  24
ATOM     24  C   UNL     1       8.233  -1.279  -3.055  0.00  0.00    +0.038 A 
ATOM     25  C   UNL     1       8.749  -2.553  -2.808  0.00  0.00    +0.014 A 
ATOM     26  C   UNL     1       9.938  -2.938  -3.390  0.00  0.00    +0.022 A 
ATOM     27  C   UNL     1      10.628  -2.060  -4.209  0.00  0.00    +0.059 A 
ATOM     28  C   UNL     1      10.124  -0.792  -4.455  0.00  0.00    +0.060 A 
ATOM     29  C   UNL     1       8.932  -0.398  -3.883  0.00  0.00    +0.034 A 
ATOM     30 CL   UNL     1      10.995   0.301  -5.485  0.00  0.00    -0.082 Cl
ATOM     31 CL   UNL     1      12.128  -2.550  -4.932  0.00  0.00    -0.082 Cl
ENDBRANCH  21  24
ENDBRANCH  19  20
BRANCH  19  32
ATOM     32  C   UNL     1       5.301  -0.543   0.267  0.00  0.00    +0.012 C 
ATOM     33  C   UNL     1       6.033  -1.462   1.248  0.00  0.00    +0.009 C 
ATOM     34  C   UNL     1       6.174   0.676  -0.036  0.00  0.00    +0.009 C 
ENDBRANCH  19  32
ENDBRANCH   2  19
TORSDOF 7
