REMARK  Name = ZINC13064446
REMARK  10 active torsions:
REMARK  status: ('A' for Active; 'I' for Inactive)
REMARK    1  A    between atoms: C_1  and  C_2
REMARK    2  A    between atoms: C_2  and  C_3
REMARK    3  A    between atoms: C_3  and  C_5
REMARK    4  A    between atoms: C_3  and  N_75
REMARK    5  A    between atoms: N_9  and  C_10
REMARK    6  A    between atoms: C_16  and  C_17
REMARK    7  A    between atoms: C_16  and  N_75
REMARK    8  A    between atoms: C_20  and  C_23
REMARK    9  A    between atoms: C_24  and  C_25
REMARK   10  A    between atoms: C_24  and  N_75
REMARK                            x       y       z     vdW  Elec       q    Type
REMARK                         _______ _______ _______ _____ _____    ______ ____
ROOT
ATOM      1  N   UNL     1       0.133  -1.099   1.751  0.00  0.00    +0.392 N 
ATOM      2  H   UNL     1      -0.520  -1.006   2.538  0.00  0.00    -0.080 HD
ENDROOT
BRANCH   1   3
ATOM      3  C   UNL     1       0.033  -2.468   1.203  0.00  0.00    +0.003 C 
BRANCH   3   4
ATOM      4  C   UNL     1      -1.404  -2.914   1.283  0.00  0.00    +0.138 A 
ATOM      5  N   UNL     1      -2.458  -2.232   0.905  0.00  0.00    -0.115 NA
ATOM      6  N   UNL     1      -3.501  -2.952   1.134  0.00  0.00    -0.023 NA
ATOM      7  N   UNL     1      -3.141  -4.076   1.649  0.00  0.00    -0.044 NA
ATOM      8  N   UNL     1      -1.855  -4.092   1.752  0.00  0.00    -0.228 N 
BRANCH   8   9
ATOM      9  C   UNL     1      -1.038  -5.187   2.284  0.00  0.00    +0.111 C 
ATOM     10  C   UNL     1      -1.167  -6.408   1.371  0.00  0.00    +0.027 C 
ATOM     11  C   UNL     1      -0.315  -7.551   1.925  0.00  0.00    +0.002 C 
ATOM     12  C   UNL     1      -0.798  -7.912   3.331  0.00  0.00    +0.000 C 
ATOM     13  C   UNL     1      -0.670  -6.691   4.244  0.00  0.00    +0.002 C 
ATOM     14  C   UNL     1      -1.522  -5.548   3.689  0.00  0.00    +0.027 C 
ENDBRANCH   8   9
ENDBRANCH   3   4
BRANCH   3  16
ATOM     15  C   UNL     1       1.993  -2.190  -0.322  0.00  0.00    +0.002 C 
ATOM     16  C   UNL     1       0.495  -2.495  -0.255  0.00  0.00    -0.011 C 
ENDBRANCH   3  16
ENDBRANCH   1   3
BRANCH   1  17
ATOM     17  C   UNL     1       1.507  -0.848   2.235  0.00  0.00    -0.042 C 
BRANCH  17  18
ATOM     18  C   UNL     1       1.706  -1.590   3.531  0.00  0.00    -0.064 A 
ATOM     19  C   UNL     1       1.287  -1.027   4.722  0.00  0.00    +0.002 A 
ATOM     20  C   UNL     1       1.466  -1.710   5.910  0.00  0.00    +0.003 A 
ATOM     21  C   UNL     1       2.073  -2.952   5.909  0.00  0.00    -0.050 A 
ATOM     22  C   UNL     1       2.497  -3.513   4.719  0.00  0.00    +0.003 A 
ATOM     23  C   UNL     1       2.314  -2.832   3.530  0.00  0.00    +0.002 A 
ATOM     24  C   UNL     1       2.272  -3.695   7.205  0.00  0.00    +0.044 C 
ENDBRANCH  17  18
ENDBRANCH   1  17
BRANCH   1  25
ATOM     25  C   UNL     1      -0.224  -0.111   0.711  0.00  0.00    -0.036 C 
BRANCH  25  26
ATOM     26  C   UNL     1      -0.475   1.219   1.373  0.00  0.00    +0.001 A 
ATOM     27  C   UNL     1       0.519   2.141   1.438  0.00  0.00    +0.017 A 
ATOM     28  C   UNL     1       0.244   3.422   2.086  0.00  0.00    +0.002 A 
ATOM     29  C   UNL     1       1.231   4.410   2.183  0.00  0.00    +0.059 A 
ATOM     30  C   UNL     1       0.944   5.608   2.803  0.00  0.00    +0.163 A 
ATOM     31  C   UNL     1      -0.330   5.839   3.332  0.00  0.00    +0.164 A 
ATOM     32  C   UNL     1      -1.312   4.868   3.240  0.00  0.00    +0.075 A 
ATOM     33  C   UNL     1      -1.038   3.656   2.620  0.00  0.00    +0.053 A 
ATOM     34  N   UNL     1      -2.006   2.677   2.520  0.00  0.00    -0.322 N 
ATOM     35  H   UNL     1      -2.889   2.839   2.887  0.00  0.00    +0.169 HD
ATOM     36  C   UNL     1      -1.744   1.504   1.917  0.00  0.00    +0.251 A 
ATOM     37  O   UNL     1      -2.624   0.664   1.844  0.00  0.00    -0.268 OA
ATOM     38  O   UNL     1      -0.623   7.019   3.942  0.00  0.00    -0.485 OA
ATOM     39  C   UNL     1       0.487   7.825   4.352  0.00  0.00    +0.270 C 
ATOM     40  C   UNL     1       1.489   7.890   3.192  0.00  0.00    +0.270 C 
ATOM     41  O   UNL     1       1.917   6.557   2.894  0.00  0.00    -0.485 OA
ENDBRANCH  25  26
ENDBRANCH   1  25
TORSDOF 8
