REMARK  Name = ZINC35664907
REMARK  12 active torsions:
REMARK  status: ('A' for Active; 'I' for Inactive)
REMARK    1  A    between atoms: C_1  and  C_2
REMARK    2  A    between atoms: C_2  and  C_3
REMARK    3  A    between atoms: N_9  and  C_12
REMARK    4  A    between atoms: C_12  and  C_13
REMARK    5  A    between atoms: C_14  and  C_31
REMARK    6  A    between atoms: C_15  and  C_24
REMARK    7  A    between atoms: N_20  and  C_21
REMARK    8  A    between atoms: C_21  and  C_22
REMARK    9  A    between atoms: C_28  and  C_30
REMARK   10  A    between atoms: C_31  and  O_33
REMARK   11  A    between atoms: O_33  and  C_34
REMARK   12  A    between atoms: C_34  and  C_35
REMARK                            x       y       z     vdW  Elec       q    Type
REMARK                         _______ _______ _______ _____ _____    ______ ____
ROOT
ATOM      1  C   UNL     1      -0.136  -4.330  -6.197  0.00  0.00    +0.041 C 
ATOM      2  C   UNL     1      -0.177  -5.536  -6.803  0.00  0.00    +0.080 C 
ATOM      3  C   UNL     1       0.871  -5.833  -7.856  0.00  0.00    +0.144 C 
ATOM      4  N   UNL     1       1.855  -4.773  -8.135  0.00  0.00    -0.288 N 
ATOM      5  C   UNL     1       1.766  -3.618  -7.447  0.00  0.00    +0.307 C 
ATOM      6  O   UNL     1       2.574  -2.737  -7.670  0.00  0.00    -0.252 OA
ATOM      7  N   UNL     1       0.815  -3.407  -6.529  0.00  0.00    -0.254 N 
ATOM      8  H   UNL     1       2.550  -4.904  -8.799  0.00  0.00    +0.151 HD
ENDROOT
BRANCH   3   9
ATOM      9  C   UNL     1       1.625  -7.065  -7.428  0.00  0.00    -0.022 A 
ATOM     10  C   UNL     1       2.624  -6.968  -6.476  0.00  0.00    +0.006 A 
ATOM     11  C   UNL     1       3.316  -8.098  -6.083  0.00  0.00    +0.001 A 
ATOM     12  C   UNL     1       3.009  -9.325  -6.641  0.00  0.00    +0.003 A 
ATOM     13  C   UNL     1       2.010  -9.422  -7.591  0.00  0.00    -0.050 A 
ATOM     14  C   UNL     1       1.315  -8.293  -7.981  0.00  0.00    +0.009 A 
ATOM     15  C   UNL     1       1.676 -10.760  -8.199  0.00  0.00    +0.044 C 
ENDBRANCH   3   9
BRANCH   2  16
ATOM     16  C   UNL     1      -1.164  -6.491  -6.464  0.00  0.00    +0.339 C 
ATOM     17  O   UNL     1      -2.067  -6.190  -5.705  0.00  0.00    -0.245 OA
BRANCH  16  18
ATOM     18  O   UNL     1      -1.105  -7.735  -6.983  0.00  0.00    -0.462 OA
BRANCH  18  19
ATOM     19  C   UNL     1      -2.135  -8.648  -6.598  0.00  0.00    +0.229 C 
ATOM     20  C   UNL     1      -1.903  -9.997  -7.281  0.00  0.00    +0.048 C 
ENDBRANCH  18  19
ENDBRANCH  16  18
ENDBRANCH   2  16
BRANCH   1  21
ATOM     21  C   UNL     1      -1.159  -3.994  -5.143  0.00  0.00    +0.136 C 
BRANCH  21  28
ATOM     22  C   UNL     1      -6.108  -3.407  -6.665  0.00  0.00    +0.215 C 
ATOM     23  O   UNL     1      -6.179  -4.434  -7.306  0.00  0.00    -0.276 OA
ATOM     24  N   UNL     1      -4.988  -2.658  -6.714  0.00  0.00    -0.300 N 
ATOM     25  C   UNL     1      -4.929  -1.416  -5.919  0.00  0.00    +0.109 C 
ATOM     26  C   UNL     1      -3.559  -1.250  -5.242  0.00  0.00    +0.034 C 
ATOM     27  C   UNL     1      -3.081  -2.590  -4.728  0.00  0.00    +0.086 C 
ATOM     28  N   UNL     1      -2.256  -3.229  -5.752  0.00  0.00    -0.295 NA
ATOM     29  C   UNL     1      -2.941  -4.005  -6.716  0.00  0.00    +0.103 C 
ATOM     30  C   UNL     1      -3.886  -3.107  -7.540  0.00  0.00    +0.123 C 
BRANCH  22  32
ATOM     31  C   UNL     1      -8.407  -3.986  -5.937  0.00  0.00    +0.013 C 
ATOM     32  C   UNL     1      -7.272  -2.966  -5.815  0.00  0.00    +0.092 C 
ENDBRANCH  22  32
ENDBRANCH  21  28
ENDBRANCH   1  21
BRANCH   7  33
ATOM     33  C   UNL     1       0.797  -2.116  -5.836  0.00  0.00    +0.141 C 
BRANCH  33  34
ATOM     34  C   UNL     1       1.700  -2.180  -4.631  0.00  0.00    -0.015 C 
ATOM     35  C   UNL     1       2.682  -1.323  -4.503  0.00  0.00    +0.005 C 
ENDBRANCH  33  34
ENDBRANCH   7  33
TORSDOF 9
