REMARK  Name = ZINC38604042
REMARK  5 active torsions:
REMARK  status: ('A' for Active; 'I' for Inactive)
REMARK    1  A    between atoms: C_1  and  C_2
REMARK    2  A    between atoms: C_5  and  C_8
REMARK    3  A    between atoms: C_12  and  C_14
REMARK    4  A    between atoms: N_15  and  N_16
REMARK    5  A    between atoms: C_17  and  C_28
REMARK                            x       y       z     vdW  Elec       q    Type
REMARK                         _______ _______ _______ _____ _____    ______ ____
ROOT
ATOM      1  C   UNL     1      -1.160  -5.163   2.095  0.00  0.00    +0.119 C 
ATOM      2  N   UNL     1      -1.058  -4.599   3.239  0.00  0.00    -0.187 NA
ENDROOT
BRANCH   2   3
ATOM      3  N   UNL     1      -2.210  -4.317   3.986  0.00  0.00    -0.169 N 
ATOM      4  C   UNL     1      -3.526  -4.563   3.397  0.00  0.00    +0.181 C 
ATOM      5  N   UNL     1      -4.506  -3.604   3.922  0.00  0.00    -0.324 N 
ATOM      6  C   UNL     1      -4.511  -3.341   5.287  0.00  0.00    +0.041 A 
ATOM      7  C   UNL     1      -5.666  -2.981   5.960  0.00  0.00    +0.024 A 
ATOM      8  C   UNL     1      -5.617  -2.736   7.319  0.00  0.00    +0.002 A 
ATOM      9  C   UNL     1      -4.423  -2.848   8.013  0.00  0.00    +0.001 A 
ATOM     10  C   UNL     1      -3.262  -3.204   7.357  0.00  0.00    +0.015 A 
ATOM     11  C   UNL     1      -3.296  -3.451   5.987  0.00  0.00    +0.059 A 
ATOM     12  C   UNL     1      -2.085  -3.829   5.237  0.00  0.00    +0.269 C 
ATOM     13  O   UNL     1      -0.985  -3.699   5.739  0.00  0.00    -0.268 OA
ATOM     14  C   UNL     1      -3.978  -5.984   3.740  0.00  0.00    +0.051 C 
ATOM     15  H   UNL     1      -5.135  -3.164   3.330  0.00  0.00    +0.148 HD
ENDBRANCH   2   3
BRANCH   1  20
ATOM     16  C   UNL     1      -0.114  -4.620  -0.094  0.00  0.00    +0.084 C 
ATOM     17  N   UNL     1      -0.046  -5.545  -1.011  0.00  0.00    -0.153 NA
ATOM     18  N   UNL     1       0.151  -6.811  -0.468  0.00  0.00    -0.161 NA
ATOM     19  C   UNL     1       0.223  -6.789   0.823  0.00  0.00    +0.123 C 
ATOM     20  C   UNL     1       0.061  -5.338   1.230  0.00  0.00    +0.125 C 
BRANCH  16  25
ATOM     21  C   UNL     1      -0.899   1.016  -0.906  0.00  0.00    +0.044 C 
ATOM     22  C   UNL     1      -0.693  -0.461  -0.693  0.00  0.00    -0.050 A 
ATOM     23  C   UNL     1      -0.649  -1.314  -1.782  0.00  0.00    +0.004 A 
ATOM     24  C   UNL     1      -0.462  -2.667  -1.596  0.00  0.00    +0.010 A 
ATOM     25  C   UNL     1      -0.315  -3.177  -0.302  0.00  0.00    -0.001 A 
ATOM     26  C   UNL     1      -0.359  -2.309   0.793  0.00  0.00    +0.010 A 
ATOM     27  C   UNL     1      -0.543  -0.958   0.590  0.00  0.00    +0.004 A 
ENDBRANCH  16  25
ENDBRANCH   1  20
TORSDOF 3
