REMARK  Name = ZINC16989298
REMARK  11 active torsions:
REMARK  status: ('A' for Active; 'I' for Inactive)
REMARK    1  A    between atoms: C_1  and  C_2
REMARK    2  A    between atoms: C_2  and  C_4
REMARK    3  A    between atoms: C_2  and  O_19
REMARK    4  A    between atoms: C_16  and  C_17
REMARK    5  A    between atoms: C_16  and  C_18
REMARK    6  A    between atoms: O_19  and  C_20
REMARK    7  A    between atoms: C_20  and  C_22
REMARK    8  A    between atoms: C_22  and  C_23
REMARK    9  A    between atoms: C_23  and  N_24
REMARK   10  A    between atoms: N_24  and  S_25
REMARK   11  A    between atoms: S_25  and  C_28
REMARK                            x       y       z     vdW  Elec       q    Type
REMARK                         _______ _______ _______ _____ _____    ______ ____
ROOT
ATOM      1  C   UNL     1      -0.660   2.045   0.158  0.00  0.00    +0.062 C 
ATOM      2  C   UNL     1      -0.274   0.592  -0.129  0.00  0.00    +0.259 C 
ENDROOT
BRANCH   2   3
ATOM      3  C   UNL     1      -1.495  -0.284  -0.014  0.00  0.00    +0.261 C 
ATOM      4  O   UNL     1      -1.809  -1.010  -0.933  0.00  0.00    -0.271 OA
ATOM      5  N   UNL     1      -2.238  -0.260   1.111  0.00  0.00    -0.252 N 
ATOM      6  C   UNL     1      -1.820   0.463   2.239  0.00  0.00    +0.059 A 
ATOM      7  C   UNL     1      -0.477   0.663   2.503  0.00  0.00    +0.025 A 
ATOM      8  C   UNL     1      -0.097   1.377   3.626  0.00  0.00    +0.002 A 
ATOM      9  C   UNL     1      -1.056   1.889   4.482  0.00  0.00    +0.002 A 
ATOM     10  C   UNL     1      -2.400   1.693   4.223  0.00  0.00    +0.025 A 
ATOM     11  C   UNL     1      -2.790   0.982   3.099  0.00  0.00    +0.055 A 
ATOM     12  N   UNL     1      -4.145   0.783   2.813  0.00  0.00    -0.282 N 
ATOM     13  C   UNL     1      -4.528  -0.126   1.896  0.00  0.00    +0.241 C 
ATOM     14  O   UNL     1      -5.705  -0.251   1.632  0.00  0.00    -0.273 OA
ATOM     15  C   UNL     1      -3.514  -0.985   1.193  0.00  0.00    +0.113 C 
ATOM     16  C   UNL     1      -3.316  -2.283   1.978  0.00  0.00    +0.042 C 
ATOM     17  C   UNL     1      -4.010  -1.310  -0.218  0.00  0.00    +0.042 C 
ATOM     18  H   UNL     1      -4.815   1.305   3.280  0.00  0.00    +0.155 HD
ENDBRANCH   2   3
BRANCH   2  19
ATOM     19  O   UNL     1       0.260   0.493  -1.451  0.00  0.00    -0.452 OA
BRANCH  19  20
ATOM     20  C   UNL     1       1.585   0.658  -1.586  0.00  0.00    +0.309 C 
ATOM     21  O   UNL     1       2.269   0.878  -0.615  0.00  0.00    -0.251 OA
BRANCH  20  22
ATOM     22  C   UNL     1       2.220   0.567  -2.950  0.00  0.00    +0.137 C 
BRANCH  22  23
ATOM     23  C   UNL     1       3.728   0.791  -2.826  0.00  0.00    +0.117 C 
BRANCH  23  24
ATOM     24  N   UNL     1       4.345   0.703  -4.152  0.00  0.00    -0.189 NA
ATOM     25  H   UNL     1       3.851   0.317  -4.893  0.00  0.00    +0.148 HD
BRANCH  24  26
ATOM     26  S   UNL     1       5.886   1.262  -4.387  0.00  0.00    +0.058 S 
ATOM     27  O   UNL     1       6.205   1.014  -5.750  0.00  0.00    -0.153 OA
ATOM     28  O   UNL     1       5.938   2.562  -3.816  0.00  0.00    -0.153 OA
BRANCH  26  29
ATOM     29  C   UNL     1       6.961   0.247  -3.427  0.00  0.00    +0.105 A 
ATOM     30  C   UNL     1       7.249   0.591  -2.119  0.00  0.00    +0.030 A 
ATOM     31  C   UNL     1       8.091  -0.205  -1.365  0.00  0.00    +0.022 A 
ATOM     32  C   UNL     1       8.646  -1.344  -1.920  0.00  0.00    +0.041 A 
ATOM     33  C   UNL     1       8.357  -1.687  -3.229  0.00  0.00    +0.022 A 
ATOM     34  C   UNL     1       7.510  -0.894  -3.980  0.00  0.00    +0.030 A 
ATOM     35 CL   UNL     1       9.705  -2.343  -0.974  0.00  0.00    -0.084 Cl
ENDBRANCH  26  29
ENDBRANCH  24  26
ENDBRANCH  23  24
ENDBRANCH  22  23
ENDBRANCH  20  22
ENDBRANCH  19  20
ENDBRANCH   2  19
TORSDOF 8
