REMARK  Name = ZINC36290188
REMARK  6 active torsions:
REMARK  status: ('A' for Active; 'I' for Inactive)
REMARK    1  A    between atoms: C_1  and  C_2
REMARK    2  A    between atoms: C_2  and  C_3
REMARK    3  A    between atoms: C_4  and  C_13
REMARK    4  A    between atoms: C_6  and  N_12
REMARK    5  A    between atoms: C_7  and  C_11
REMARK    6  A    between atoms: C_16  and  C_19
REMARK                            x       y       z     vdW  Elec       q    Type
REMARK                         _______ _______ _______ _____ _____    ______ ____
ROOT
ATOM      1  C   UNL     1       0.707  -0.490  -1.238  0.00  0.00    +0.017 A 
ATOM      2  C   UNL     1       1.997  -0.845  -1.395  0.00  0.00    +0.067 A 
ATOM      3  N   UNL     1       2.458  -1.270  -2.630  0.00  0.00    -0.274 N 
ATOM      4  C   UNL     1       3.652  -1.705  -3.199  0.00  0.00    +0.124 A 
ATOM      5  C   UNL     1       3.411  -1.974  -4.498  0.00  0.00    +0.079 A 
ATOM      6  N   UNL     1       2.113  -1.721  -4.749  0.00  0.00    -0.225 NA
ATOM      7  C   UNL     1       1.546  -1.306  -3.655  0.00  0.00    +0.180 A 
ATOM      8  S   UNL     1       0.047  -0.751  -2.876  0.00  0.00    -0.054 S 
ATOM      9  C   UNL     1       4.422  -2.474  -5.498  0.00  0.00    +0.069 C 
ENDROOT
BRANCH   2  10
ATOM     10  C   UNL     1       2.923  -0.781  -0.244  0.00  0.00    -0.000 A 
ATOM     11  C   UNL     1       3.991   0.117  -0.254  0.00  0.00    +0.010 A 
ATOM     12  C   UNL     1       4.852   0.172   0.823  0.00  0.00    +0.004 A 
ATOM     13  C   UNL     1       4.659  -0.662   1.910  0.00  0.00    -0.050 A 
ATOM     14  C   UNL     1       3.602  -1.555   1.926  0.00  0.00    +0.004 A 
ATOM     15  C   UNL     1       2.731  -1.616   0.858  0.00  0.00    +0.010 A 
ATOM     16  C   UNL     1       5.604  -0.597   3.082  0.00  0.00    +0.044 C 
ENDBRANCH   2  10
BRANCH   4  17
ATOM     17  N   UNL     1       4.883  -1.839  -2.540  0.00  0.00    -0.343 N 
ATOM     18  H   UNL     1       4.955  -1.619  -1.599  0.00  0.00    +0.144 HD
ATOM     19  H   UNL     1       5.661  -2.152  -3.026  0.00  0.00    +0.144 HD
ENDBRANCH   4  17
BRANCH   1  21
ATOM     20  C   UNL     1      -0.019   1.526   0.010  0.00  0.00    +0.009 C 
ATOM     21  C   UNL     1       0.002  -0.004   0.002  0.00  0.00    +0.041 C 
ENDBRANCH   1  21
TORSDOF 3
