REMARK  Name = ZINC24765560
REMARK  15 active torsions:
REMARK  status: ('A' for Active; 'I' for Inactive)
REMARK    1  A    between atoms: C_1  and  C_2
REMARK    2  A    between atoms: C_2  and  C_3
REMARK    3  A    between atoms: C_3  and  C_4
REMARK    4  A    between atoms: C_4  and  N_5
REMARK    5  A    between atoms: C_6  and  N_37
REMARK    6  A    between atoms: C_7  and  N_14
REMARK    7  A    between atoms: N_14  and  C_15
REMARK    8  A    between atoms: C_15  and  C_16
REMARK    9  A    between atoms: C_16  and  C_17
REMARK   10  A    between atoms: C_17  and  C_18
REMARK   11  A    between atoms: C_17  and  C_19
REMARK   12  A    between atoms: C_20  and  C_22
REMARK   13  A    between atoms: N_27  and  C_29
REMARK   14  A    between atoms: C_33  and  S_35
REMARK   15  A    between atoms: S_35  and  C_36
REMARK                            x       y       z     vdW  Elec       q    Type
REMARK                         _______ _______ _______ _____ _____    ______ ____
ROOT
ATOM      1  N   UNL     1       4.890  -3.630   3.362  0.00  0.00    -0.264 N 
ATOM      2  C   UNL     1       5.635  -3.220   2.314  0.00  0.00    +0.225 C 
ATOM      3  O   UNL     1       6.846  -3.229   2.390  0.00  0.00    -0.275 OA
ENDROOT
BRANCH   1   6
ATOM      4  N   UNL     1       1.467  -2.471   4.025  0.00  0.00    -0.280 N 
ATOM      5  C   UNL     1       2.838  -2.565   4.089  0.00  0.00    +0.127 A 
ATOM      6  C   UNL     1       3.485  -3.510   3.320  0.00  0.00    +0.140 A 
ATOM      7  C   UNL     1       2.720  -4.352   2.491  0.00  0.00    +0.277 A 
ATOM      8  O   UNL     1       3.266  -5.196   1.801  0.00  0.00    -0.266 OA
ATOM      9  N   UNL     1       1.379  -4.219   2.465  0.00  0.00    -0.273 N 
ATOM     10  H   UNL     1       0.851  -4.799   1.895  0.00  0.00    +0.173 HD
ATOM     11  C   UNL     1       0.765  -3.296   3.226  0.00  0.00    +0.331 A 
ATOM     12  O   UNL     1      -0.447  -3.201   3.188  0.00  0.00    -0.246 OA
BRANCH   5  13
ATOM     13  N   UNL     1       3.554  -1.726   4.909  0.00  0.00    -0.343 N 
ATOM     14  H   UNL     1       3.101  -1.021   5.397  0.00  0.00    +0.144 HD
ATOM     15  H   UNL     1       4.513  -1.839   4.999  0.00  0.00    +0.144 HD
ENDBRANCH   5  13
BRANCH   4  16
ATOM     16  C   UNL     1       0.766  -1.473   4.836  0.00  0.00    +0.128 C 
BRANCH  16  17
ATOM     17  C   UNL     1       0.414  -2.077   6.197  0.00  0.00    +0.021 C 
BRANCH  17  19
ATOM     18  C   UNL     1      -0.671  -1.638   8.404  0.00  0.00    +0.004 C 
ATOM     19  C   UNL     1      -0.318  -1.034   7.044  0.00  0.00    -0.002 C 
ENDBRANCH  17  19
ENDBRANCH  16  17
ENDBRANCH   4  16
ENDBRANCH   1   6
BRANCH   2  20
ATOM     20  C   UNL     1       4.962  -2.752   1.050  0.00  0.00    +0.102 C 
ATOM     21  C   UNL     1       4.373  -1.334   1.229  0.00  0.00    +0.110 C 
ATOM     22  C   UNL     1       5.466  -0.412   0.736  0.00  0.00    +0.221 C 
ATOM     23  O   UNL     1       5.525   0.778   0.960  0.00  0.00    -0.275 OA
ATOM     24  N   UNL     1       6.364  -1.105   0.014  0.00  0.00    -0.271 N 
ATOM     25  C   UNL     1       5.997  -2.524  -0.075  0.00  0.00    +0.127 C 
BRANCH  24  26
ATOM     26  C   UNL     1       7.503  -0.546  -0.577  0.00  0.00    +0.037 A 
ATOM     27  C   UNL     1       8.326  -1.328  -1.378  0.00  0.00    +0.023 A 
ATOM     28  C   UNL     1       9.451  -0.777  -1.961  0.00  0.00    +0.003 A 
ATOM     29  C   UNL     1       9.761   0.552  -1.751  0.00  0.00    +0.015 A 
ATOM     30  C   UNL     1       8.942   1.340  -0.950  0.00  0.00    +0.009 A 
ATOM     31  C   UNL     1       7.808   0.791  -0.368  0.00  0.00    +0.038 A 
BRANCH  30  32
ATOM     32  S   UNL     1       9.339   3.036  -0.682  0.00  0.00    -0.129 S 
ATOM     33  C   UNL     1      10.865   3.285  -1.630  0.00  0.00    +0.090 C 
ENDBRANCH  30  32
ENDBRANCH  24  26
ENDBRANCH   2  20
BRANCH   1  34
ATOM     34  C   UNL     1       5.541  -4.199   4.545  0.00  0.00    +0.114 C 
BRANCH  34  35
ATOM     35  C   UNL     1       5.788  -5.693   4.322  0.00  0.00    +0.022 C 
BRANCH  35  36
ATOM     36  C   UNL     1       6.378  -6.308   5.593  0.00  0.00    -0.016 C 
ATOM     37  C   UNL     1       5.347  -6.232   6.721  0.00  0.00    +0.007 C 
ATOM     38  C   UNL     1       6.741  -7.771   5.330  0.00  0.00    +0.007 C 
ENDBRANCH  35  36
ENDBRANCH  34  35
ENDBRANCH   1  34
TORSDOF 11
