REMARK  Name = ZINC04914692
REMARK  7 active torsions:
REMARK  status: ('A' for Active; 'I' for Inactive)
REMARK    1  A    between atoms: C_1  and  C_2
REMARK    2  A    between atoms: C_2  and  C_4
REMARK    3  A    between atoms: C_2  and  O_16
REMARK    4  A    between atoms: N_6  and  C_7
REMARK    5  A    between atoms: C_12  and  N_13
REMARK    6  A    between atoms: O_16  and  C_17
REMARK    7  A    between atoms: C_17  and  C_19
REMARK                            x       y       z     vdW  Elec       q    Type
REMARK                         _______ _______ _______ _____ _____    ______ ____
ROOT
ATOM      1  C   UNL     1      -4.218  -1.257  -1.437  0.00  0.00    +0.062 C 
ATOM      2  C   UNL     1      -3.773  -1.016   0.007  0.00  0.00    +0.259 C 
ENDROOT
BRANCH   2   3
ATOM      3  C   UNL     1      -3.648  -2.337   0.721  0.00  0.00    +0.258 C 
ATOM      4  O   UNL     1      -2.581  -2.675   1.188  0.00  0.00    -0.271 OA
ATOM      5  N   UNL     1      -4.722  -3.142   0.842  0.00  0.00    -0.281 N 
ATOM      6  H   UNL     1      -5.593  -2.838   0.540  0.00  0.00    +0.155 HD
BRANCH   5   7
ATOM      7  C   UNL     1      -4.582  -4.417   1.401  0.00  0.00    +0.064 A 
ATOM      8  C   UNL     1      -3.355  -5.067   1.353  0.00  0.00    +0.025 A 
ATOM      9  C   UNL     1      -3.218  -6.323   1.910  0.00  0.00    +0.002 A 
ATOM     10  C   UNL     1      -4.304  -6.938   2.506  0.00  0.00    +0.002 A 
ATOM     11  C   UNL     1      -5.527  -6.296   2.552  0.00  0.00    +0.034 A 
ATOM     12  C   UNL     1      -5.669  -5.037   2.001  0.00  0.00    +0.147 A 
BRANCH  12  13
ATOM     13  N   UNL     1      -6.980  -4.351   2.050  0.00  0.00    +0.058 N 
ATOM     14  O   UNL     1      -7.909  -4.855   2.654  0.00  0.00    -0.126 OA
ATOM     15  O   UNL     1      -7.128  -3.281   1.485  0.00  0.00    -0.126 OA
ENDBRANCH  12  13
ENDBRANCH   5   7
ENDBRANCH   2   3
BRANCH   2  16
ATOM     16  O   UNL     1      -2.488  -0.340   0.011  0.00  0.00    -0.449 OA
BRANCH  16  17
ATOM     17  C   UNL     1      -2.505   1.007   0.007  0.00  0.00    +0.341 C 
ATOM     18  O   UNL     1      -3.565   1.601   0.000  0.00  0.00    -0.245 OA
BRANCH  17  19
ATOM     19  C   UNL     1      -1.238   1.762   0.011  0.00  0.00    +0.077 A 
ATOM     20  C   UNL     1      -0.017   1.081   0.018  0.00  0.00    +0.019 A 
ATOM     21  C   UNL     1       1.164   1.791   0.016  0.00  0.00    +0.039 A 
ATOM     22  C   UNL     1       1.144   3.178   0.012  0.00  0.00    +0.125 A 
ATOM     23  C   UNL     1      -0.062   3.859   0.010  0.00  0.00    +0.059 A 
ATOM     24  C   UNL     1      -1.252   3.160   0.012  0.00  0.00    +0.058 A 
ATOM     25 CL   UNL     1      -2.764   4.014   0.010  0.00  0.00    -0.083 Cl
ATOM     26  F   UNL     1       2.306   3.867   0.010  0.00  0.00    -0.205 F 
ENDBRANCH  17  19
ENDBRANCH  16  17
ENDBRANCH   2  16
TORSDOF 6
