REMARK  Name = ZINC35845096
REMARK  5 active torsions:
REMARK  status: ('A' for Active; 'I' for Inactive)
REMARK    1  A    between atoms: C_1  and  C_2
REMARK    2  A    between atoms: C_2  and  C_4
REMARK    3  A    between atoms: C_2  and  N_16
REMARK    4  A    between atoms: C_6  and  C_9
REMARK    5  A    between atoms: C_17  and  C_19
REMARK                            x       y       z     vdW  Elec       q    Type
REMARK                         _______ _______ _______ _____ _____    ______ ____
ROOT
ATOM      1  C   UNL     1      -0.019   1.526   0.010  0.00  0.00    +0.038 C 
ATOM      2  C   UNL     1       0.002  -0.004   0.002  0.00  0.00    +0.159 C 
ENDROOT
BRANCH   2   3
ATOM      3  C   UNL     1       0.731  -0.503   1.223  0.00  0.00    +0.248 A 
ATOM      4  N   UNL     1       1.937  -0.994   1.242  0.00  0.00    -0.190 NA
ATOM      5  C   UNL     1       2.274  -1.341   2.497  0.00  0.00    +0.202 A 
ATOM      6  N   UNL     1       1.269  -1.067   3.291  0.00  0.00    -0.056 NA
ATOM      7  O   UNL     1       0.250  -0.512   2.473  0.00  0.00    -0.336 OA
BRANCH   5   8
ATOM      8  C   UNL     1       3.569  -1.935   2.913  0.00  0.00    +0.024 A 
ATOM      9  C   UNL     1       4.565  -2.173   1.968  0.00  0.00    +0.012 A 
ATOM     10  C   UNL     1       5.767  -2.725   2.359  0.00  0.00    +0.002 A 
ATOM     11  C   UNL     1       5.986  -3.043   3.688  0.00  0.00    +0.020 A 
ATOM     12  C   UNL     1       5.001  -2.808   4.631  0.00  0.00    +0.042 A 
ATOM     13  C   UNL     1       3.796  -2.250   4.250  0.00  0.00    +0.031 A 
ATOM     14 CL   UNL     1       5.282  -3.211   6.296  0.00  0.00    -0.084 Cl
ENDBRANCH   5   8
ENDBRANCH   2   3
BRANCH   2  15
ATOM     15  N   UNL     1      -1.372  -0.511   0.012  0.00  0.00    -0.304 N 
ATOM     16  C   UNL     1      -2.051  -0.643  -1.145  0.00  0.00    +0.220 C 
ATOM     17  O   UNL     1      -1.524  -0.341  -2.194  0.00  0.00    -0.275 OA
ATOM     18  H   UNL     1      -1.794  -0.752   0.852  0.00  0.00    +0.149 HD
BRANCH  16  19
ATOM     19  C   UNL     1      -3.465  -1.164  -1.134  0.00  0.00    +0.048 C 
ATOM     20  C   UNL     1      -4.344  -0.237  -0.293  0.00  0.00    +0.019 C 
ATOM     21  C   UNL     1      -5.779  -0.766  -0.282  0.00  0.00    -0.009 C 
ATOM     22  C   UNL     1      -6.315  -0.817  -1.714  0.00  0.00    +0.007 C 
ATOM     23  C   UNL     1      -5.436  -1.745  -2.555  0.00  0.00    -0.009 C 
ATOM     24  C   UNL     1      -4.000  -1.215  -2.566  0.00  0.00    +0.019 C 
ATOM     25  C   UNL     1      -5.456  -3.151  -1.953  0.00  0.00    +0.007 C 
ATOM     26  C   UNL     1      -4.920  -3.100  -0.521  0.00  0.00    -0.009 C 
ATOM     27  C   UNL     1      -5.800  -2.173   0.320  0.00  0.00    +0.007 C 
ATOM     28  C   UNL     1      -3.485  -2.571  -0.532  0.00  0.00    +0.019 C 
ENDBRANCH  16  19
ENDBRANCH   2  15
TORSDOF 4
