REMARK  Name = ZINC01873878
REMARK  12 active torsions:
REMARK  status: ('A' for Active; 'I' for Inactive)
REMARK    1  A    between atoms: C_1  and  C_2
REMARK    2  A    between atoms: C_3  and  C_38
REMARK    3  A    between atoms: C_11  and  S_13
REMARK    4  A    between atoms: S_13  and  C_14
REMARK    5  A    between atoms: C_14  and  C_15
REMARK    6  A    between atoms: N_17  and  C_18
REMARK    7  A    between atoms: C_21  and  S_24
REMARK    8  A    between atoms: S_24  and  N_27
REMARK    9  A    between atoms: C_30  and  O_36
REMARK   10  A    between atoms: C_32  and  O_34
REMARK   11  A    between atoms: O_34  and  C_35
REMARK   12  A    between atoms: O_36  and  C_37
REMARK                            x       y       z     vdW  Elec       q    Type
REMARK                         _______ _______ _______ _____ _____    ______ ____
ROOT
ATOM      1  C   UNL     1      -2.861  -1.095   3.933  0.00  0.00    +0.034 A 
ATOM      2  C   UNL     1      -3.211   0.248   3.893  0.00  0.00    +0.025 A 
ATOM      3  C   UNL     1      -3.141   0.943   2.701  0.00  0.00    +0.030 A 
ATOM      4  C   UNL     1      -2.722   0.303   1.549  0.00  0.00    +0.109 A 
ATOM      5  C   UNL     1      -2.378  -1.036   1.585  0.00  0.00    +0.030 A 
ATOM      6  C   UNL     1      -2.441  -1.735   2.774  0.00  0.00    +0.025 A 
ENDROOT
BRANCH   1   9
ATOM      7  C   UNL     1      -3.882  -1.499   6.044  0.00  0.00    +0.227 C 
ATOM      8  O   UNL     1      -4.736  -0.680   5.775  0.00  0.00    -0.275 OA
ATOM      9  N   UNL     1      -2.930  -1.802   5.139  0.00  0.00    -0.285 N 
ATOM     10  H   UNL     1      -2.293  -2.510   5.323  0.00  0.00    +0.155 HD
BRANCH   7  11
ATOM     11  C   UNL     1      -3.885  -2.176   7.390  0.00  0.00    +0.173 C 
BRANCH  11  12
ATOM     12  S   UNL     1      -5.275  -1.561   8.372  0.00  0.00    -0.078 S 
BRANCH  12  23
ATOM     13  C   UNL     1      -5.136  -4.789  14.539  0.00  0.00    +0.045 C 
ATOM     14  C   UNL     1      -4.317  -4.803  13.274  0.00  0.00    -0.026 A 
ATOM     15  C   UNL     1      -3.247  -5.605  13.167  0.00  0.00    -0.008 A 
ATOM     16  S   UNL     1      -2.636  -5.265  11.527  0.00  0.00    -0.073 S 
ATOM     17  C   UNL     1      -3.836  -4.055  11.032  0.00  0.00    +0.117 A 
ATOM     18  C   UNL     1      -4.678  -3.949  12.155  0.00  0.00    +0.075 A 
ATOM     19  C   UNL     1      -5.761  -3.023  12.036  0.00  0.00    +0.261 A 
ATOM     20  O   UNL     1      -6.543  -2.865  12.958  0.00  0.00    -0.267 OA
ATOM     21  N   UNL     1      -5.904  -2.325  10.894  0.00  0.00    -0.301 N 
ATOM     22  H   UNL     1      -6.655  -1.671  10.810  0.00  0.00    +0.171 HD
ATOM     23  C   UNL     1      -5.042  -2.493   9.849  0.00  0.00    +0.170 A 
ATOM     24  N   UNL     1      -4.036  -3.339   9.932  0.00  0.00    -0.216 NA
ATOM     25  C   UNL     1      -2.694  -6.564  14.190  0.00  0.00    +0.052 C 
ENDBRANCH  12  23
ENDBRANCH  11  12
ENDBRANCH   7  11
ENDBRANCH   1   9
BRANCH   4  26
ATOM     26  S   UNL     1      -2.634   1.193   0.031  0.00  0.00    +0.073 S 
ATOM     27  O   UNL     1      -3.534   2.287   0.149  0.00  0.00    -0.150 OA
ATOM     28  O   UNL     1      -2.736   0.231  -1.010  0.00  0.00    -0.150 OA
BRANCH  26  29
ATOM     29  N   UNL     1      -1.113   1.840  -0.069  0.00  0.00    -0.199 N 
ATOM     30  C   UNL     1      -0.011   1.007  -0.170  0.00  0.00    +0.148 A 
ATOM     31  C   UNL     1       1.272   1.541  -0.261  0.00  0.00    +0.112 A 
ATOM     32  C   UNL     1       2.346   0.666  -0.365  0.00  0.00    +0.222 A 
ATOM     33  N   UNL     1       2.116  -0.643  -0.375  0.00  0.00    -0.160 NA
ATOM     34  C   UNL     1       0.884  -1.116  -0.287  0.00  0.00    +0.323 A 
ATOM     35  N   UNL     1      -0.164  -0.315  -0.186  0.00  0.00    -0.178 NA
ATOM     36  H   UNL     1      -0.994   2.803  -0.058  0.00  0.00    +0.175 HD
BRANCH  34  37
ATOM     37  O   UNL     1       0.690  -2.457  -0.300  0.00  0.00    -0.466 OA
ATOM     38  C   UNL     1       1.853  -3.280  -0.411  0.00  0.00    +0.280 C 
ENDBRANCH  34  37
BRANCH  32  39
ATOM     39  O   UNL     1       3.612   1.142  -0.455  0.00  0.00    -0.479 OA
ATOM     40  C   UNL     1       4.662   0.177  -0.559  0.00  0.00    +0.279 C 
ENDBRANCH  32  39
ENDBRANCH  26  29
ENDBRANCH   4  26
TORSDOF 8
