REMARK  Name = ZINC02707207
REMARK  2 active torsions:
REMARK  status: ('A' for Active; 'I' for Inactive)
REMARK    1  A    between atoms: C_4  and  C_7
REMARK    2  A    between atoms: C_18  and  C_20
REMARK                            x       y       z     vdW  Elec       q    Type
REMARK                         _______ _______ _______ _____ _____    ______ ____
ROOT
ATOM      1  C   UNL     1       3.711  -0.707  -0.038  0.00  0.00    +0.159 C 
ATOM      2  C   UNL     1       4.024  -1.081  -1.470  0.00  0.00    +0.028 C 
ATOM      3  C   UNL     1       4.194  -2.387  -1.761  0.00  0.00    +0.083 C 
ATOM      4  C   UNL     1       4.491  -2.740  -3.173  0.00  0.00    +0.042 A 
ATOM      5  C   UNL     1       4.991  -3.988  -3.518  0.00  0.00    +0.013 A 
ATOM      6  C   UNL     1       5.255  -4.274  -4.844  0.00  0.00    +0.001 A 
ATOM      7  C   UNL     1       5.023  -3.323  -5.822  0.00  0.00    +0.004 A 
ATOM      8  C   UNL     1       4.524  -2.078  -5.486  0.00  0.00    +0.046 A 
ATOM      9  C   UNL     1       4.253  -1.778  -4.162  0.00  0.00    +0.131 A 
ATOM     10  O   UNL     1       3.756  -0.566  -3.805  0.00  0.00    -0.479 OA
ATOM     11  C   UNL     1       4.152  -0.036  -2.539  0.00  0.00    +0.241 C 
ATOM     12  N   UNL     1       4.098  -3.345  -0.807  0.00  0.00    -0.213 NA
ATOM     13  C   UNL     1       3.831  -3.108   0.456  0.00  0.00    +0.237 C 
ATOM     14  N   UNL     1       3.624  -1.824   0.910  0.00  0.00    -0.208 N 
ATOM     15  N   UNL     1       3.362  -1.925   2.279  0.00  0.00    -0.251 N 
ATOM     16  C   UNL     1       3.423  -3.249   2.587  0.00  0.00    +0.203 C 
ATOM     17  N   UNL     1       3.700  -3.930   1.520  0.00  0.00    -0.205 NA
ATOM     18  H   UNL     1       3.175  -1.194   2.889  0.00  0.00    +0.171 HD
ENDROOT
BRANCH   1  22
ATOM     19  C   UNL     1      -0.017   1.378   0.010  0.00  0.00    +0.000 A 
ATOM     20  C   UNL     1       1.171   2.086   0.002  0.00  0.00    +0.000 A 
ATOM     21  C   UNL     1       2.377   1.411  -0.013  0.00  0.00    +0.006 A 
ATOM     22  C   UNL     1       2.396   0.029  -0.020  0.00  0.00    -0.021 A 
ATOM     23  C   UNL     1       1.208  -0.679  -0.012  0.00  0.00    +0.006 A 
ATOM     24  C   UNL     1       0.002  -0.004   0.002  0.00  0.00    +0.000 A 
ENDBRANCH   1  22
BRANCH  11  25
ATOM     25  C   UNL     1       5.585   0.424  -2.617  0.00  0.00    +0.034 A 
ATOM     26  C   UNL     1       6.174   1.487  -2.017  0.00  0.00    +0.015 A 
ATOM     27  C   UNL     1       7.519   1.719  -2.234  0.00  0.00    +0.008 A 
ATOM     28  C   UNL     1       8.210   0.876  -3.040  0.00  0.00    +0.045 A 
ATOM     29  S   UNL     1       6.949  -0.295  -3.517  0.00  0.00    -0.098 S 
ENDBRANCH  11  25
TORSDOF 2
