REMARK  Name = ZINC02136571
REMARK  11 active torsions:
REMARK  status: ('A' for Active; 'I' for Inactive)
REMARK    1  A    between atoms: C_1  and  C_2
REMARK    2  A    between atoms: C_2  and  C_4
REMARK    3  A    between atoms: C_2  and  C_34
REMARK    4  A    between atoms: C_4  and  N_5
REMARK    5  A    between atoms: C_6  and  C_8
REMARK    6  A    between atoms: C_8  and  C_10
REMARK    7  A    between atoms: C_8  and  N_14
REMARK    8  A    between atoms: C_10  and  C_11
REMARK    9  A    between atoms: C_11  and  C_12
REMARK   10  A    between atoms: C_11  and  C_13
REMARK   11  A    between atoms: C_17  and  C_33
REMARK                            x       y       z     vdW  Elec       q    Type
REMARK                         _______ _______ _______ _____ _____    ______ ____
ROOT
ATOM      1  N   UNL     1      -5.627  -0.481  -2.850  0.00  0.00    -0.212 N 
ATOM      2  C   UNL     1      -6.056  -1.405  -3.738  0.00  0.00    +0.253 C 
ATOM      3  O   UNL     1      -5.377  -2.077  -4.484  0.00  0.00    -0.272 OA
ATOM      4  C   UNL     1      -7.560  -1.425  -3.605  0.00  0.00    +0.153 C 
ATOM      5  C   UNL     1      -8.068  -2.802  -3.252  0.00  0.00    +0.053 A 
ATOM      6  C   UNL     1      -8.841  -3.046  -2.169  0.00  0.00    -0.015 A 
ATOM      7  C   UNL     1      -9.134  -4.469  -2.182  0.00  0.00    +0.003 A 
ATOM      8  C   UNL     1      -9.886  -5.284  -1.331  0.00  0.00    +0.010 A 
ATOM      9  C   UNL     1      -9.950  -6.618  -1.649  0.00  0.00    +0.001 A 
ATOM     10  C   UNL     1      -9.305  -7.143  -2.757  0.00  0.00    +0.002 A 
ATOM     11  C   UNL     1      -8.556  -6.358  -3.616  0.00  0.00    +0.026 A 
ATOM     12  C   UNL     1      -8.474  -4.999  -3.319  0.00  0.00    +0.047 A 
ATOM     13  N   UNL     1      -7.838  -3.963  -3.939  0.00  0.00    -0.356 N 
ATOM     14  H   UNL     1      -7.305  -4.038  -4.746  0.00  0.00    +0.166 HD
ATOM     15  C   UNL     1      -9.285  -2.036  -1.142  0.00  0.00    +0.056 C 
ATOM     16  C   UNL     1      -9.061  -0.609  -1.666  0.00  0.00    +0.115 C 
ATOM     17  N   UNL     1      -7.793  -0.598  -2.397  0.00  0.00    -0.266 N 
ATOM     18  C   UNL     1      -6.641   0.015  -2.123  0.00  0.00    +0.313 C 
ATOM     19  O   UNL     1      -6.524   0.916  -1.316  0.00  0.00    -0.252 OA
ATOM     20  C   UNL     1      -8.252  -0.849  -4.842  0.00  0.00    +0.048 C 
ENDROOT
BRANCH   1  21
ATOM     21  C   UNL     1      -4.228  -0.075  -2.696  0.00  0.00    +0.171 C 
BRANCH  21  23
ATOM     22  N   UNL     1      -2.485  -0.154  -0.942  0.00  0.00    -0.313 N 
ATOM     23  C   UNL     1      -3.750  -0.434  -1.312  0.00  0.00    +0.234 C 
ATOM     24  O   UNL     1      -4.505  -0.976  -0.532  0.00  0.00    -0.274 OA
ATOM     25  H   UNL     1      -1.882   0.279  -1.566  0.00  0.00    +0.149 HD
BRANCH  22  26
ATOM     26  C   UNL     1      -2.021  -0.503   0.403  0.00  0.00    +0.112 C 
BRANCH  26  28
ATOM     27  C   UNL     1      -0.459   1.445   0.484  0.00  0.00    +0.014 C 
ATOM     28  C   UNL     1      -0.560  -0.079   0.564  0.00  0.00    +0.033 C 
BRANCH  28  29
ATOM     29  C   UNL     1      -0.046  -0.547   1.901  0.00  0.00    -0.043 A 
ATOM     30  C   UNL     1      -0.654  -0.115   3.065  0.00  0.00    +0.004 A 
ATOM     31  C   UNL     1      -0.182  -0.545   4.292  0.00  0.00    +0.000 A 
ATOM     32  C   UNL     1       0.897  -1.406   4.354  0.00  0.00    +0.000 A 
ATOM     33  C   UNL     1       1.504  -1.839   3.191  0.00  0.00    +0.000 A 
ATOM     34  C   UNL     1       1.030  -1.413   1.964  0.00  0.00    +0.004 A 
ENDBRANCH  28  29
ENDBRANCH  26  28
ENDBRANCH  22  26
ENDBRANCH  21  23
BRANCH  21  35
ATOM     35  C   UNL     1      -4.109   1.436  -2.900  0.00  0.00    +0.035 C 
BRANCH  35  36
ATOM     36  C   UNL     1      -4.527   1.792  -4.328  0.00  0.00    -0.015 C 
ATOM     37  C   UNL     1      -4.550   3.314  -4.488  0.00  0.00    +0.007 C 
ATOM     38  C   UNL     1      -3.528   1.190  -5.317  0.00  0.00    +0.007 C 
ENDBRANCH  35  36
ENDBRANCH  21  35
ENDBRANCH   1  21
TORSDOF 7
