REMARK  Name = ZINC63448181
REMARK  6 active torsions:
REMARK  status: ('A' for Active; 'I' for Inactive)
REMARK    1  A    between atoms: C_1  and  C_2
REMARK    2  A    between atoms: C_5  and  C_8
REMARK    3  A    between atoms: C_9  and  C_29
REMARK    4  A    between atoms: C_11  and  C_14
REMARK    5  A    between atoms: C_23  and  C_27
REMARK    6  A    between atoms: C_23  and  C_28
REMARK                            x       y       z     vdW  Elec       q    Type
REMARK                         _______ _______ _______ _____ _____    ______ ____
ROOT
ATOM      1  C   UNL     1       0.944  -6.960  -2.111  0.00  0.00    +0.052 A 
ATOM      2  C   UNL     1       0.530  -7.901  -2.999  0.00  0.00    +0.025 A 
ATOM      3  C   UNL     1       1.455  -8.406  -3.947  0.00  0.00    +0.037 A 
ATOM      4  C   UNL     1       2.754  -7.936  -3.962  0.00  0.00    +0.030 A 
ATOM      5  N   UNL     1       3.138  -7.004  -3.064  0.00  0.00    -0.325 N 
ATOM      6  H   UNL     1       4.053  -6.682  -3.075  0.00  0.00    +0.169 HD
ATOM      7  C   UNL     1       2.278  -6.508  -2.159  0.00  0.00    +0.255 A 
ATOM      8  O   UNL     1       2.657  -5.662  -1.367  0.00  0.00    -0.268 OA
ATOM      9  C   UNL     1       3.761  -8.433  -4.965  0.00  0.00    +0.060 C 
ATOM     10  C   UNL     1       3.376  -9.809  -5.501  0.00  0.00    -0.023 C 
ATOM     11  C   UNL     1       1.948  -9.753  -6.062  0.00  0.00    +0.086 C 
ATOM     12  C   UNL     1       1.023  -9.432  -4.907  0.00  0.00    +0.165 C 
ATOM     13  O   UNL     1      -0.039 -10.004  -4.777  0.00  0.00    -0.292 OA
ATOM     14  C   UNL     1       3.440 -10.835  -4.368  0.00  0.00    +0.011 C 
ATOM     15  C   UNL     1       4.346 -10.213  -6.613  0.00  0.00    +0.011 C 
ENDROOT
BRANCH   1  19
ATOM     16  C   UNL     1       0.075  -4.265  -0.032  0.00  0.00    +0.057 C 
ATOM     17  C   UNL     1       0.190  -5.033   1.277  0.00  0.00    +0.094 C 
ATOM     18  S   UNL     1       0.584  -6.717   0.628  0.00  0.00    -0.120 S 
ATOM     19  C   UNL     1      -0.013  -6.400  -1.090  0.00  0.00    +0.198 C 
ATOM     20  N   UNL     1      -0.022  -4.924  -1.114  0.00  0.00    -0.268 NA
ATOM     21  C   UNL     1       1.329  -4.490   2.142  0.00  0.00    +0.025 C 
BRANCH  16  26
ATOM     22  C   UNL     1       0.059   1.487  -0.077  0.00  0.00    +0.044 C 
ATOM     23  C   UNL     1       0.063  -0.020  -0.065  0.00  0.00    -0.050 A 
ATOM     24  C   UNL     1      -0.303  -0.701   1.082  0.00  0.00    +0.004 A 
ATOM     25  C   UNL     1      -0.302  -2.080   1.100  0.00  0.00    +0.010 A 
ATOM     26  C   UNL     1       0.071  -2.789  -0.044  0.00  0.00    -0.003 A 
ATOM     27  C   UNL     1       0.439  -2.096  -1.198  0.00  0.00    +0.010 A 
ATOM     28  C   UNL     1       0.427  -0.716  -1.204  0.00  0.00    +0.004 A 
ENDBRANCH  16  26
ENDBRANCH   1  19
TORSDOF 2
