REMARK  Name = ZINC13064962
REMARK  14 active torsions:
REMARK  status: ('A' for Active; 'I' for Inactive)
REMARK    1  A    between atoms: C_1  and  C_2
REMARK    2  A    between atoms: C_2  and  C_3
REMARK    3  A    between atoms: C_3  and  C_5
REMARK    4  A    between atoms: C_3  and  N_70
REMARK    5  A    between atoms: N_9  and  C_10
REMARK    6  A    between atoms: C_10  and  C_11
REMARK    7  A    between atoms: C_16  and  C_17
REMARK    8  A    between atoms: C_16  and  N_70
REMARK    9  A    between atoms: C_22  and  O_23
REMARK   10  A    between atoms: O_23  and  C_24
REMARK   11  A    between atoms: C_25  and  C_26
REMARK   12  A    between atoms: C_25  and  N_70
REMARK   13  A    between atoms: C_29  and  C_39
REMARK   14  A    between atoms: C_31  and  C_38
REMARK                            x       y       z     vdW  Elec       q    Type
REMARK                         _______ _______ _______ _____ _____    ______ ____
ROOT
ATOM      1  N   UNL     1       5.865   4.765  -1.378  0.00  0.00    +0.392 N 
ATOM      2  H   UNL     1       4.939   4.782  -1.821  0.00  0.00    -0.080 HD
ENDROOT
BRANCH   1   3
ATOM      3  C   UNL     1       6.707   5.817  -1.986  0.00  0.00    +0.003 C 
BRANCH   3   4
ATOM      4  C   UNL     1       7.415   5.257  -3.193  0.00  0.00    +0.139 A 
ATOM      5  N   UNL     1       6.867   4.606  -4.190  0.00  0.00    -0.115 NA
ATOM      6  N   UNL     1       7.799   4.294  -5.023  0.00  0.00    -0.023 NA
ATOM      7  N   UNL     1       8.928   4.730  -4.583  0.00  0.00    -0.044 NA
ATOM      8  N   UNL     1       8.732   5.334  -3.460  0.00  0.00    -0.223 N 
BRANCH   8   9
ATOM      9  C   UNL     1       9.752   5.979  -2.630  0.00  0.00    +0.221 C 
BRANCH   9  10
ATOM     10  C   UNL     1      10.517   4.929  -1.867  0.00  0.00    +0.126 A 
ATOM     11  C   UNL     1      11.693   4.389  -2.235  0.00  0.00    +0.046 A 
ATOM     12  C   UNL     1      12.046   3.455  -1.234  0.00  0.00    +0.041 A 
ATOM     13  C   UNL     1      11.061   3.474  -0.318  0.00  0.00    +0.195 A 
ATOM     14  O   UNL     1      10.137   4.368  -0.707  0.00  0.00    -0.466 OA
ENDBRANCH   9  10
ENDBRANCH   8   9
ENDBRANCH   3   4
BRANCH   3  16
ATOM     15  C   UNL     1       5.087   7.545  -1.190  0.00  0.00    +0.002 C 
ATOM     16  C   UNL     1       5.805   6.976  -2.416  0.00  0.00    -0.011 C 
ENDBRANCH   3  16
ENDBRANCH   1   3
BRANCH   1  17
ATOM     17  C   UNL     1       6.477   3.438  -1.597  0.00  0.00    -0.038 C 
BRANCH  17  18
ATOM     18  C   UNL     1       5.396   2.391  -1.521  0.00  0.00    -0.022 A 
ATOM     19  C   UNL     1       5.265   1.614  -0.386  0.00  0.00    +0.005 A 
ATOM     20  C   UNL     1       4.271   0.656  -0.314  0.00  0.00    +0.000 A 
ATOM     21  C   UNL     1       3.412   0.466  -1.380  0.00  0.00    +0.004 A 
ATOM     22  C   UNL     1       3.542   1.237  -2.519  0.00  0.00    +0.046 A 
ATOM     23  C   UNL     1       4.536   2.202  -2.593  0.00  0.00    +0.121 A 
BRANCH  23  24
ATOM     24  O   UNL     1       4.666   2.961  -3.712  0.00  0.00    -0.495 OA
ATOM     25  C   UNL     1       3.745   2.712  -4.776  0.00  0.00    +0.277 C 
ENDBRANCH  23  24
ENDBRANCH  17  18
ENDBRANCH   1  17
BRANCH   1  26
ATOM     26  C   UNL     1       5.710   5.017   0.070  0.00  0.00    -0.036 C 
BRANCH  26  27
ATOM     27  C   UNL     1       7.054   5.232   0.716  0.00  0.00    +0.001 A 
ATOM     28  C   UNL     1       7.537   6.490   0.868  0.00  0.00    +0.017 A 
ATOM     29  C   UNL     1       8.847   6.665   1.498  0.00  0.00    +0.002 A 
ATOM     30  C   UNL     1       9.397   7.938   1.682  0.00  0.00    -0.041 A 
ATOM     31  C   UNL     1      10.622   8.067   2.274  0.00  0.00    +0.007 A 
ATOM     32  C   UNL     1      11.325   6.946   2.694  0.00  0.00    -0.048 A 
ATOM     33  C   UNL     1      10.802   5.683   2.524  0.00  0.00    +0.029 A 
ATOM     34  C   UNL     1       9.556   5.526   1.924  0.00  0.00    +0.050 A 
ATOM     35  N   UNL     1       9.010   4.274   1.740  0.00  0.00    -0.322 N 
ATOM     36  H   UNL     1       9.500   3.491   2.034  0.00  0.00    +0.169 HD
ATOM     37  C   UNL     1       7.806   4.123   1.160  0.00  0.00    +0.251 A 
ATOM     38  O   UNL     1       7.354   3.001   1.013  0.00  0.00    -0.268 OA
ATOM     39  C   UNL     1      12.675   7.113   3.344  0.00  0.00    +0.044 C 
ATOM     40  C   UNL     1       8.643   9.161   1.230  0.00  0.00    +0.044 C 
ENDBRANCH  26  27
ENDBRANCH   1  26
TORSDOF 10
