REMARK  Name = ZINC35370250
REMARK  5 active torsions:
REMARK  status: ('A' for Active; 'I' for Inactive)
REMARK    1  A    between atoms: C_1  and  C_2
REMARK    2  A    between atoms: C_7  and  C_8
REMARK    3  A    between atoms: C_17  and  C_21
REMARK    4  A    between atoms: N_23  and  C_24
REMARK    5  A    between atoms: C_24  and  C_25
REMARK                            x       y       z     vdW  Elec       q    Type
REMARK                         _______ _______ _______ _____ _____    ______ ____
ROOT
ATOM      1  C   UNL     1       0.142  -0.146   2.576  0.00  0.00    +0.247 C 
ATOM      2  O   UNL     1       0.030   1.060   2.673  0.00  0.00    -0.270 OA
ATOM      3  N   UNL     1       0.340  -0.896   3.678  0.00  0.00    -0.298 N 
ATOM      4  C   UNL     1       0.610  -2.336   3.565  0.00  0.00    +0.107 C 
ATOM      5  C   UNL     1       1.911  -2.652   4.312  0.00  0.00    +0.017 C 
ATOM      6  C   UNL     1       1.821  -2.120   5.735  0.00  0.00    -0.016 C 
ATOM      7  C   UNL     1       1.591  -0.616   5.754  0.00  0.00    +0.017 C 
ATOM      8  C   UNL     1       0.295  -0.286   5.015  0.00  0.00    +0.107 C 
ATOM      9  N   UNL     1       0.781  -2.826   6.502  0.00  0.00    +0.397 N 
ATOM     10  C   UNL     1       1.230  -3.468   7.741  0.00  0.00    +0.028 C 
ATOM     11  C   UNL     1       2.708  -3.943   7.615  0.00  0.00    +0.061 C 
ATOM     12  S   UNL     1       3.371  -2.518   6.639  0.00  0.00    -0.174 S 
ATOM     13  H   UNL     1       0.057  -2.164   6.734  0.00  0.00    -0.083 HD
ATOM     14  H   UNL     1       0.379  -3.535   5.907  0.00  0.00    -0.083 HD
ENDROOT
BRANCH   1  21
ATOM     15  C   UNL     1       1.756   0.861   0.396  0.00  0.00    +0.044 C 
ATOM     16  C   UNL     1       0.835  -0.314   0.189  0.00  0.00    -0.038 A 
ATOM     17  C   UNL     1       0.759  -0.924  -1.046  0.00  0.00    +0.004 A 
ATOM     18  C   UNL     1      -0.086  -2.003  -1.238  0.00  0.00    +0.000 A 
ATOM     19  C   UNL     1      -0.860  -2.477  -0.193  0.00  0.00    +0.001 A 
ATOM     20  C   UNL     1      -0.793  -1.877   1.047  0.00  0.00    +0.013 A 
ATOM     21  C   UNL     1       0.061  -0.791   1.248  0.00  0.00    +0.040 A 
ENDBRANCH   1  21
BRANCH  10  22
ATOM     22  C   UNL     1       0.352  -4.657   8.031  0.00  0.00    +0.200 C 
ATOM     23  O   UNL     1      -0.556  -4.939   7.277  0.00  0.00    -0.278 OA
ATOM     24  N   UNL     1       0.575  -5.409   9.127  0.00  0.00    -0.313 N 
ATOM     25  H   UNL     1       1.301  -5.184   9.730  0.00  0.00    +0.149 HD
BRANCH  24  26
ATOM     26  C   UNL     1      -0.279  -6.566   9.408  0.00  0.00    +0.139 C 
BRANCH  26  27
ATOM     27  C   UNL     1       0.177  -7.230  10.682  0.00  0.00    -0.027 A 
ATOM     28  C   UNL     1       1.131  -8.229  10.635  0.00  0.00    +0.009 A 
ATOM     29  C   UNL     1       1.553  -8.841  11.800  0.00  0.00    +0.050 A 
ATOM     30  C   UNL     1       1.021  -8.453  13.019  0.00  0.00    +0.166 A 
ATOM     31  C   UNL     1       0.060  -7.446  13.066  0.00  0.00    +0.167 A 
ATOM     32  C   UNL     1      -0.354  -6.833  11.895  0.00  0.00    +0.054 A 
ATOM     33  O   UNL     1      -0.302  -7.249  14.368  0.00  0.00    -0.453 OA
ATOM     34  C   UNL     1       0.144  -8.423  15.072  0.00  0.00    +0.466 C 
ATOM     35  O   UNL     1       1.260  -8.888  14.291  0.00  0.00    -0.453 OA
ENDBRANCH  26  27
ENDBRANCH  24  26
ENDBRANCH  10  22
TORSDOF 4
