REMARK  Name = ZINC39468243
REMARK  7 active torsions:
REMARK  status: ('A' for Active; 'I' for Inactive)
REMARK    1  A    between atoms: C_1  and  N_2
REMARK    2  A    between atoms: C_6  and  C_18
REMARK    3  A    between atoms: C_8  and  N_9
REMARK    4  A    between atoms: C_10  and  C_12
REMARK    5  A    between atoms: N_20  and  C_21
REMARK    6  A    between atoms: C_21  and  C_22
REMARK    7  A    between atoms: C_32  and  C_34
REMARK                            x       y       z     vdW  Elec       q    Type
REMARK                         _______ _______ _______ _____ _____    ______ ____
ROOT
ATOM      1  C   UNL     1      -0.013   1.449   0.012  0.00  0.00    +0.131 C 
ATOM      2  N   UNL     1       0.014  -0.015  -0.003  0.00  0.00    -0.312 N 
ATOM      3  C   UNL     1      -0.077  -0.833  -1.132  0.00  0.00    +0.074 A 
ATOM      4  C   UNL     1      -0.015  -2.172  -0.753  0.00  0.00    +0.052 A 
ATOM      5  C   UNL     1      -0.086  -3.168  -1.715  0.00  0.00    +0.038 A 
ATOM      6  C   UNL     1      -0.220  -2.832  -3.064  0.00  0.00    +0.040 A 
ATOM      7  C   UNL     1      -0.282  -1.489  -3.443  0.00  0.00    +0.038 A 
ATOM      8  C   UNL     1      -0.211  -0.497  -2.483  0.00  0.00    +0.057 A 
ATOM      9  N   UNL     1       0.118  -2.264   0.641  0.00  0.00    -0.324 N 
ATOM     10  C   UNL     1       0.148  -0.893   1.166  0.00  0.00    +0.161 C 
ATOM     11  H   UNL     1       0.183  -3.080   1.160  0.00  0.00    +0.148 HD
ENDROOT
BRANCH   8  12
ATOM     12  N   UNL     1      -0.273   0.851  -2.865  0.00  0.00    -0.282 N 
ATOM     13  C   UNL     1      -1.045   1.222  -3.905  0.00  0.00    +0.246 C 
ATOM     14  O   UNL     1      -1.763   0.408  -4.448  0.00  0.00    -0.273 OA
ATOM     15  H   UNL     1       0.240   1.516  -2.380  0.00  0.00    +0.155 HD
BRANCH  13  16
ATOM     16  C   UNL     1      -1.018   2.647  -4.394  0.00  0.00    +0.204 C 
ATOM     17  C   UNL     1       0.368   2.982  -4.999  0.00  0.00    +0.043 C 
ATOM     18  C   UNL     1      -0.003   4.141  -5.964  0.00  0.00    +0.031 C 
ATOM     19  C   UNL     1      -1.413   3.731  -6.441  0.00  0.00    +0.161 C 
ATOM     20  O   UNL     1      -1.952   2.823  -5.470  0.00  0.00    -0.367 OA
ENDBRANCH  13  16
ENDBRANCH   8  12
BRANCH   6  21
ATOM     21  C   UNL     1      -0.295  -3.893  -4.086  0.00  0.00    +0.244 C 
ATOM     22  O   UNL     1      -0.241  -5.061  -3.754  0.00  0.00    -0.270 OA
ATOM     23  N   UNL     1      -0.424  -3.567  -5.387  0.00  0.00    -0.309 N 
ATOM     24  H   UNL     1      -0.468  -2.635  -5.652  0.00  0.00    +0.149 HD
BRANCH  23  25
ATOM     25  C   UNL     1      -0.499  -4.621  -6.402  0.00  0.00    +0.137 C 
BRANCH  25  26
ATOM     26  C   UNL     1      -0.642  -3.986  -7.787  0.00  0.00    +0.173 C 
ATOM     27  C   UNL     1      -0.538  -5.037  -8.873  0.00  0.00    -0.019 C 
ATOM     28  C   UNL     1       0.530  -4.684  -9.586  0.00  0.00    +0.065 C 
ATOM     29  C   UNL     1       0.742  -5.671 -10.719  0.00  0.00    +0.057 C 
ATOM     30  C   UNL     1      -0.094  -6.911 -10.335  0.00  0.00    +0.011 C 
ATOM     31  C   UNL     1      -1.174  -6.289  -9.420  0.00  0.00    +0.035 C 
ATOM     32  N   UNL     1       1.081  -3.553  -9.065  0.00  0.00    -0.158 NA
ATOM     33  N   UNL     1       0.498  -3.099  -8.075  0.00  0.00    -0.178 NA
ENDBRANCH  25  26
ENDBRANCH  23  25
ENDBRANCH   6  21
BRANCH  10  34
ATOM     34  C   UNL     1      -1.022  -0.674   2.127  0.00  0.00    +0.027 C 
ATOM     35  C   UNL     1      -0.833   0.532   3.062  0.00  0.00    +0.007 C 
ATOM     36  C   UNL     1      -1.450  -0.333   4.174  0.00  0.00    +0.001 C 
ATOM     37  C   UNL     1      -0.960  -1.558   3.384  0.00  0.00    +0.007 C 
ENDBRANCH  10  34
TORSDOF 6
