REMARK  Name = ZINC01771800
REMARK  8 active torsions:
REMARK  status: ('A' for Active; 'I' for Inactive)
REMARK    1  A    between atoms: C_1  and  C_2
REMARK    2  A    between atoms: C_3  and  C_14
REMARK    3  A    between atoms: N_5  and  C_7
REMARK    4  A    between atoms: N_15  and  N_16
REMARK    5  A    between atoms: C_17  and  C_19
REMARK    6  A    between atoms: C_19  and  C_21
REMARK    7  A    between atoms: C_19  and  N_33
REMARK    8  A    between atoms: C_34  and  C_36
REMARK                            x       y       z     vdW  Elec       q    Type
REMARK                         _______ _______ _______ _____ _____    ______ ____
ROOT
ATOM      1  C   UNL     1      -0.017  -1.240  -7.281  0.00  0.00    +0.212 C 
ENDROOT
BRANCH   1   2
ATOM      2  C   UNL     1       1.200  -0.392  -7.545  0.00  0.00    +0.099 A 
ATOM      3  C   UNL     1       1.181   1.035  -7.222  0.00  0.00    +0.013 A 
ATOM      4  C   UNL     1       0.057   1.650  -6.667  0.00  0.00    +0.010 A 
ATOM      5  C   UNL     1       0.088   2.987  -6.382  0.00  0.00    +0.001 A 
ATOM      6  C   UNL     1       1.224   3.744  -6.637  0.00  0.00    +0.001 A 
ATOM      7  C   UNL     1       2.348   3.164  -7.184  0.00  0.00    +0.014 A 
ATOM      8  C   UNL     1       2.339   1.802  -7.482  0.00  0.00    +0.050 A 
ATOM      9  C   UNL     1       3.504   1.126  -8.065  0.00  0.00    +0.272 A 
ATOM     10  O   UNL     1       4.525   1.745  -8.307  0.00  0.00    -0.266 OA
ATOM     11  N   UNL     1       3.423  -0.195  -8.328  0.00  0.00    -0.242 N 
ATOM     12  H   UNL     1       4.190  -0.648  -8.713  0.00  0.00    +0.192 HD
ATOM     13  N   UNL     1       2.268  -0.928  -8.055  0.00  0.00    -0.173 NA
ENDBRANCH   1   2
BRANCH   1  15
ATOM     14  N   UNL     1      -0.011  -0.805  -4.846  0.00  0.00    -0.205 N 
ATOM     15  C   UNL     1      -0.003  -1.706  -5.848  0.00  0.00    +0.259 C 
ATOM     16  O   UNL     1       0.015  -2.893  -5.596  0.00  0.00    -0.272 OA
ATOM     17  H   UNL     1      -0.026   0.144  -5.047  0.00  0.00    +0.177 HD
BRANCH  14  19
ATOM     18  C   UNL     1      -0.006  -0.370  -2.549  0.00  0.00    +0.143 C 
ATOM     19  N   UNL     1       0.002  -1.238  -3.514  0.00  0.00    -0.188 NA
BRANCH  18  22
ATOM     20  C   UNL     1      -0.018   1.503   0.010  0.00  0.00    +0.068 C 
ATOM     21  C   UNL     1       0.002  -0.004   0.002  0.00  0.00    +0.070 A 
ATOM     22  C   UNL     1       0.008  -0.826  -1.146  0.00  0.00    +0.054 A 
ATOM     23  C   UNL     1       0.029  -2.136  -0.712  0.00  0.00    +0.142 A 
ATOM     24  N   UNL     1       0.035  -2.112   0.639  0.00  0.00    -0.221 N 
ATOM     25  N   UNL     1       0.023  -0.776   1.055  0.00  0.00    -0.170 NA
ATOM     26 CL   UNL     1       0.043  -3.553  -1.715  0.00  0.00    -0.061 Cl
BRANCH  24  27
ATOM     27  C   UNL     1       0.054  -3.233   1.479  0.00  0.00    +0.067 A 
ATOM     28  C   UNL     1      -0.617  -4.391   1.110  0.00  0.00    +0.028 A 
ATOM     29  C   UNL     1      -0.596  -5.494   1.941  0.00  0.00    +0.002 A 
ATOM     30  C   UNL     1       0.092  -5.446   3.139  0.00  0.00    +0.000 A 
ATOM     31  C   UNL     1       0.760  -4.294   3.510  0.00  0.00    +0.002 A 
ATOM     32  C   UNL     1       0.749  -3.189   2.681  0.00  0.00    +0.028 A 
ENDBRANCH  24  27
ENDBRANCH  18  22
ENDBRANCH  14  19
ENDBRANCH   1  15
BRANCH   1  33
ATOM     33  N   UNL     1      -0.005  -2.402  -8.172  0.00  0.00    -0.295 N 
ATOM     34  C   UNL     1      -0.506  -2.301  -9.419  0.00  0.00    +0.245 C 
ATOM     35  O   UNL     1      -0.968  -1.244  -9.804  0.00  0.00    -0.270 OA
ATOM     36  H   UNL     1       0.364  -3.245  -7.865  0.00  0.00    +0.150 HD
BRANCH  34  37
ATOM     37  C   UNL     1      -0.494  -3.474 -10.319  0.00  0.00    +0.037 A 
ATOM     38  C   UNL     1       0.031  -4.690  -9.879  0.00  0.00    +0.013 A 
ATOM     39  C   UNL     1       0.039  -5.780 -10.723  0.00  0.00    +0.001 A 
ATOM     40  C   UNL     1      -0.471  -5.671 -12.005  0.00  0.00    +0.000 A 
ATOM     41  C   UNL     1      -0.992  -4.468 -12.448  0.00  0.00    +0.001 A 
ATOM     42  C   UNL     1      -1.012  -3.371 -11.611  0.00  0.00    +0.013 A 
ENDBRANCH  34  37
ENDBRANCH   1  33
TORSDOF 7
