REMARK  Name = ZINC13065407
REMARK  9 active torsions:
REMARK  status: ('A' for Active; 'I' for Inactive)
REMARK    1  A    between atoms: C_4  and  C_7
REMARK    2  A    between atoms: C_7  and  C_8
REMARK    3  A    between atoms: C_8  and  N_64
REMARK    4  A    between atoms: C_9  and  C_10
REMARK    5  A    between atoms: C_9  and  N_64
REMARK    6  A    between atoms: C_25  and  C_26
REMARK    7  A    between atoms: C_25  and  N_64
REMARK    8  A    between atoms: N_30  and  C_31
REMARK    9  A    between atoms: C_31  and  C_32
REMARK                            x       y       z     vdW  Elec       q    Type
REMARK                         _______ _______ _______ _____ _____    ______ ____
ROOT
ATOM      1  N   UNL     1      -0.479   2.310  -1.836  0.00  0.00    +0.387 N 
ATOM      2  H   UNL     1      -1.403   1.888  -1.988  0.00  0.00    -0.081 HD
ENDROOT
BRANCH   1   3
ATOM      3  C   UNL     1       0.081   1.792  -0.570  0.00  0.00    -0.073 C 
BRANCH   3   4
ATOM      4  C   UNL     1      -1.064   1.586   0.423  0.00  0.00    +0.016 C 
BRANCH   4   8
ATOM      5  C   UNL     1       0.507   0.170   4.135  0.00  0.00    +0.000 A 
ATOM      6  C   UNL     1       0.377   1.528   3.912  0.00  0.00    +0.000 A 
ATOM      7  C   UNL     1      -0.131   1.986   2.711  0.00  0.00    +0.003 A 
ATOM      8  C   UNL     1      -0.510   1.087   1.733  0.00  0.00    -0.049 A 
ATOM      9  C   UNL     1      -0.385  -0.272   1.957  0.00  0.00    +0.003 A 
ATOM     10  C   UNL     1       0.127  -0.730   3.157  0.00  0.00    +0.000 A 
ENDBRANCH   4   8
ENDBRANCH   3   4
ENDBRANCH   1   3
BRANCH   1  11
ATOM     11  C   UNL     1       0.405   1.951  -2.964  0.00  0.00    -0.037 C 
BRANCH  11  12
ATOM     12  C   UNL     1       0.391   0.454  -3.136  0.00  0.00    +0.001 A 
ATOM     13  C   UNL     1      -0.496  -0.120  -3.988  0.00  0.00    +0.017 A 
ATOM     14  C   UNL     1      -0.484  -1.575  -4.134  0.00  0.00    +0.002 A 
ATOM     15  C   UNL     1      -1.376  -2.222  -4.999  0.00  0.00    +0.059 A 
ATOM     16  C   UNL     1      -1.341  -3.594  -5.116  0.00  0.00    +0.167 A 
ATOM     17  C   UNL     1      -0.418  -4.341  -4.373  0.00  0.00    +0.168 A 
ATOM     18  C   UNL     1       0.465  -3.711  -3.516  0.00  0.00    +0.075 A 
ATOM     19  C   UNL     1       0.443  -2.328  -3.388  0.00  0.00    +0.053 A 
ATOM     20  N   UNL     1       1.318  -1.683  -2.538  0.00  0.00    -0.322 N 
ATOM     21  H   UNL     1       1.957  -2.202  -2.025  0.00  0.00    +0.169 HD
ATOM     22  C   UNL     1       1.304  -0.344  -2.417  0.00  0.00    +0.251 A 
ATOM     23  O   UNL     1       2.095   0.193  -1.661  0.00  0.00    -0.268 OA
ATOM     24  O   UNL     1      -0.592  -5.662  -4.671  0.00  0.00    -0.453 OA
ATOM     25  C   UNL     1      -1.341  -5.684  -5.900  0.00  0.00    +0.466 C 
ATOM     26  O   UNL     1      -2.085  -4.452  -5.874  0.00  0.00    -0.453 OA
ENDBRANCH  11  12
ENDBRANCH   1  11
BRANCH   1  27
ATOM     27  C   UNL     1      -0.630   3.778  -1.758  0.00  0.00    +0.001 C 
BRANCH  27  28
ATOM     28  C   UNL     1      -1.702   4.105  -0.751  0.00  0.00    +0.135 A 
ATOM     29  N   UNL     1      -1.521   4.442   0.503  0.00  0.00    -0.115 NA
ATOM     30  N   UNL     1      -2.678   4.641   1.032  0.00  0.00    -0.023 NA
ATOM     31  N   UNL     1      -3.593   4.440   0.149  0.00  0.00    -0.044 NA
ATOM     32  N   UNL     1      -3.030   4.113  -0.965  0.00  0.00    -0.229 N 
BRANCH  32  33
ATOM     33  C   UNL     1      -3.711   3.805  -2.226  0.00  0.00    +0.178 C 
BRANCH  33  34
ATOM     34  C   UNL     1      -4.383   2.435  -2.120  0.00  0.00    +0.140 C 
ATOM     35  C   UNL     1      -5.135   2.102  -3.434  0.00  0.00    +0.035 C 
ATOM     36  C   UNL     1      -5.152   0.549  -3.377  0.00  0.00    +0.031 C 
ATOM     37  C   UNL     1      -3.806   0.230  -2.692  0.00  0.00    +0.160 C 
ATOM     38  O   UNL     1      -3.394   1.403  -1.980  0.00  0.00    -0.375 OA
ENDBRANCH  33  34
ENDBRANCH  32  33
ENDBRANCH  27  28
ENDBRANCH   1  27
TORSDOF 9
