REMARK  Name = ZINC37443112
REMARK  7 active torsions:
REMARK  status: ('A' for Active; 'I' for Inactive)
REMARK    1  A    between atoms: C_1  and  C_2
REMARK    2  A    between atoms: C_8  and  N_10
REMARK    3  A    between atoms: C_11  and  C_13
REMARK    4  A    between atoms: C_13  and  C_34
REMARK    5  A    between atoms: N_25  and  C_26
REMARK    6  A    between atoms: C_26  and  C_27
REMARK    7  A    between atoms: C_27  and  C_28
REMARK                            x       y       z     vdW  Elec       q    Type
REMARK                         _______ _______ _______ _____ _____    ______ ____
ROOT
ATOM      1  C   UNL     1       0.033   0.579   4.842  0.00  0.00    +0.128 C 
ATOM      2  C   UNL     1      -0.566  -0.623   5.573  0.00  0.00    +0.157 C 
ATOM      3  N   UNL     1      -1.747  -1.088   4.841  0.00  0.00    -0.333 N 
ATOM      4  C   UNL     1      -2.275  -2.364   4.768  0.00  0.00    +0.057 A 
ATOM      5  C   UNL     1      -2.001  -3.652   5.252  0.00  0.00    +0.034 A 
ATOM      6  C   UNL     1      -2.809  -4.684   4.932  0.00  0.00    +0.048 A 
ATOM      7  S   UNL     1      -4.044  -3.909   3.903  0.00  0.00    -0.095 S 
ATOM      8  C   UNL     1      -3.414  -2.252   3.955  0.00  0.00    +0.038 A 
ATOM      9  C   UNL     1      -3.563  -0.933   3.544  0.00  0.00    +0.048 A 
ATOM     10  C   UNL     1      -2.532  -0.224   4.086  0.00  0.00    +0.106 A 
ATOM     11  C   UNL     1      -2.183   1.197   3.967  0.00  0.00    +0.264 C 
ATOM     12  O   UNL     1      -2.938   2.003   3.456  0.00  0.00    -0.268 OA
ATOM     13  N   UNL     1      -0.974   1.561   4.457  0.00  0.00    -0.280 N 
ATOM     14  C   UNL     1       1.055   1.254   5.759  0.00  0.00    +0.043 C 
ENDROOT
BRANCH   1  16
ATOM     15  N   UNL     1       0.056  -0.038   2.447  0.00  0.00    -0.310 N 
ATOM     16  C   UNL     1       0.738   0.093   3.602  0.00  0.00    +0.238 C 
ATOM     17  O   UNL     1       1.919  -0.179   3.644  0.00  0.00    -0.273 OA
ATOM     18  H   UNL     1      -0.888   0.180   2.413  0.00  0.00    +0.149 HD
BRANCH  15  25
ATOM     19  C   UNL     1      -0.019   1.526   0.010  0.00  0.00    +0.009 C 
ATOM     20  C   UNL     1       0.002  -0.004   0.002  0.00  0.00    +0.006 C 
ATOM     21  C   UNL     1       0.718  -0.497  -1.257  0.00  0.00    +0.005 C 
ATOM     22  C   UNL     1       0.739  -2.027  -1.265  0.00  0.00    +0.000 C 
ATOM     23  C   UNL     1       1.479  -2.534  -0.026  0.00  0.00    +0.002 C 
ATOM     24  C   UNL     1       0.763  -2.041   1.233  0.00  0.00    +0.022 C 
ATOM     25  C   UNL     1       0.742  -0.511   1.242  0.00  0.00    +0.076 C 
ENDBRANCH  15  25
ENDBRANCH   1  16
BRANCH  13  26
ATOM     26  C   UNL     1      -0.668   2.986   4.604  0.00  0.00    +0.114 C 
BRANCH  26  27
ATOM     27  C   UNL     1      -0.026   3.506   3.317  0.00  0.00    +0.054 C 
BRANCH  27  28
ATOM     28  C   UNL     1       0.288   4.972   3.469  0.00  0.00    -0.046 A 
ATOM     29  C   UNL     1      -0.653   5.921   3.115  0.00  0.00    +0.004 A 
ATOM     30  C   UNL     1      -0.364   7.266   3.255  0.00  0.00    +0.000 A 
ATOM     31  C   UNL     1       0.865   7.662   3.748  0.00  0.00    +0.000 A 
ATOM     32  C   UNL     1       1.806   6.713   4.102  0.00  0.00    +0.000 A 
ATOM     33  C   UNL     1       1.515   5.368   3.967  0.00  0.00    +0.004 A 
ENDBRANCH  27  28
ENDBRANCH  26  27
ENDBRANCH  13  26
TORSDOF 5
