REMARK  Name = ZINC67186789
REMARK  6 active torsions:
REMARK  status: ('A' for Active; 'I' for Inactive)
REMARK    1  A    between atoms: C_8  and  C_10
REMARK    2  A    between atoms: C_11  and  C_16
REMARK    3  A    between atoms: C_16  and  N_17
REMARK    4  A    between atoms: N_17  and  C_18
REMARK    5  A    between atoms: C_18  and  C_19
REMARK    6  A    between atoms: C_19  and  C_20
REMARK                            x       y       z     vdW  Elec       q    Type
REMARK                         _______ _______ _______ _____ _____    ______ ____
ROOT
ATOM      1  C   UNL     1       3.796  -3.333  -0.053  0.00  0.00    +0.132 A 
ATOM      2  C   UNL     1       5.032  -3.488  -0.715  0.00  0.00    +0.014 A 
ATOM      3  C   UNL     1       5.470  -4.744  -0.485  0.00  0.00    +0.110 A 
ATOM      4  N   UNL     1       4.557  -5.370   0.291  0.00  0.00    -0.284 N 
ATOM      5  H   UNL     1       4.614  -6.283   0.612  0.00  0.00    +0.188 HD
ATOM      6  N   UNL     1       3.518  -4.469   0.556  0.00  0.00    -0.170 NA
ENDROOT
BRANCH   1  14
ATOM      7  C   UNL     1      -0.017   1.363   0.009  0.00  0.00    +0.001 A 
ATOM      8  C   UNL     1       1.170   2.082   0.002  0.00  0.00    +0.004 A 
ATOM      9  C   UNL     1       2.387   1.432  -0.013  0.00  0.00    +0.047 A 
ATOM     10  C   UNL     1       2.429   0.044  -0.021  0.00  0.00    +0.136 A 
ATOM     11  C   UNL     1       1.223  -0.679  -0.013  0.00  0.00    +0.021 A 
ATOM     12  C   UNL     1       0.002  -0.004   0.002  0.00  0.00    +0.011 A 
ATOM     13  C   UNL     1       1.610  -2.092  -0.025  0.00  0.00    +0.060 A 
ATOM     14  C   UNL     1       2.964  -2.111  -0.038  0.00  0.00    +0.156 A 
ATOM     15  O   UNL     1       3.439  -0.850  -0.036  0.00  0.00    -0.453 OA
ENDBRANCH   1  14
BRANCH   2  16
ATOM     16  C   UNL     1       5.737  -2.438  -1.534  0.00  0.00    +0.120 C 
BRANCH  16  17
ATOM     17  N   UNL     1       6.441  -1.510  -0.639  0.00  0.00    -0.312 NA
ATOM     18  H   UNL     1       5.806  -1.101   0.029  0.00  0.00    +0.122 HD
BRANCH  17  19
ATOM     19  C   UNL     1       7.142  -0.471  -1.404  0.00  0.00    +0.087 C 
BRANCH  19  20
ATOM     20  C   UNL     1       7.862   0.475  -0.440  0.00  0.00    +0.070 C 
BRANCH  20  21
ATOM     21  C   UNL     1       8.581   1.541  -1.225  0.00  0.00    +0.035 A 
ATOM     22  C   UNL     1       9.814   1.425  -1.766  0.00  0.00    +0.113 A 
ATOM     23  N   UNL     1      10.094   2.610  -2.391  0.00  0.00    -0.308 N 
ATOM     24  C   UNL     1      11.179   3.050  -3.092  0.00  0.00    +0.092 A 
ATOM     25  C   UNL     1      11.199   4.293  -3.618  0.00  0.00    +0.018 A 
ATOM     26  C   UNL     1      10.101   5.152  -3.449  0.00  0.00    +0.005 A 
ATOM     27  C   UNL     1       9.013   4.726  -2.752  0.00  0.00    +0.045 A 
ATOM     28  C   UNL     1       9.007   3.425  -2.210  0.00  0.00    +0.115 A 
ATOM     29  N   UNL     1       8.104   2.756  -1.507  0.00  0.00    -0.343 N 
ATOM     30  H   UNL     1       7.236   3.095  -1.238  0.00  0.00    +0.167 HD
ENDBRANCH  20  21
ENDBRANCH  19  20
ENDBRANCH  17  19
ENDBRANCH  16  17
ENDBRANCH   2  16
TORSDOF 6
