REMARK  Name = ZINC63671324
REMARK  9 active torsions:
REMARK  status: ('A' for Active; 'I' for Inactive)
REMARK    1  A    between atoms: C_1  and  N_2
REMARK    2  A    between atoms: C_4  and  C_11
REMARK    3  A    between atoms: N_21  and  C_22
REMARK    4  A    between atoms: C_22  and  C_23
REMARK    5  A    between atoms: N_25  and  C_26
REMARK    6  A    between atoms: C_26  and  C_27
REMARK    7  A    between atoms: C_27  and  C_28
REMARK    8  A    between atoms: C_31  and  O_37
REMARK    9  A    between atoms: O_37  and  C_38
REMARK                            x       y       z     vdW  Elec       q    Type
REMARK                         _______ _______ _______ _____ _____    ______ ____
ROOT
ATOM      1  C   UNL     1       0.040  -3.247  -1.694  0.00  0.00    +0.050 C 
ATOM      2  C   UNL     1       0.054  -4.539  -1.312  0.00  0.00    +0.037 C 
ATOM      3  C   UNL     1       0.039  -5.335  -2.589  0.00  0.00    +0.190 C 
ATOM      4  N   UNL     1      -0.476  -4.324  -3.561  0.00  0.00    -0.204 NA
ATOM      5  N   UNL     1       0.033  -3.162  -3.098  0.00  0.00    -0.275 N 
ATOM      6  C   UNL     1      -0.188  -4.765  -4.908  0.00  0.00    +0.117 C 
ATOM      7  C   UNL     1      -0.695  -6.196  -5.103  0.00  0.00    +0.113 C 
ATOM      8  C   UNL     1      -1.356  -6.760  -3.880  0.00  0.00    +0.219 C 
ATOM      9  O   UNL     1      -2.264  -7.553  -4.011  0.00  0.00    -0.275 OA
ATOM     10  N   UNL     1      -0.952  -6.415  -2.620  0.00  0.00    -0.272 N 
ATOM     11  H   UNL     1       0.337  -2.413  -3.633  0.00  0.00    +0.167 HD
ENDROOT
BRANCH   1  15
ATOM     12  C   UNL     1      -0.018   1.461   0.010  0.00  0.00    +0.149 C 
ATOM     13  N   UNL     1       0.002  -0.004   0.002  0.00  0.00    -0.349 N 
ATOM     14  C   UNL     1       0.008  -0.778  -1.121  0.00  0.00    +0.096 A 
ATOM     15  C   UNL     1       0.028  -2.090  -0.774  0.00  0.00    +0.022 A 
ATOM     16  C   UNL     1       0.035  -2.136   0.698  0.00  0.00    +0.009 A 
ATOM     17  C   UNL     1       0.024  -0.799   1.128  0.00  0.00    +0.049 A 
ATOM     18  C   UNL     1       0.032  -0.520   2.491  0.00  0.00    +0.026 A 
ATOM     19  C   UNL     1       0.055  -1.552   3.404  0.00  0.00    +0.002 A 
ATOM     20  C   UNL     1       0.070  -2.872   2.978  0.00  0.00    +0.001 A 
ATOM     21  C   UNL     1       0.053  -3.170   1.633  0.00  0.00    +0.010 A 
ENDBRANCH   1  15
BRANCH  10  22
ATOM     22  C   UNL     1      -1.469  -7.055  -1.408  0.00  0.00    +0.205 C 
BRANCH  22  23
ATOM     23  C   UNL     1      -2.693  -6.316  -0.933  0.00  0.00    +0.230 C 
ATOM     24  O   UNL     1      -3.094  -5.350  -1.546  0.00  0.00    -0.274 OA
ATOM     25  N   UNL     1      -3.342  -6.729   0.174  0.00  0.00    -0.314 N 
ATOM     26  H   UNL     1      -3.021  -7.502   0.664  0.00  0.00    +0.149 HD
BRANCH  25  27
ATOM     27  C   UNL     1      -4.532  -6.011   0.637  0.00  0.00    +0.108 C 
BRANCH  27  28
ATOM     28  C   UNL     1      -5.072  -6.680   1.902  0.00  0.00    +0.052 C 
BRANCH  28  29
ATOM     29  C   UNL     1      -6.296  -5.941   2.378  0.00  0.00    -0.040 C 
ATOM     30  C   UNL     1      -7.585  -6.246   2.108  0.00  0.00    +0.002 A 
ATOM     31  C   UNL     1      -8.212  -7.314   1.322  0.00  0.00    +0.055 A 
ATOM     32  C   UNL     1      -9.562  -7.368   1.227  0.00  0.00    +0.121 A 
ATOM     33  C   UNL     1     -10.397  -6.430   1.860  0.00  0.00    +0.047 A 
ATOM     34  C   UNL     1      -9.914  -5.413   2.604  0.00  0.00    +0.029 A 
ATOM     35  C   UNL     1      -8.466  -5.259   2.775  0.00  0.00    +0.043 A 
ATOM     36  N   UNL     1      -7.750  -4.380   3.430  0.00  0.00    -0.380 N 
ATOM     37  C   UNL     1      -6.331  -4.712   3.259  0.00  0.00    +0.144 C 
ATOM     38  H   UNL     1      -8.099  -3.635   3.945  0.00  0.00    +0.160 HD
BRANCH  32  39
ATOM     39  O   UNL     1     -10.129  -8.362   0.495  0.00  0.00    -0.495 OA
ATOM     40  C   UNL     1     -11.556  -8.382   0.422  0.00  0.00    +0.277 C 
ENDBRANCH  32  39
ENDBRANCH  28  29
ENDBRANCH  27  28
ENDBRANCH  25  27
ENDBRANCH  22  23
ENDBRANCH  10  22
TORSDOF 7
