REMARK  Name = ZINC06058172
REMARK  13 active torsions:
REMARK  status: ('A' for Active; 'I' for Inactive)
REMARK    1  A    between atoms: C_1  and  C_2
REMARK    2  A    between atoms: C_5  and  C_8
REMARK    3  A    between atoms: C_11  and  S_14
REMARK    4  A    between atoms: N_12  and  N_13
REMARK    5  A    between atoms: S_14  and  C_15
REMARK    6  A    between atoms: C_15  and  C_16
REMARK    7  A    between atoms: N_18  and  C_19
REMARK    8  A    between atoms: C_19  and  C_21
REMARK    9  A    between atoms: C_19  and  C_22
REMARK   10  A    between atoms: C_25  and  C_28
REMARK   11  A    between atoms: C_28  and  C_29
REMARK   12  A    between atoms: C_29  and  C_30
REMARK   13  A    between atoms: C_29  and  C_31
REMARK                            x       y       z     vdW  Elec       q    Type
REMARK                         _______ _______ _______ _____ _____    ______ ____
ROOT
ATOM      1  C   UNL     1      -0.046   0.330   0.036  0.00  0.00    +0.173 C 
ENDROOT
BRANCH   1   2
ATOM      2  C   UNL     1      -0.770   0.535   1.342  0.00  0.00    +0.224 C 
ATOM      3  O   UNL     1      -1.783   1.201   1.375  0.00  0.00    -0.275 OA
ATOM      4  N   UNL     1      -0.292  -0.023   2.472  0.00  0.00    -0.308 N 
ATOM      5  H   UNL     1       0.518  -0.556   2.446  0.00  0.00    +0.149 HD
BRANCH   4   6
ATOM      6  C   UNL     1      -0.997   0.177   3.741  0.00  0.00    +0.100 C 
ATOM      7  C   UNL     1      -2.112  -0.862   3.875  0.00  0.00    +0.033 C 
BRANCH   6   8
ATOM      8  C   UNL     1      -0.026   0.021   4.884  0.00  0.00    -0.027 A 
ATOM      9  C   UNL     1       0.935  -0.972   4.845  0.00  0.00    +0.006 A 
ATOM     10  C   UNL     1       1.828  -1.111   5.891  0.00  0.00    +0.004 A 
ATOM     11  C   UNL     1       1.754  -0.264   6.980  0.00  0.00    -0.047 A 
ATOM     12  C   UNL     1       0.789   0.726   7.022  0.00  0.00    +0.004 A 
ATOM     13  C   UNL     1      -0.100   0.869   5.974  0.00  0.00    +0.006 A 
BRANCH  11  14
ATOM     14  C   UNL     1       2.723  -0.419   8.123  0.00  0.00    +0.038 C 
BRANCH  14  15
ATOM     15  C   UNL     1       2.142  -1.385   9.158  0.00  0.00    -0.013 C 
ATOM     16  C   UNL     1       3.176  -1.641  10.255  0.00  0.00    +0.007 C 
ATOM     17  C   UNL     1       0.883  -0.774   9.775  0.00  0.00    +0.007 C 
ENDBRANCH  14  15
ENDBRANCH  11  14
ENDBRANCH   6   8
ENDBRANCH   4   6
ENDBRANCH   1   2
BRANCH   1  18
ATOM     18  S   UNL     1      -0.928   1.196  -1.285  0.00  0.00    -0.075 S 
BRANCH  18  22
ATOM     19  C   UNL     1       0.971   0.648  -4.656  0.00  0.00    +0.182 A 
ATOM     20  N   UNL     1       1.706  -0.022  -3.799  0.00  0.00    -0.127 NA
ATOM     21  N   UNL     1       1.200   0.071  -2.621  0.00  0.00    -0.121 NA
ATOM     22  C   UNL     1       0.106   0.799  -2.655  0.00  0.00    +0.209 A 
ATOM     23  N   UNL     1      -0.076   1.194  -3.950  0.00  0.00    -0.224 N 
BRANCH  19  28
ATOM     24  C   UNL     1       1.946   1.199 -10.300  0.00  0.00    +0.044 C 
ATOM     25  C   UNL     1       1.691   1.054  -8.822  0.00  0.00    -0.050 A 
ATOM     26  C   UNL     1       0.825   1.925  -8.185  0.00  0.00    +0.004 A 
ATOM     27  C   UNL     1       0.587   1.798  -6.832  0.00  0.00    +0.012 A 
ATOM     28  C   UNL     1       1.222   0.789  -6.106  0.00  0.00    +0.021 A 
ATOM     29  C   UNL     1       2.099  -0.082  -6.754  0.00  0.00    +0.012 A 
ATOM     30  C   UNL     1       2.324   0.053  -8.108  0.00  0.00    +0.004 A 
ENDBRANCH  19  28
BRANCH  23  31
ATOM     31  N   UNL     1      -1.087   1.970  -4.441  0.00  0.00    -0.295 N 
ATOM     32  H   UNL     1      -0.807   2.938  -4.493  0.00  0.00    +0.163 HD
ATOM     33  H   UNL     1      -1.396   1.634  -5.341  0.00  0.00    +0.163 HD
ENDBRANCH  23  31
ENDBRANCH  18  22
ENDBRANCH   1  18
TORSDOF 9
