REMARK  Name = ZINC32795409
REMARK  4 active torsions:
REMARK  status: ('A' for Active; 'I' for Inactive)
REMARK    1  A    between atoms: C_1  and  C_2
REMARK    2  A    between atoms: C_5  and  C_7
REMARK    3  A    between atoms: C_9  and  C_13
REMARK    4  A    between atoms: N_15  and  C_16
REMARK                            x       y       z     vdW  Elec       q    Type
REMARK                         _______ _______ _______ _____ _____    ______ ____
ROOT
ATOM      1  C   UNL     1       2.546   1.299  -0.016  0.00  0.00    +0.073 A 
ATOM      2  C   UNL     1       3.684   2.062  -0.028  0.00  0.00    +0.063 A 
ATOM      3  C   UNL     1       4.753   1.141  -0.038  0.00  0.00    +0.147 A 
ATOM      4  N   UNL     1       4.231  -0.069  -0.041  0.00  0.00    -0.169 NA
ATOM      5  N   UNL     1       2.948  -0.006  -0.028  0.00  0.00    -0.276 N 
ATOM      6  H   UNL     1       2.200  -0.812  -0.026  0.00  0.00    +0.189 HD
ENDROOT
BRANCH   1  11
ATOM      7  C   UNL     1      -2.351   4.081   0.046  0.00  0.00    +0.051 C 
ATOM      8  C   UNL     1      -1.190   3.120   0.030  0.00  0.00    -0.013 A 
ATOM      9  C   UNL     1      -1.207   1.762   0.017  0.00  0.00    +0.011 A 
ATOM     10  C   UNL     1      -0.013   1.076   0.008  0.00  0.00    +0.018 A 
ATOM     11  C   UNL     1       1.157   1.791   0.001  0.00  0.00    +0.037 A 
ATOM     12  S   UNL     1       0.560   3.473   0.015  0.00  0.00    -0.092 S 
ENDBRANCH   1  11
BRANCH   3  13
ATOM     13  C   UNL     1       6.193   1.473  -0.051  0.00  0.00    +0.264 C 
ATOM     14  O   UNL     1       6.549   2.636  -0.047  0.00  0.00    -0.268 OA
ATOM     15  N   UNL     1       7.112   0.487  -0.066  0.00  0.00    -0.313 N 
ATOM     16  C   UNL     1       8.539   0.816  -0.078  0.00  0.00    +0.128 C 
ATOM     17  H   UNL     1       6.790  -0.565  -0.069  0.00  0.00    +0.149 HD
ENDBRANCH   3  13
TORSDOF 2
