REMARK  Name = ZINC63899343
REMARK  9 active torsions:
REMARK  status: ('A' for Active; 'I' for Inactive)
REMARK    1  A    between atoms: C_1  and  C_2
REMARK    2  A    between atoms: C_7  and  N_8
REMARK    3  A    between atoms: C_9  and  C_11
REMARK    4  A    between atoms: C_11  and  S_12
REMARK    5  A    between atoms: S_12  and  C_13
REMARK    6  A    between atoms: C_13  and  C_14
REMARK    7  A    between atoms: C_18  and  O_20
REMARK    8  A    between atoms: O_20  and  C_21
REMARK    9  A    between atoms: C_21  and  C_22
REMARK                            x       y       z     vdW  Elec       q    Type
REMARK                         _______ _______ _______ _____ _____    ______ ____
ROOT
ATOM      1  C   UNL     1       6.531   1.350   3.891  0.00  0.00    +0.104 C 
ENDROOT
BRANCH   1   2
ATOM      2  C   UNL     1       7.181   1.451   5.246  0.00  0.00    -0.034 A 
ATOM      3  C   UNL     1       7.063   2.614   5.984  0.00  0.00    +0.004 A 
ATOM      4  C   UNL     1       7.658   2.710   7.229  0.00  0.00    +0.004 A 
ATOM      5  C   UNL     1       8.374   1.643   7.737  0.00  0.00    +0.045 A 
ATOM      6  C   UNL     1       8.495   0.475   6.998  0.00  0.00    +0.121 A 
ATOM      7  C   UNL     1       7.891   0.379   5.753  0.00  0.00    +0.050 A 
BRANCH   6   8
ATOM      8  O   UNL     1       9.198  -0.576   7.496  0.00  0.00    -0.483 OA
BRANCH   8   9
ATOM      9  C   UNL     1       9.787  -0.408   8.787  0.00  0.00    +0.324 C 
BRANCH   9  10
ATOM     10  C   UNL     1      10.521  -1.667   9.171  0.00  0.00    +0.248 C 
ATOM     11  O   UNL     1      10.538  -2.615   8.414  0.00  0.00    -0.272 OA
ATOM     12  N   UNL     1      11.159  -1.740  10.357  0.00  0.00    -0.327 N 
ATOM     13  H   UNL     1      11.146  -0.983  10.962  0.00  0.00    +0.145 HD
ATOM     14  H   UNL     1      11.632  -2.551  10.604  0.00  0.00    +0.145 HD
ENDBRANCH   9  10
ENDBRANCH   8   9
ENDBRANCH   6   8
ENDBRANCH   1   2
BRANCH   1  15
ATOM     15  S   UNL     1       4.844   0.710   4.076  0.00  0.00    -0.147 S 
BRANCH  15  16
ATOM     16  C   UNL     1       4.209   0.649   2.377  0.00  0.00    +0.165 C 
BRANCH  16  18
ATOM     17  N   UNL     1       2.116  -0.004   1.231  0.00  0.00    -0.312 N 
ATOM     18  C   UNL     1       2.795   0.128   2.388  0.00  0.00    +0.223 C 
ATOM     19  O   UNL     1       2.268  -0.174   3.438  0.00  0.00    -0.275 OA
ATOM     20  H   UNL     1       2.538   0.237   0.392  0.00  0.00    +0.149 HD
BRANCH  17  27
ATOM     21  C   UNL     1      -0.019   1.526   0.010  0.00  0.00    +0.009 C 
ATOM     22  C   UNL     1       0.002  -0.004   0.002  0.00  0.00    +0.006 C 
ATOM     23  C   UNL     1      -1.433  -0.534   0.013  0.00  0.00    +0.005 C 
ATOM     24  C   UNL     1      -1.413  -2.063   0.004  0.00  0.00    +0.000 C 
ATOM     25  C   UNL     1      -0.673  -2.570   1.244  0.00  0.00    +0.002 C 
ATOM     26  C   UNL     1       0.763  -2.041   1.233  0.00  0.00    +0.022 C 
ATOM     27  C   UNL     1       0.742  -0.511   1.242  0.00  0.00    +0.076 C 
ENDBRANCH  17  27
ENDBRANCH  16  18
ENDBRANCH  15  16
ENDBRANCH   1  15
TORSDOF 8
