REMARK  Name = ZINC32860152
REMARK  7 active torsions:
REMARK  status: ('A' for Active; 'I' for Inactive)
REMARK    1  A    between atoms: C_1  and  C_2
REMARK    2  A    between atoms: C_15  and  C_17
REMARK    3  A    between atoms: C_17  and  N_18
REMARK    4  A    between atoms: N_18  and  C_19
REMARK    5  A    between atoms: N_18  and  C_20
REMARK    6  A    between atoms: C_20  and  C_21
REMARK    7  A    between atoms: N_26  and  C_27
REMARK                            x       y       z     vdW  Elec       q    Type
REMARK                         _______ _______ _______ _____ _____    ______ ____
ROOT
ATOM      1  N   UNL     1       5.721   7.694  -0.531  0.00  0.00    +0.389 N 
ATOM      2  C   UNL     1       5.007   8.014  -1.775  0.00  0.00    -0.095 C 
ATOM      3  H   UNL     1       5.067   7.960   0.312  0.00  0.00    -0.081 HD
ENDROOT
BRANCH   1   4
ATOM      4  C   UNL     1       6.954   8.484  -0.414  0.00  0.00    +0.019 C 
BRANCH   4  18
ATOM      5  C   UNL     1       7.413  12.685   1.481  0.00  0.00    +0.029 C 
ATOM      6  C   UNL     1       7.259  12.280   0.014  0.00  0.00    +0.087 C 
ATOM      7  C   UNL     1       8.204  13.120  -0.846  0.00  0.00    +0.118 C 
ATOM      8  C   UNL     1       8.367  12.491  -2.204  0.00  0.00    +0.219 C 
ATOM      9  O   UNL     1       7.804  12.975  -3.164  0.00  0.00    -0.275 OA
ATOM     10  N   UNL     1       9.136  11.389  -2.363  0.00  0.00    -0.284 N 
ATOM     11  C   UNL     1       9.721  10.765  -1.255  0.00  0.00    +0.055 A 
ATOM     12  C   UNL     1      11.064  10.429  -1.254  0.00  0.00    +0.025 A 
ATOM     13  C   UNL     1      11.610   9.784  -0.159  0.00  0.00    +0.002 A 
ATOM     14  C   UNL     1      10.819   9.473   0.932  0.00  0.00    +0.002 A 
ATOM     15  C   UNL     1       9.480   9.817   0.943  0.00  0.00    +0.025 A 
ATOM     16  C   UNL     1       8.929  10.475  -0.139  0.00  0.00    +0.058 A 
ATOM     17  N   UNL     1       7.582  10.860  -0.135  0.00  0.00    -0.268 N 
ATOM     18  C   UNL     1       6.604   9.942  -0.261  0.00  0.00    +0.204 C 
ATOM     19  O   UNL     1       5.441  10.289  -0.251  0.00  0.00    -0.277 OA
ATOM     20  H   UNL     1       9.305  10.977  -3.368  0.00  0.00    +0.155 HD
ENDBRANCH   4  18
ENDBRANCH   1   4
BRANCH   1  21
ATOM     21  C   UNL     1       6.007   6.256  -0.444  0.00  0.00    +0.019 C 
BRANCH  21  22
ATOM     22  C   UNL     1       4.713   5.493  -0.322  0.00  0.00    +0.204 C 
ATOM     23  O   UNL     1       3.657   6.088  -0.308  0.00  0.00    -0.277 OA
ATOM     24  N   UNL     1       4.729   4.149  -0.227  0.00  0.00    -0.241 N 
ATOM     25  C   UNL     1       3.572   3.466  -0.117  0.00  0.00    +0.310 C 
ATOM     26  O   UNL     1       2.514   4.064  -0.104  0.00  0.00    -0.252 OA
ATOM     27  N   UNL     1       3.589   2.122  -0.022  0.00  0.00    -0.269 N 
ATOM     28  H   UNL     1       5.687   3.608  -0.238  0.00  0.00    +0.159 HD
ATOM     29  H   UNL     1       4.547   1.588   0.054  0.00  0.00    +0.156 HD
BRANCH  27  30
ATOM     30  C   UNL     1       2.385   1.405  -0.020  0.00  0.00    +0.038 A 
ATOM     31  C   UNL     1       2.276   0.235   0.719  0.00  0.00    +0.027 A 
ATOM     32  C   UNL     1       1.089  -0.476   0.724  0.00  0.00    +0.051 A 
ATOM     33  C   UNL     1       0.010  -0.017  -0.012  0.00  0.00    +0.162 A 
ATOM     34  C   UNL     1       0.116   1.152  -0.752  0.00  0.00    +0.164 A 
ATOM     35  C   UNL     1       1.302   1.865  -0.759  0.00  0.00    +0.072 A 
ATOM     36  O   UNL     1      -0.956   1.593  -1.473  0.00  0.00    -0.488 OA
ATOM     37  C   UNL     1      -1.327   0.791  -2.596  0.00  0.00    +0.232 C 
ATOM     38  C   UNL     1      -2.231  -0.354  -2.165  0.00  0.00    +0.082 C 
ATOM     39  C   UNL     1      -1.522  -1.337  -1.247  0.00  0.00    +0.232 C 
ATOM     40  O   UNL     1      -1.167  -0.711  -0.012  0.00  0.00    -0.488 OA
ENDBRANCH  27  30
ENDBRANCH  21  22
ENDBRANCH   1  21
TORSDOF 5
