REMARK  Name = ZINC00104509
REMARK  4 active torsions:
REMARK  status: ('A' for Active; 'I' for Inactive)
REMARK    1  A    between atoms: C_1  and  C_2
REMARK    2  A    between atoms: C_5  and  N_8
REMARK    3  A    between atoms: C_9  and  C_20
REMARK    4  A    between atoms: C_25  and  O_26
REMARK                            x       y       z     vdW  Elec       q    Type
REMARK                         _______ _______ _______ _____ _____    ______ ____
ROOT
ATOM      1  N   UNL     1       0.059  -4.169  -0.021  0.00  0.00    -0.244 N 
ATOM      2  C   UNL     1       0.180  -4.893   1.245  0.00  0.00    +0.201 C 
ATOM      3  N   UNL     1      -0.555  -6.161   1.178  0.00  0.00    -0.321 N 
ATOM      4  C   UNL     1      -0.448  -6.938   0.030  0.00  0.00    +0.041 A 
ATOM      5  C   UNL     1      -0.580  -8.316   0.068  0.00  0.00    +0.024 A 
ATOM      6  C   UNL     1      -0.476  -9.045  -1.101  0.00  0.00    +0.002 A 
ATOM      7  C   UNL     1      -0.242  -8.409  -2.310  0.00  0.00    +0.001 A 
ATOM      8  C   UNL     1      -0.103  -7.037  -2.364  0.00  0.00    +0.015 A 
ATOM      9  C   UNL     1      -0.201  -6.290  -1.192  0.00  0.00    +0.058 A 
ATOM     10  C   UNL     1      -0.041  -4.826  -1.194  0.00  0.00    +0.254 C 
ATOM     11  O   UNL     1       0.004  -4.216  -2.245  0.00  0.00    -0.270 OA
ATOM     12  H   UNL     1      -1.106  -6.452   1.922  0.00  0.00    +0.148 HD
ENDROOT
BRANCH   1  17
ATOM     13  C   UNL     1      -0.015   1.503   0.012  0.00  0.00    +0.044 C 
ATOM     14  C   UNL     1       0.004  -0.004   0.003  0.00  0.00    -0.050 A 
ATOM     15  C   UNL     1      -0.939  -0.711   0.726  0.00  0.00    +0.005 A 
ATOM     16  C   UNL     1      -0.924  -2.091   0.721  0.00  0.00    +0.024 A 
ATOM     17  C   UNL     1       0.040  -2.771  -0.013  0.00  0.00    +0.039 A 
ATOM     18  C   UNL     1       0.986  -2.058  -0.739  0.00  0.00    +0.024 A 
ATOM     19  C   UNL     1       0.962  -0.677  -0.733  0.00  0.00    +0.005 A 
ENDBRANCH   1  17
BRANCH   2  20
ATOM     20  C   UNL     1       1.634  -5.177   1.519  0.00  0.00    +0.032 A 
ATOM     21  C   UNL     1       2.612  -4.368   0.973  0.00  0.00    +0.011 A 
ATOM     22  C   UNL     1       3.946  -4.629   1.224  0.00  0.00    +0.001 A 
ATOM     23  C   UNL     1       4.306  -5.699   2.023  0.00  0.00    +0.004 A 
ATOM     24  C   UNL     1       3.332  -6.510   2.572  0.00  0.00    +0.046 A 
ATOM     25  C   UNL     1       1.992  -6.248   2.326  0.00  0.00    +0.123 A 
BRANCH  25  26
ATOM     26  O   UNL     1       1.032  -7.041   2.869  0.00  0.00    -0.506 OA
ATOM     27  H   UNL     1       0.785  -7.795   2.316  0.00  0.00    +0.292 HD
ENDBRANCH  25  26
ENDBRANCH   2  20
TORSDOF 3
