REMARK  Name = ZINC37360150
REMARK  5 active torsions:
REMARK  status: ('A' for Active; 'I' for Inactive)
REMARK    1  A    between atoms: C_5  and  C_7
REMARK    2  A    between atoms: C_9  and  N_31
REMARK    3  A    between atoms: N_10  and  C_24
REMARK    4  A    between atoms: N_16  and  C_17
REMARK    5  A    between atoms: C_17  and  C_18
REMARK                            x       y       z     vdW  Elec       q    Type
REMARK                         _______ _______ _______ _____ _____    ______ ____
ROOT
ATOM      1  C   UNL     1       1.216  -2.166  -0.257  0.00  0.00    +0.091 A 
ATOM      2  C   UNL     1       0.040  -2.911  -0.019  0.00  0.00    +0.086 A 
ATOM      3  C   UNL     1      -1.298  -2.613   0.213  0.00  0.00    +0.131 A 
ATOM      4  N   UNL     1      -1.951  -3.781   0.371  0.00  0.00    -0.216 N 
ATOM      5  N   UNL     1      -1.056  -4.849   0.246  0.00  0.00    -0.144 NA
ATOM      6  C   UNL     1       0.151  -4.381   0.012  0.00  0.00    +0.189 A 
ATOM      7  N   UNL     1       1.367  -4.925  -0.189  0.00  0.00    -0.193 NA
ATOM      8  C   UNL     1       2.413  -4.154  -0.403  0.00  0.00    +0.218 A 
ATOM      9  N   UNL     1       2.352  -2.826  -0.444  0.00  0.00    -0.214 NA
ATOM     10  N   UNL     1       3.641  -4.758  -0.604  0.00  0.00    -0.311 N 
ATOM     11  H   UNL     1       4.428  -4.215  -0.764  0.00  0.00    +0.149 HD
ENDROOT
BRANCH   1  16
ATOM     12  C   UNL     1       0.678   1.415   0.745  0.00  0.00    +0.001 A 
ATOM     13  C   UNL     1       1.116   2.082  -0.385  0.00  0.00    +0.003 A 
ATOM     14  C   UNL     1       1.587   1.373  -1.475  0.00  0.00    +0.039 A 
ATOM     15  C   UNL     1       1.623  -0.009  -1.441  0.00  0.00    +0.133 A 
ATOM     16  C   UNL     1       1.182  -0.687  -0.301  0.00  0.00    +0.036 A 
ATOM     17  C   UNL     1       0.708   0.037   0.793  0.00  0.00    +0.013 A 
ATOM     18  F   UNL     1       2.083  -0.701  -2.506  0.00  0.00    -0.205 F 
ENDBRANCH   1  16
BRANCH   4  19
ATOM     19  C   UNL     1      -3.323  -3.907   0.624  0.00  0.00    +0.068 A 
ATOM     20  C   UNL     1      -3.976  -2.963   1.406  0.00  0.00    +0.029 A 
ATOM     21  C   UNL     1      -5.328  -3.090   1.653  0.00  0.00    +0.022 A 
ATOM     22  C   UNL     1      -6.034  -4.155   1.122  0.00  0.00    +0.041 A 
ATOM     23  C   UNL     1      -5.386  -5.097   0.343  0.00  0.00    +0.022 A 
ATOM     24  C   UNL     1      -4.034  -4.973   0.087  0.00  0.00    +0.029 A 
ATOM     25 CL   UNL     1      -7.734  -4.311   1.435  0.00  0.00    -0.084 Cl
ENDBRANCH   4  19
BRANCH   3  26
ATOM     26  N   UNL     1      -1.855  -1.350   0.271  0.00  0.00    -0.342 N 
ATOM     27  H   UNL     1      -1.296  -0.567   0.149  0.00  0.00    +0.144 HD
ATOM     28  H   UNL     1      -2.806  -1.247   0.433  0.00  0.00    +0.144 HD
ENDBRANCH   3  26
BRANCH  10  29
ATOM     29  C   UNL     1       3.752  -6.219  -0.574  0.00  0.00    +0.136 C 
BRANCH  29  30
ATOM     30  C   UNL     1       5.206  -6.625  -0.822  0.00  0.00    +0.135 C 
ATOM     31  C   UNL     1       5.312  -8.163  -0.912  0.00  0.00    +0.035 C 
ATOM     32  C   UNL     1       6.643  -8.446  -0.164  0.00  0.00    +0.031 C 
ATOM     33  C   UNL     1       6.613  -7.339   0.919  0.00  0.00    +0.160 C 
ATOM     34  O   UNL     1       6.024  -6.197   0.274  0.00  0.00    -0.375 OA
ENDBRANCH  29  30
ENDBRANCH  10  29
TORSDOF 5
