REMARK  Name = ZINC59183894
REMARK  9 active torsions:
REMARK  status: ('A' for Active; 'I' for Inactive)
REMARK    1  A    between atoms: C_1  and  C_2
REMARK    2  A    between atoms: C_2  and  O_3
REMARK    3  A    between atoms: O_3  and  C_4
REMARK    4  A    between atoms: C_4  and  C_6
REMARK    5  A    between atoms: C_9  and  C_12
REMARK    6  A    between atoms: C_15  and  C_17
REMARK    7  A    between atoms: C_19  and  C_34
REMARK    8  A    between atoms: N_21  and  C_24
REMARK    9  A    between atoms: C_29  and  N_30
REMARK                            x       y       z     vdW  Elec       q    Type
REMARK                         _______ _______ _______ _____ _____    ______ ____
ROOT
ATOM      1  C   UNL     1       5.447  -3.379  -8.830  0.00  0.00    +0.061 C 
ATOM      2  C   UNL     1       4.888  -2.381  -9.624  0.00  0.00    +0.065 C 
ATOM      3  C   UNL     1       3.728  -1.536  -9.314  0.00  0.00    +0.069 C 
ATOM      4  N   UNL     1       3.543  -0.738 -10.322  0.00  0.00    -0.176 NA
ATOM      5  N   UNL     1       4.489  -0.958 -11.323  0.00  0.00    -0.154 N 
ATOM      6  C   UNL     1       5.335  -1.940 -10.953  0.00  0.00    +0.272 C 
ATOM      7  O   UNL     1       6.277  -2.376 -11.592  0.00  0.00    -0.268 OA
ATOM      8  C   UNL     1       2.903  -1.585  -8.054  0.00  0.00    +0.068 C 
ENDROOT
BRANCH   5   9
ATOM      9  C   UNL     1       4.554  -0.256 -12.534  0.00  0.00    +0.092 A 
ATOM     10  C   UNL     1       5.731   0.377 -12.909  0.00  0.00    +0.047 A 
ATOM     11  C   UNL     1       5.792   1.068 -14.104  0.00  0.00    +0.043 A 
ATOM     12  C   UNL     1       4.680   1.129 -14.927  0.00  0.00    +0.022 A 
ATOM     13  C   UNL     1       3.507   0.500 -14.555  0.00  0.00    +0.036 A 
ATOM     14  C   UNL     1       3.442  -0.198 -13.364  0.00  0.00    +0.149 A 
ATOM     15 CL   UNL     1       7.263   1.860 -14.574  0.00  0.00    -0.083 Cl
BRANCH  14  16
ATOM     16  N   UNL     1       2.187  -0.877 -12.971  0.00  0.00    +0.058 N 
ATOM     17  O   UNL     1       1.220  -0.825 -13.694  0.00  0.00    -0.126 OA
ATOM     18  O   UNL     1       2.129  -1.482 -11.926  0.00  0.00    -0.126 OA
ENDBRANCH  14  16
ENDBRANCH   5   9
BRANCH   1  22
ATOM     19  C   UNL     1       4.290  -3.108  -5.479  0.00  0.00    +0.136 A 
ATOM     20  C   UNL     1       4.396  -4.481  -5.571  0.00  0.00    +0.050 A 
ATOM     21  C   UNL     1       4.849  -4.770  -6.857  0.00  0.00    +0.050 A 
ATOM     22  C   UNL     1       5.006  -3.554  -7.510  0.00  0.00    +0.129 A 
ATOM     23  O   UNL     1       4.656  -2.569  -6.655  0.00  0.00    -0.455 OA
BRANCH  19  27
ATOM     24  C   UNL     1       3.007  -0.948  -2.058  0.00  0.00    +0.059 A 
ATOM     25  C   UNL     1       3.362  -0.264  -3.224  0.00  0.00    +0.015 A 
ATOM     26  C   UNL     1       3.777  -0.961  -4.330  0.00  0.00    +0.012 A 
ATOM     27  C   UNL     1       3.845  -2.358  -4.290  0.00  0.00    +0.017 A 
ATOM     28  C   UNL     1       3.490  -3.042  -3.123  0.00  0.00    +0.012 A 
ATOM     29  C   UNL     1       3.081  -2.344  -2.017  0.00  0.00    +0.015 A 
BRANCH  24  30
ATOM     30  C   UNL     1       2.561  -0.197  -0.868  0.00  0.00    +0.339 C 
ATOM     31  O   UNL     1       2.257  -0.791   0.147  0.00  0.00    -0.245 OA
BRANCH  30  32
ATOM     32  O   UNL     1       2.490   1.148  -0.908  0.00  0.00    -0.461 OA
BRANCH  32  34
ATOM     33  C   UNL     1       2.033   3.322   0.044  0.00  0.00    +0.048 C 
ATOM     34  C   UNL     1       2.049   1.810   0.279  0.00  0.00    +0.229 C 
ENDBRANCH  32  34
ENDBRANCH  30  32
ENDBRANCH  24  30
ENDBRANCH  19  27
ENDBRANCH   1  22
TORSDOF 7
