REMARK  Name = ZINC20284357
REMARK  13 active torsions:
REMARK  status: ('A' for Active; 'I' for Inactive)
REMARK    1  A    between atoms: C_1  and  C_2
REMARK    2  A    between atoms: C_2  and  O_3
REMARK    3  A    between atoms: O_3  and  C_4
REMARK    4  A    between atoms: C_7  and  N_10
REMARK    5  A    between atoms: C_11  and  C_13
REMARK    6  A    between atoms: C_13  and  C_15
REMARK    7  A    between atoms: C_13  and  N_19
REMARK    8  A    between atoms: C_15  and  C_16
REMARK    9  A    between atoms: C_16  and  C_17
REMARK   10  A    between atoms: C_16  and  C_18
REMARK   11  A    between atoms: N_19  and  S_20
REMARK   12  A    between atoms: S_20  and  C_23
REMARK   13  A    between atoms: N_32  and  C_33
REMARK                            x       y       z     vdW  Elec       q    Type
REMARK                         _______ _______ _______ _____ _____    ______ ____
ROOT
ATOM      1  C   UNL     1      -2.386   4.245   0.239  0.00  0.00    +0.163 C 
ENDROOT
BRANCH   1   3
ATOM      2  N   UNL     1      -1.305   2.236   1.195  0.00  0.00    -0.284 N 
ATOM      3  C   UNL     1      -1.237   3.555   0.928  0.00  0.00    +0.236 C 
ATOM      4  O   UNL     1      -0.251   4.187   1.242  0.00  0.00    -0.274 OA
ATOM      5  H   UNL     1      -2.162   1.646   0.839  0.00  0.00    +0.155 HD
BRANCH   2   9
ATOM      6  C   UNL     1       1.728   0.386   3.378  0.00  0.00    +0.121 A 
ATOM      7  C   UNL     1       1.391   1.705   3.641  0.00  0.00    +0.047 A 
ATOM      8  C   UNL     1       0.387   2.319   2.917  0.00  0.00    +0.027 A 
ATOM      9  C   UNL     1      -0.283   1.615   1.926  0.00  0.00    +0.034 A 
ATOM     10  C   UNL     1       0.056   0.295   1.662  0.00  0.00    +0.027 A 
ATOM     11  C   UNL     1       1.059  -0.318   2.387  0.00  0.00    +0.047 A 
BRANCH   6  12
ATOM     12  O   UNL     1       2.716  -0.218   4.091  0.00  0.00    -0.492 OA
BRANCH  12  14
ATOM     13  C   UNL     1       4.141  -2.083   4.667  0.00  0.00    +0.048 C 
ATOM     14  C   UNL     1       3.012  -1.578   3.767  0.00  0.00    +0.225 C 
ENDBRANCH  12  14
ENDBRANCH   6  12
ENDBRANCH   2   9
ENDBRANCH   1   3
BRANCH   1  15
ATOM     15  N   UNL     1      -2.070   5.664   0.064  0.00  0.00    -0.178 NA
ATOM     16  H   UNL     1      -1.075   5.966  -0.294  0.00  0.00    +0.149 HD
BRANCH  15  17
ATOM     17  S   UNL     1      -3.109   6.820   0.635  0.00  0.00    +0.059 S 
ATOM     18  O   UNL     1      -2.513   8.079   0.350  0.00  0.00    -0.153 OA
ATOM     19  O   UNL     1      -4.404   6.468   0.168  0.00  0.00    -0.153 OA
BRANCH  17  20
ATOM     20  C   UNL     1      -3.147   6.667   2.390  0.00  0.00    +0.109 A 
ATOM     21  C   UNL     1      -2.251   7.383   3.163  0.00  0.00    +0.031 A 
ATOM     22  C   UNL     1      -2.274   7.267   4.540  0.00  0.00    +0.031 A 
ATOM     23  C   UNL     1      -3.199   6.431   5.146  0.00  0.00    +0.090 A 
ATOM     24  C   UNL     1      -4.103   5.710   4.367  0.00  0.00    +0.159 A 
ATOM     25  C   UNL     1      -4.075   5.836   2.987  0.00  0.00    +0.077 A 
ATOM     26  O   UNL     1      -4.877   4.987   5.214  0.00  0.00    -0.407 OA
ATOM     27  C   UNL     1      -4.492   5.229   6.477  0.00  0.00    +0.421 A 
ATOM     28  O   UNL     1      -4.990   4.732   7.469  0.00  0.00    -0.223 OA
ATOM     29  N   UNL     1      -3.470   6.107   6.475  0.00  0.00    -0.277 N 
ATOM     30  C   UNL     1      -2.770   6.625   7.653  0.00  0.00    +0.156 C 
ENDBRANCH  17  20
ENDBRANCH  15  17
ENDBRANCH   1  15
BRANCH   1  31
ATOM     31  C   UNL     1      -2.620   3.602  -1.130  0.00  0.00    +0.032 C 
BRANCH  31  32
ATOM     32  C   UNL     1      -3.866   4.213  -1.774  0.00  0.00    -0.015 C 
ATOM     33  C   UNL     1      -4.013   3.685  -3.202  0.00  0.00    +0.007 C 
ATOM     34  C   UNL     1      -5.102   3.827  -0.959  0.00  0.00    +0.007 C 
ENDBRANCH  31  32
ENDBRANCH   1  31
TORSDOF 9
