REMARK  Name = ZINC06148933
REMARK  10 active torsions:
REMARK  status: ('A' for Active; 'I' for Inactive)
REMARK    1  A    between atoms: C_1  and  C_2
REMARK    2  A    between atoms: C_7  and  C_9
REMARK    3  A    between atoms: C_7  and  C_23
REMARK    4  A    between atoms: C_7  and  N_65
REMARK    5  A    between atoms: C_13  and  O_21
REMARK    6  A    between atoms: O_21  and  C_22
REMARK    7  A    between atoms: N_27  and  C_28
REMARK    8  A    between atoms: C_28  and  C_29
REMARK    9  A    between atoms: C_32  and  O_35
REMARK   10  A    between atoms: O_35  and  C_36
REMARK                            x       y       z     vdW  Elec       q    Type
REMARK                         _______ _______ _______ _____ _____    ______ ____
ROOT
ATOM      1  C   UNL     1      -1.225   2.027   0.509  0.00  0.00    +0.039 C 
ENDROOT
BRANCH   1   2
ATOM      2  C   UNL     1      -1.652   1.752   1.928  0.00  0.00    +0.011 A 
ATOM      3  C   UNL     1      -1.552   2.728   2.864  0.00  0.00    +0.017 A 
ATOM      4  C   UNL     1      -1.976   2.429   4.234  0.00  0.00    +0.002 A 
ATOM      5  C   UNL     1      -1.896   3.397   5.241  0.00  0.00    +0.055 A 
ATOM      6  C   UNL     1      -2.304   3.082   6.521  0.00  0.00    +0.121 A 
ATOM      7  C   UNL     1      -2.792   1.810   6.811  0.00  0.00    +0.047 A 
ATOM      8  C   UNL     1      -2.875   0.849   5.828  0.00  0.00    +0.030 A 
ATOM      9  C   UNL     1      -2.470   1.145   4.531  0.00  0.00    +0.049 A 
ATOM     10  N   UNL     1      -2.546   0.197   3.531  0.00  0.00    -0.322 N 
ATOM     11  H   UNL     1      -2.893  -0.717   3.744  0.00  0.00    +0.169 HD
ATOM     12  C   UNL     1      -2.160   0.482   2.275  0.00  0.00    +0.251 A 
ATOM     13  O   UNL     1      -2.246  -0.379   1.417  0.00  0.00    -0.268 OA
BRANCH   6  14
ATOM     14  O   UNL     1      -2.229   4.017   7.505  0.00  0.00    -0.495 OA
ATOM     15  C   UNL     1      -2.667   3.626   8.807  0.00  0.00    +0.277 C 
ENDBRANCH   6  14
ENDBRANCH   1   2
BRANCH   1  22
ATOM     16  C   UNL     1      -5.536   1.662  -3.226  0.00  0.00    +0.007 C 
ATOM     17  C   UNL     1      -4.421   2.198  -2.326  0.00  0.00    -0.018 C 
ATOM     18  C   UNL     1      -3.087   1.565  -2.731  0.00  0.00    -0.015 C 
ATOM     19  C   UNL     1      -1.986   2.058  -1.789  0.00  0.00    -0.077 C 
ATOM     20  C   UNL     1      -3.576   2.327   0.020  0.00  0.00    -0.077 C 
ATOM     21  C   UNL     1      -4.724   1.842  -0.868  0.00  0.00    -0.015 C 
ATOM     22  N   UNL     1      -2.326   1.662  -0.405  0.00  0.00    +0.389 N 
ATOM     23  H   UNL     1      -2.463   0.645  -0.374  0.00  0.00    -0.080 HD
ENDBRANCH   1  22
BRANCH   1  24
ATOM     24  C   UNL     1      -0.019   1.187   0.176  0.00  0.00    +0.143 A 
ATOM     25  N   UNL     1      -0.017  -0.079  -0.164  0.00  0.00    -0.115 NA
ATOM     26  N   UNL     1       1.204  -0.433  -0.374  0.00  0.00    -0.023 NA
ATOM     27  N   UNL     1       1.981   0.575  -0.178  0.00  0.00    -0.044 NA
ATOM     28  N   UNL     1       1.265   1.592   0.163  0.00  0.00    -0.226 N 
BRANCH  28  29
ATOM     29  C   UNL     1       1.756   2.936   0.475  0.00  0.00    +0.182 C 
BRANCH  29  30
ATOM     30  C   UNL     1       1.928   3.718  -0.801  0.00  0.00    -0.026 A 
ATOM     31  C   UNL     1       3.100   3.606  -1.526  0.00  0.00    +0.009 A 
ATOM     32  C   UNL     1       3.258   4.317  -2.700  0.00  0.00    +0.046 A 
ATOM     33  C   UNL     1       2.244   5.153  -3.145  0.00  0.00    +0.120 A 
ATOM     34  C   UNL     1       1.071   5.268  -2.413  0.00  0.00    +0.046 A 
ATOM     35  C   UNL     1       0.916   4.550  -1.243  0.00  0.00    +0.009 A 
BRANCH  33  36
ATOM     36  O   UNL     1       2.399   5.858  -4.297  0.00  0.00    -0.495 OA
ATOM     37  C   UNL     1       3.633   5.690  -4.999  0.00  0.00    +0.277 C 
ENDBRANCH  33  36
ENDBRANCH  29  30
ENDBRANCH  28  29
ENDBRANCH   1  24
TORSDOF 7
