REMARK  Name = ZINC28727603
REMARK  8 active torsions:
REMARK  status: ('A' for Active; 'I' for Inactive)
REMARK    1  A    between atoms: C_1  and  C_2
REMARK    2  A    between atoms: C_2  and  C_4
REMARK    3  A    between atoms: C_2  and  N_14
REMARK    4  A    between atoms: C_7  and  S_10
REMARK    5  A    between atoms: S_10  and  N_13
REMARK    6  A    between atoms: N_14  and  C_15
REMARK    7  A    between atoms: N_14  and  C_16
REMARK    8  A    between atoms: C_16  and  C_17
REMARK                            x       y       z     vdW  Elec       q    Type
REMARK                         _______ _______ _______ _____ _____    ______ ____
ROOT
ATOM      1  N   UNL     1      -3.522   4.483   4.783  0.00  0.00    +0.385 N 
ATOM      2  C   UNL     1      -4.283   4.713   3.548  0.00  0.00    -0.095 C 
ATOM      3  H   UNL     1      -2.603   5.085   4.732  0.00  0.00    -0.081 HD
ENDROOT
BRANCH   1   5
ATOM      4  C   UNL     1      -2.260   2.890   6.150  0.00  0.00    -0.008 C 
ATOM      5  C   UNL     1      -3.131   3.072   4.906  0.00  0.00    -0.041 C 
BRANCH   5   6
ATOM      6  C   UNL     1      -2.353   2.659   3.683  0.00  0.00    -0.061 A 
ATOM      7  C   UNL     1      -2.559   1.412   3.121  0.00  0.00    +0.004 A 
ATOM      8  C   UNL     1      -1.846   1.033   2.000  0.00  0.00    +0.029 A 
ATOM      9  C   UNL     1      -0.927   1.900   1.439  0.00  0.00    +0.105 A 
ATOM     10  C   UNL     1      -0.717   3.145   2.004  0.00  0.00    +0.029 A 
ATOM     11  C   UNL     1      -1.434   3.526   3.123  0.00  0.00    +0.004 A 
BRANCH   9  12
ATOM     12  S   UNL     1      -0.017   1.417   0.010  0.00  0.00    +0.056 S 
ATOM     13  O   UNL     1       0.002  -0.004   0.002  0.00  0.00    -0.153 OA
ATOM     14  O   UNL     1       1.172   2.195   0.003  0.00  0.00    -0.153 OA
BRANCH  12  15
ATOM     15  N   UNL     1      -0.897   1.885  -1.312  0.00  0.00    -0.204 NA
ATOM     16  H   UNL     1      -0.361   1.601  -2.229  0.00  0.00    +0.144 HD
ATOM     17  H   UNL     1      -1.036   2.977  -1.292  0.00  0.00    +0.144 HD
ENDBRANCH  12  15
ENDBRANCH   9  12
ENDBRANCH   5   6
ENDBRANCH   1   5
BRANCH   1  18
ATOM     18  C   UNL     1      -4.284   4.922   5.960  0.00  0.00    -0.041 C 
BRANCH  18  19
ATOM     19  C   UNL     1      -4.456   6.418   5.918  0.00  0.00    -0.046 A 
ATOM     20  C   UNL     1      -5.677   6.964   5.569  0.00  0.00    +0.052 A 
ATOM     21  C   UNL     1      -5.839   8.340   5.534  0.00  0.00    +0.162 A 
ATOM     22  C   UNL     1      -4.768   9.171   5.843  0.00  0.00    +0.163 A 
ATOM     23  C   UNL     1      -3.543   8.618   6.186  0.00  0.00    +0.065 A 
ATOM     24  C   UNL     1      -3.389   7.244   6.223  0.00  0.00    +0.023 A 
ATOM     25 BR   UNL     1      -1.717   6.494   6.689  0.00  0.00    -0.050 Br
ATOM     26  O   UNL     1      -4.905  10.524   5.815  0.00  0.00    -0.485 OA
ATOM     27  C   UNL     1      -6.038  11.042   5.108  0.00  0.00    +0.270 C 
ATOM     28  C   UNL     1      -7.275  10.236   5.526  0.00  0.00    +0.270 C 
ATOM     29  O   UNL     1      -7.048   8.862   5.191  0.00  0.00    -0.485 OA
ENDBRANCH  18  19
ENDBRANCH   1  18
TORSDOF 6
