REMARK  Name = ZINC25244620
REMARK  6 active torsions:
REMARK  status: ('A' for Active; 'I' for Inactive)
REMARK    1  A    between atoms: C_3  and  C_6
REMARK    2  A    between atoms: C_15  and  C_17
REMARK    3  A    between atoms: C_17  and  S_18
REMARK    4  A    between atoms: S_18  and  C_19
REMARK    5  A    between atoms: C_22  and  C_25
REMARK    6  A    between atoms: C_25  and  C_26
REMARK                            x       y       z     vdW  Elec       q    Type
REMARK                         _______ _______ _______ _____ _____    ______ ____
ROOT
ATOM      1  C   UNL     1       3.574   0.618  -0.029  0.00  0.00    +0.039 A 
ATOM      2  C   UNL     1       4.276   1.361  -0.922  0.00  0.00    +0.059 A 
ATOM      3  S   UNL     1       5.973   0.976  -0.536  0.00  0.00    -0.076 S 
ATOM      4  C   UNL     1       5.706  -0.160   0.801  0.00  0.00    +0.116 A 
ATOM      5  C   UNL     1       4.308  -0.211   0.921  0.00  0.00    +0.083 A 
ATOM      6  C   UNL     1       3.805  -1.069   1.951  0.00  0.00    +0.260 A 
ATOM      7  O   UNL     1       2.605  -1.183   2.130  0.00  0.00    -0.267 OA
ATOM      8  N   UNL     1       4.678  -1.748   2.718  0.00  0.00    -0.310 N 
ATOM      9  H   UNL     1       4.343  -2.331   3.417  0.00  0.00    +0.170 HD
ATOM     10  C   UNL     1       6.018  -1.633   2.532  0.00  0.00    +0.121 A 
ATOM     11  N   UNL     1       6.506  -0.866   1.595  0.00  0.00    -0.226 NA
ENDROOT
BRANCH   1  14
ATOM     12  C   UNL     1      -0.016   1.343   0.009  0.00  0.00    +0.042 A 
ATOM     13  C   UNL     1       1.326   1.774  -0.001  0.00  0.00    +0.050 A 
ATOM     14  C   UNL     1       2.098   0.654  -0.015  0.00  0.00    +0.136 A 
ATOM     15  O   UNL     1       1.281  -0.417  -0.012  0.00  0.00    -0.463 OA
ATOM     16  C   UNL     1       0.002  -0.004   0.002  0.00  0.00    +0.196 A 
ENDBRANCH   1  14
BRANCH  10  17
ATOM     17  C   UNL     1       6.957  -2.413   3.415  0.00  0.00    +0.151 C 
BRANCH  17  18
ATOM     18  S   UNL     1       8.671  -2.061   2.935  0.00  0.00    -0.079 S 
BRANCH  18  19
ATOM     19  C   UNL     1       9.633  -3.034   4.045  0.00  0.00    +0.185 A 
ATOM     20  N   UNL     1       9.166  -3.822   4.991  0.00  0.00    -0.206 NA
ATOM     21  H   UNL     1      11.602  -2.643   3.493  0.00  0.00    +0.191 HD
ATOM     22  C   UNL     1      10.180  -4.402   5.635  0.00  0.00    +0.152 A 
ATOM     23  N   UNL     1      11.306  -3.995   5.114  0.00  0.00    -0.157 NA
ATOM     24  N   UNL     1      10.982  -3.110   4.073  0.00  0.00    -0.254 N 
BRANCH  22  25
ATOM     25  C   UNL     1      10.046  -5.370   6.782  0.00  0.00    +0.081 C 
BRANCH  25  26
ATOM     26  C   UNL     1       9.966  -6.798   6.237  0.00  0.00    -0.004 C 
ATOM     27  C   UNL     1       8.642  -6.996   5.470  0.00  0.00    +0.004 C 
ATOM     28  C   UNL     1       8.220  -8.447   5.809  0.00  0.00    +0.000 C 
ATOM     29  C   UNL     1       8.626  -8.582   7.298  0.00  0.00    +0.000 C 
ATOM     30  C   UNL     1       9.955  -7.806   7.399  0.00  0.00    +0.004 C 
ENDBRANCH  25  26
ENDBRANCH  22  25
ENDBRANCH  18  19
ENDBRANCH  17  18
ENDBRANCH  10  17
TORSDOF 6
