REMARK  Name = ZINC20972630
REMARK  10 active torsions:
REMARK  status: ('A' for Active; 'I' for Inactive)
REMARK    1  A    between atoms: C_1  and  C_2
REMARK    2  A    between atoms: C_2  and  C_3
REMARK    3  A    between atoms: C_6  and  N_9
REMARK    4  A    between atoms: C_10  and  C_12
REMARK    5  A    between atoms: C_12  and  C_14
REMARK    6  A    between atoms: C_12  and  S_15
REMARK    7  A    between atoms: S_15  and  C_16
REMARK    8  A    between atoms: C_19  and  C_24
REMARK    9  A    between atoms: N_20  and  C_21
REMARK   10  A    between atoms: C_21  and  C_22
REMARK                            x       y       z     vdW  Elec       q    Type
REMARK                         _______ _______ _______ _____ _____    ______ ____
ROOT
ATOM      1  C   UNL     1       7.949  -1.629  -0.055  0.00  0.00    +0.193 A 
ATOM      2  N   UNL     1       7.357  -1.867   1.093  0.00  0.00    -0.122 NA
ATOM      3  N   UNL     1       6.201  -1.306   1.113  0.00  0.00    -0.129 NA
ATOM      4  C   UNL     1       5.987  -0.681  -0.010  0.00  0.00    +0.179 A 
ATOM      5  N   UNL     1       7.090  -0.869  -0.796  0.00  0.00    -0.299 N 
ENDROOT
BRANCH   4   6
ATOM      6  C   UNL     1       4.751   0.097  -0.377  0.00  0.00    +0.278 C 
ATOM      7  C   UNL     1       4.746   1.441   0.364  0.00  0.00    +0.281 C 
ATOM      8  O   UNL     1       3.555   2.148   0.003  0.00  0.00    -0.484 OA
ATOM      9  C   UNL     1       2.393   1.439   0.026  0.00  0.00    +0.162 A 
ATOM     10  C   UNL     1       1.183   2.116   0.047  0.00  0.00    +0.049 A 
ATOM     11  C   UNL     1      -0.005   1.411   0.063  0.00  0.00    +0.004 A 
ATOM     12  C   UNL     1       0.009   0.028   0.059  0.00  0.00    +0.004 A 
ATOM     13  C   UNL     1       1.212  -0.653   0.041  0.00  0.00    +0.049 A 
ATOM     14  C   UNL     1       2.408   0.050   0.025  0.00  0.00    +0.163 A 
ATOM     15  O   UNL     1       3.584  -0.634   0.014  0.00  0.00    -0.474 OA
ENDBRANCH   4   6
BRANCH   1  16
ATOM     16  S   UNL     1       9.545  -2.189  -0.547  0.00  0.00    -0.074 S 
BRANCH  16  17
ATOM     17  C   UNL     1      10.026  -3.110   0.935  0.00  0.00    +0.137 C 
ATOM     18  C   UNL     1      10.163  -2.144   2.114  0.00  0.00    +0.029 C 
BRANCH  17  20
ATOM     19  N   UNL     1      11.666  -4.903   1.394  0.00  0.00    -0.285 N 
ATOM     20  C   UNL     1      11.344  -3.798   0.693  0.00  0.00    +0.230 C 
ATOM     21  O   UNL     1      12.116  -3.358  -0.133  0.00  0.00    -0.274 OA
ATOM     22  H   UNL     1      11.002  -5.259   2.195  0.00  0.00    +0.155 HD
BRANCH  19  26
ATOM     23  C   UNL     1      15.178  -6.971   0.526  0.00  0.00    -0.048 A 
ATOM     24  C   UNL     1      15.144  -5.593   0.418  0.00  0.00    +0.005 A 
ATOM     25  C   UNL     1      13.982  -4.904   0.705  0.00  0.00    +0.023 A 
ATOM     26  C   UNL     1      12.846  -5.598   1.103  0.00  0.00    +0.033 A 
ATOM     27  C   UNL     1      12.884  -6.981   1.216  0.00  0.00    +0.023 A 
ATOM     28  C   UNL     1      14.049  -7.664   0.922  0.00  0.00    +0.005 A 
BRANCH  23  30
ATOM     29  C   UNL     1      17.288  -7.854   1.484  0.00  0.00    +0.009 C 
ATOM     30  C   UNL     1      16.448  -7.719   0.212  0.00  0.00    +0.032 C 
ENDBRANCH  23  30
ENDBRANCH  19  26
ENDBRANCH  17  20
ENDBRANCH  16  17
ENDBRANCH   1  16
BRANCH   5  31
ATOM     31  C   UNL     1       7.307  -0.358  -2.152  0.00  0.00    +0.152 C 
BRANCH  31  32
ATOM     32  C   UNL     1       7.965   0.996  -2.079  0.00  0.00    -0.013 C 
ATOM     33  C   UNL     1       9.089   1.214  -2.716  0.00  0.00    +0.005 C 
ENDBRANCH  31  32
ENDBRANCH   5  31
TORSDOF 8
