REMARK  Name = ZINC09779802
REMARK  8 active torsions:
REMARK  status: ('A' for Active; 'I' for Inactive)
REMARK    1  A    between atoms: C_1  and  C_2
REMARK    2  A    between atoms: C_9  and  N_14
REMARK    3  A    between atoms: N_14  and  C_15
REMARK    4  A    between atoms: C_15  and  C_17
REMARK    5  A    between atoms: C_15  and  C_18
REMARK    6  A    between atoms: N_20  and  C_21
REMARK    7  A    between atoms: C_24  and  C_27
REMARK    8  A    between atoms: C_27  and  C_28
REMARK                            x       y       z     vdW  Elec       q    Type
REMARK                         _______ _______ _______ _____ _____    ______ ____
ROOT
ATOM      1  C   UNL     1       0.929   9.652   5.995  0.00  0.00    +0.237 C 
ATOM      2  O   UNL     1      -0.147   9.679   5.437  0.00  0.00    -0.273 OA
ATOM      3  N   UNL     1       1.994   9.098   5.381  0.00  0.00    -0.284 N 
ATOM      4  H   UNL     1       2.837   9.016   5.853  0.00  0.00    +0.155 HD
ENDROOT
BRANCH   3   5
ATOM      5  C   UNL     1       1.881   8.641   4.064  0.00  0.00    +0.033 A 
ATOM      6  C   UNL     1       0.693   8.073   3.623  0.00  0.00    +0.023 A 
ATOM      7  C   UNL     1       0.586   7.623   2.322  0.00  0.00    +0.006 A 
ATOM      8  C   UNL     1       1.660   7.737   1.458  0.00  0.00    -0.041 A 
ATOM      9  C   UNL     1       2.846   8.297   1.895  0.00  0.00    +0.006 A 
ATOM     10  C   UNL     1       2.958   8.754   3.194  0.00  0.00    +0.023 A 
BRANCH   8  11
ATOM     11  C   UNL     1       1.539   7.244   0.039  0.00  0.00    +0.098 C 
BRANCH  11  12
ATOM     12  C   UNL     1       1.036   8.360  -0.840  0.00  0.00    +0.084 A 
ATOM     13  N   UNL     1       1.730   9.249  -1.494  0.00  0.00    -0.244 NA
ATOM     14  C   UNL     1       1.153  10.204  -2.252  0.00  0.00    +0.078 A 
ATOM     15  C   UNL     1       1.763  11.227  -3.012  0.00  0.00    +0.029 A 
ATOM     16  C   UNL     1       1.008  12.106  -3.726  0.00  0.00    +0.002 A 
ATOM     17  C   UNL     1      -0.378  12.041  -3.727  0.00  0.00    +0.001 A 
ATOM     18  C   UNL     1      -1.013  11.055  -2.996  0.00  0.00    +0.017 A 
ATOM     19  C   UNL     1      -0.260  10.159  -2.277  0.00  0.00    +0.039 A 
ATOM     20  S   UNL     1      -0.606   8.772  -1.225  0.00  0.00    -0.072 S 
ENDBRANCH  11  12
ENDBRANCH   8  11
ENDBRANCH   3   5
BRANCH   1  21
ATOM     21  C   UNL     1       1.077  10.239   7.376  0.00  0.00    +0.154 C 
ATOM     22  C   UNL     1       2.113  11.364   7.344  0.00  0.00    +0.038 C 
BRANCH  21  23
ATOM     23  N   UNL     1      -0.212  10.774   7.819  0.00  0.00    -0.333 N 
ATOM     24  H   UNL     1      -0.874  11.050   7.165  0.00  0.00    +0.147 HD
BRANCH  23  32
ATOM     25  C   UNL     1      -1.339  13.621  13.529  0.00  0.00    +0.062 C 
ATOM     26  C   UNL     1      -2.139  12.320  13.613  0.00  0.00    +0.256 C 
ATOM     27  C   UNL     1      -3.331  12.404  12.693  0.00  0.00    +0.258 C 
ATOM     28  O   UNL     1      -4.392  12.820  13.107  0.00  0.00    -0.271 OA
ATOM     29  N   UNL     1      -3.211  12.015  11.405  0.00  0.00    -0.279 N 
ATOM     30  C   UNL     1      -1.983  11.505  10.960  0.00  0.00    +0.077 A 
ATOM     31  C   UNL     1      -1.710  11.400   9.606  0.00  0.00    +0.050 A 
ATOM     32  C   UNL     1      -0.490  10.887   9.186  0.00  0.00    +0.030 A 
ATOM     33  C   UNL     1       0.457  10.492  10.122  0.00  0.00    +0.026 A 
ATOM     34  C   UNL     1       0.187  10.602  11.473  0.00  0.00    +0.049 A 
ATOM     35  C   UNL     1      -1.030  11.108  11.896  0.00  0.00    +0.143 A 
ATOM     36  O   UNL     1      -1.308  11.224  13.224  0.00  0.00    -0.478 OA
ATOM     37  H   UNL     1      -3.963  12.086  10.797  0.00  0.00    +0.155 HD
ENDBRANCH  23  32
ENDBRANCH  21  23
ENDBRANCH   1  21
TORSDOF 6
