REMARK  Name = ZINC40170578
REMARK  12 active torsions:
REMARK  status: ('A' for Active; 'I' for Inactive)
REMARK    1  A    between atoms: C_1  and  C_2
REMARK    2  A    between atoms: C_4  and  C_33
REMARK    3  A    between atoms: C_8  and  C_32
REMARK    4  A    between atoms: C_12  and  S_15
REMARK    5  A    between atoms: S_15  and  C_16
REMARK    6  A    between atoms: C_16  and  C_18
REMARK    7  A    between atoms: C_16  and  C_19
REMARK    8  A    between atoms: N_21  and  C_22
REMARK    9  A    between atoms: C_24  and  O_30
REMARK   10  A    between atoms: C_27  and  O_28
REMARK   11  A    between atoms: O_28  and  C_29
REMARK   12  A    between atoms: O_30  and  C_31
REMARK                            x       y       z     vdW  Elec       q    Type
REMARK                         _______ _______ _______ _____ _____    ______ ____
ROOT
ATOM      1  S   UNL     1       2.072  -4.712  -2.267  0.00  0.00    -0.073 S 
ENDROOT
BRANCH   1  13
ATOM      2  C   UNL     1       0.038   1.520   0.026  0.00  0.00    +0.044 C 
ATOM      3  C   UNL     1       0.054   0.015   0.020  0.00  0.00    -0.050 A 
ATOM      4  C   UNL     1       0.002  -0.679  -1.177  0.00  0.00    +0.008 A 
ATOM      5  C   UNL     1       0.065  -2.060  -1.195  0.00  0.00    -0.026 A 
ATOM      6  C   UNL     1       0.255  -2.771  -0.023  0.00  0.00    +0.061 A 
ATOM      7  C   UNL     1       0.125  -2.073   1.203  0.00  0.00    +0.002 A 
ATOM      8  C   UNL     1       0.082  -0.677   1.211  0.00  0.00    +0.013 A 
ATOM      9  C   UNL     1      -0.031  -2.838   2.443  0.00  0.00    -0.038 A 
ATOM     10  C   UNL     1       0.018  -4.188   2.392  0.00  0.00    +0.052 A 
ATOM     11  C   UNL     1       0.299  -4.843   1.174  0.00  0.00    +0.162 A 
ATOM     12  N   UNL     1       0.544  -4.122   0.019  0.00  0.00    -0.270 N 
ATOM     13  C   UNL     1       1.115  -5.029  -0.821  0.00  0.00    +0.197 A 
ATOM     14  N   UNL     1       0.870  -6.228  -0.328  0.00  0.00    -0.122 NA
ATOM     15  N   UNL     1       0.352  -6.119   0.840  0.00  0.00    -0.129 NA
ATOM     16  C   UNL     1      -0.246  -2.148   3.765  0.00  0.00    +0.044 C 
ATOM     17  C   UNL     1      -0.163  -2.754  -2.515  0.00  0.00    +0.046 C 
ENDBRANCH   1  13
BRANCH   1  18
ATOM     18  C   UNL     1       2.503  -6.364  -2.879  0.00  0.00    +0.137 C 
ATOM     19  C   UNL     1       1.230  -7.095  -3.312  0.00  0.00    +0.029 C 
BRANCH  18  20
ATOM     20  C   UNL     1       3.434  -6.237  -4.058  0.00  0.00    +0.230 C 
ATOM     21  O   UNL     1       3.493  -5.193  -4.673  0.00  0.00    -0.274 OA
ATOM     22  N   UNL     1       4.200  -7.282  -4.427  0.00  0.00    -0.282 N 
ATOM     23  H   UNL     1       4.201  -8.094  -3.897  0.00  0.00    +0.155 HD
BRANCH  22  24
ATOM     24  C   UNL     1       4.995  -7.195  -5.577  0.00  0.00    +0.079 A 
ATOM     25  C   UNL     1       5.580  -5.987  -5.928  0.00  0.00    +0.072 A 
ATOM     26  C   UNL     1       6.367  -5.904  -7.066  0.00  0.00    +0.122 A 
ATOM     27  C   UNL     1       6.569  -7.028  -7.855  0.00  0.00    +0.049 A 
ATOM     28  C   UNL     1       5.987  -8.232  -7.508  0.00  0.00    +0.051 A 
ATOM     29  C   UNL     1       5.205  -8.322  -6.368  0.00  0.00    +0.141 A 
BRANCH  29  30
ATOM     30  O   UNL     1       4.637  -9.510  -6.024  0.00  0.00    -0.493 OA
ATOM     31  C   UNL     1       4.895 -10.625  -6.880  0.00  0.00    +0.277 C 
ENDBRANCH  29  30
BRANCH  26  32
ATOM     32  O   UNL     1       6.941  -4.721  -7.411  0.00  0.00    -0.495 OA
ATOM     33  C   UNL     1       7.738  -4.707  -8.597  0.00  0.00    +0.277 C 
ENDBRANCH  26  32
ENDBRANCH  22  24
ENDBRANCH  18  20
ENDBRANCH   1  18
TORSDOF 6
