REMARK  Name = ZINC01836079
REMARK  8 active torsions:
REMARK  status: ('A' for Active; 'I' for Inactive)
REMARK    1  A    between atoms: C_6  and  C_7
REMARK    2  A    between atoms: C_7  and  S_8
REMARK    3  A    between atoms: S_8  and  C_9
REMARK    4  A    between atoms: C_12  and  S_14
REMARK    5  A    between atoms: S_14  and  C_15
REMARK    6  A    between atoms: C_15  and  C_16
REMARK    7  A    between atoms: N_18  and  C_19
REMARK    8  A    between atoms: C_22  and  C_25
REMARK                            x       y       z     vdW  Elec       q    Type
REMARK                         _______ _______ _______ _____ _____    ______ ____
ROOT
ATOM      1  C   UNL     1       1.722   2.234   0.163  0.00  0.00    +0.172 C 
ENDROOT
BRANCH   1   2
ATOM      2  C   UNL     1       1.863   3.734   0.175  0.00  0.00    +0.227 C 
ATOM      3  O   UNL     1       0.887   4.433   0.347  0.00  0.00    -0.275 OA
ATOM      4  N   UNL     1       3.074   4.299  -0.004  0.00  0.00    -0.285 N 
ATOM      5  H   UNL     1       3.865   3.741  -0.065  0.00  0.00    +0.155 HD
BRANCH   4   6
ATOM      6  C   UNL     1       3.189   5.685  -0.103  0.00  0.00    +0.033 A 
ATOM      7  C   UNL     1       2.174   6.424  -0.702  0.00  0.00    +0.024 A 
ATOM      8  C   UNL     1       2.282   7.794  -0.797  0.00  0.00    +0.015 A 
ATOM      9  C   UNL     1       3.418   8.439  -0.300  0.00  0.00    +0.037 A 
ATOM     10  C   UNL     1       4.438   7.693   0.296  0.00  0.00    +0.015 A 
ATOM     11  C   UNL     1       4.321   6.324   0.392  0.00  0.00    +0.024 A 
BRANCH   9  12
ATOM     12  C   UNL     1       3.540   9.906  -0.405  0.00  0.00    +0.242 C 
ATOM     13  O   UNL     1       4.528  10.467   0.028  0.00  0.00    -0.270 OA
ATOM     14  N   UNL     1       2.555  10.625  -0.981  0.00  0.00    -0.325 N 
ATOM     15  H   UNL     1       1.767  10.178  -1.326  0.00  0.00    +0.145 HD
ATOM     16  H   UNL     1       2.635  11.589  -1.050  0.00  0.00    +0.145 HD
ENDBRANCH   9  12
ENDBRANCH   4   6
ENDBRANCH   1   2
BRANCH   1  17
ATOM     17  S   UNL     1      -0.016   1.787   0.429  0.00  0.00    -0.088 S 
BRANCH  17  21
ATOM     18  C   UNL     1      -0.450  -2.627   0.398  0.00  0.00    +0.160 A 
ATOM     19  N   UNL     1       0.771  -2.163   0.214  0.00  0.00    -0.134 NA
ATOM     20  N   UNL     1       0.994  -0.805   0.210  0.00  0.00    -0.134 NA
ATOM     21  C   UNL     1      -0.015   0.026   0.389  0.00  0.00    +0.160 A 
ATOM     22  S   UNL     1      -1.377  -1.112   0.587  0.00  0.00    -0.033 S 
BRANCH  18  23
ATOM     23  S   UNL     1      -1.015  -4.295   0.450  0.00  0.00    -0.092 S 
BRANCH  23  24
ATOM     24  C   UNL     1       0.489  -5.276   0.189  0.00  0.00    +0.111 C 
BRANCH  24  30
ATOM     25  C   UNL     1       0.177  -7.442   1.402  0.00  0.00    +0.006 A 
ATOM     26  C   UNL     1      -0.146  -8.786   1.424  0.00  0.00    +0.020 A 
ATOM     27  C   UNL     1      -0.493  -9.433   0.252  0.00  0.00    +0.041 A 
ATOM     28  C   UNL     1      -0.522  -8.733  -0.941  0.00  0.00    +0.020 A 
ATOM     29  C   UNL     1      -0.204  -7.388  -0.961  0.00  0.00    +0.006 A 
ATOM     30  C   UNL     1       0.142  -6.742   0.211  0.00  0.00    -0.037 A 
ATOM     31 CL   UNL     1      -0.893 -11.122   0.277  0.00  0.00    -0.084 Cl
ENDBRANCH  24  30
ENDBRANCH  23  24
ENDBRANCH  18  23
ENDBRANCH  17  21
ENDBRANCH   1  17
TORSDOF 8
