REMARK  Name = ZINC13065541
REMARK  10 active torsions:
REMARK  status: ('A' for Active; 'I' for Inactive)
REMARK    1  A    between atoms: C_1  and  C_2
REMARK    2  A    between atoms: C_4  and  C_36
REMARK    3  A    between atoms: C_9  and  C_14
REMARK    4  A    between atoms: C_14  and  N_64
REMARK    5  A    between atoms: C_15  and  C_16
REMARK    6  A    between atoms: C_15  and  N_64
REMARK    7  A    between atoms: N_20  and  C_21
REMARK    8  A    between atoms: C_21  and  C_22
REMARK    9  A    between atoms: C_29  and  C_30
REMARK   10  A    between atoms: C_29  and  N_64
REMARK                            x       y       z     vdW  Elec       q    Type
REMARK                         _______ _______ _______ _____ _____    ______ ____
ROOT
ATOM      1  N   UNL     1      -2.814   1.780   3.061  0.00  0.00    +0.389 N 
ATOM      2  H   UNL     1      -1.893   1.684   3.504  0.00  0.00    -0.081 HD
ENDROOT
BRANCH   1   3
ATOM      3  C   UNL     1      -3.536   0.495   3.170  0.00  0.00    -0.037 C 
BRANCH   3  12
ATOM      4  C   UNL     1      -6.070  -0.404  10.126  0.00  0.00    +0.044 C 
ATOM      5  C   UNL     1      -5.010  -0.614   9.076  0.00  0.00    -0.050 A 
ATOM      6  C   UNL     1      -3.851  -1.308   9.398  0.00  0.00    +0.008 A 
ATOM      7  C   UNL     1      -2.869  -1.513   8.454  0.00  0.00    -0.026 A 
ATOM      8  C   UNL     1      -3.037  -1.020   7.164  0.00  0.00    +0.052 A 
ATOM      9  C   UNL     1      -4.213  -0.317   6.841  0.00  0.00    -0.001 A 
ATOM     10  C   UNL     1      -5.197  -0.121   7.816  0.00  0.00    +0.013 A 
ATOM     11  C   UNL     1      -4.382   0.198   5.481  0.00  0.00    +0.017 A 
ATOM     12  C   UNL     1      -3.394  -0.022   4.578  0.00  0.00    +0.001 A 
ATOM     13  C   UNL     1      -2.237  -0.738   4.951  0.00  0.00    +0.251 A 
ATOM     14  O   UNL     1      -1.363  -0.929   4.123  0.00  0.00    -0.268 OA
ATOM     15  N   UNL     1      -2.071  -1.210   6.199  0.00  0.00    -0.322 N 
ATOM     16  H   UNL     1      -1.261  -1.695   6.423  0.00  0.00    +0.169 HD
ATOM     17  C   UNL     1      -1.616  -2.268   8.817  0.00  0.00    +0.046 C 
ENDBRANCH   3  12
ENDBRANCH   1   3
BRANCH   1  18
ATOM     18  C   UNL     1      -3.572   2.845   3.752  0.00  0.00    +0.001 C 
BRANCH  18  19
ATOM     19  C   UNL     1      -2.718   4.085   3.817  0.00  0.00    +0.135 A 
ATOM     20  N   UNL     1      -1.873   4.404   4.768  0.00  0.00    -0.115 NA
ATOM     21  N   UNL     1      -1.337   5.535   4.460  0.00  0.00    -0.023 NA
ATOM     22  N   UNL     1      -1.823   5.948   3.342  0.00  0.00    -0.044 NA
ATOM     23  N   UNL     1      -2.678   5.082   2.914  0.00  0.00    -0.227 N 
BRANCH  23  24
ATOM     24  C   UNL     1      -3.459   5.167   1.678  0.00  0.00    +0.182 C 
BRANCH  24  25
ATOM     25  C   UNL     1      -4.762   5.872   1.954  0.00  0.00    -0.026 A 
ATOM     26  C   UNL     1      -5.876   5.143   2.328  0.00  0.00    +0.008 A 
ATOM     27  C   UNL     1      -7.070   5.789   2.586  0.00  0.00    +0.038 A 
ATOM     28  C   UNL     1      -7.153   7.165   2.460  0.00  0.00    +0.123 A 
ATOM     29  C   UNL     1      -6.039   7.894   2.081  0.00  0.00    +0.038 A 
ATOM     30  C   UNL     1      -4.844   7.246   1.828  0.00  0.00    +0.008 A 
ATOM     31  F   UNL     1      -8.322   7.797   2.708  0.00  0.00    -0.205 F 
ENDBRANCH  24  25
ENDBRANCH  23  24
ENDBRANCH  18  19
ENDBRANCH   1  18
BRANCH   1  32
ATOM     32  C   UNL     1      -2.628   2.136   1.638  0.00  0.00    -0.046 C 
BRANCH  32  33
ATOM     33  C   UNL     1      -1.593   1.190   1.026  0.00  0.00    +0.102 C 
ATOM     34  C   UNL     1      -1.357   1.540  -0.460  0.00  0.00    +0.032 C 
ATOM     35  C   UNL     1       0.156   1.308  -0.665  0.00  0.00    +0.030 C 
ATOM     36  C   UNL     1       0.656   0.845   0.721  0.00  0.00    +0.160 C 
ATOM     37  O   UNL     1      -0.305   1.376   1.659  0.00  0.00    -0.378 OA
ENDBRANCH  32  33
ENDBRANCH   1  32
TORSDOF 8
