REMARK  Name = ZINC49763116
REMARK  9 active torsions:
REMARK  status: ('A' for Active; 'I' for Inactive)
REMARK    1  A    between atoms: C_1  and  C_2
REMARK    2  A    between atoms: C_2  and  C_4
REMARK    3  A    between atoms: C_2  and  N_11
REMARK    4  A    between atoms: N_11  and  C_12
REMARK    5  A    between atoms: C_12  and  C_13
REMARK    6  A    between atoms: C_13  and  N_15
REMARK    7  A    between atoms: C_18  and  C_21
REMARK    8  A    between atoms: C_24  and  O_27
REMARK    9  A    between atoms: O_27  and  C_28
REMARK                            x       y       z     vdW  Elec       q    Type
REMARK                         _______ _______ _______ _____ _____    ______ ____
ROOT
ATOM      1  C   UNL     1       2.851  -0.582   2.343  0.00  0.00    +0.221 C 
ATOM      2  O   UNL     1       2.253  -1.217   3.191  0.00  0.00    -0.276 OA
ENDROOT
BRANCH   1   3
ATOM      3  N   UNL     1       4.145  -0.328   2.493  0.00  0.00    -0.158 NA
ATOM      4  C   UNL     1       4.790  -0.770   3.574  0.00  0.00    +0.163 A 
ATOM      5  N   UNL     1       6.100  -0.605   3.899  0.00  0.00    -0.335 N 
ATOM      6  C   UNL     1       6.563  -1.144   5.066  0.00  0.00    +0.055 A 
ATOM      7  C   UNL     1       5.668  -1.814   5.825  0.00  0.00    +0.074 A 
ATOM      8  S   UNL     1       4.176  -1.658   4.862  0.00  0.00    -0.060 S 
ATOM      9  H   UNL     1       6.695  -0.113   3.312  0.00  0.00    +0.168 HD
BRANCH   6  10
ATOM     10  C   UNL     1       7.977  -1.001   5.478  0.00  0.00    -0.001 A 
ATOM     11  C   UNL     1       8.873  -0.297   4.673  0.00  0.00    +0.013 A 
ATOM     12  C   UNL     1      10.190  -0.166   5.061  0.00  0.00    +0.046 A 
ATOM     13  C   UNL     1      10.624  -0.732   6.251  0.00  0.00    +0.120 A 
ATOM     14  C   UNL     1       9.735  -1.433   7.056  0.00  0.00    +0.046 A 
ATOM     15  C   UNL     1       8.416  -1.564   6.677  0.00  0.00    +0.013 A 
BRANCH  13  16
ATOM     16  O   UNL     1      11.922  -0.601   6.631  0.00  0.00    -0.495 OA
ATOM     17  C   UNL     1      12.302  -1.208   7.867  0.00  0.00    +0.277 C 
ENDBRANCH  13  16
ENDBRANCH   6  10
ENDBRANCH   1   3
BRANCH   1  18
ATOM     18  C   UNL     1       2.122  -0.083   1.122  0.00  0.00    +0.018 C 
BRANCH  18  19
ATOM     19  N   UNL     1       0.713  -0.491   1.192  0.00  0.00    +0.389 N 
ATOM     20  H   UNL     1       0.290  -0.099   2.020  0.00  0.00    -0.084 HD
ATOM     21  H   UNL     1       0.655  -1.497   1.230  0.00  0.00    -0.084 HD
BRANCH  19  23
ATOM     22  C   UNL     1      -0.019   1.526   0.010  0.00  0.00    -0.009 C 
ATOM     23  C   UNL     1       0.002  -0.004   0.002  0.00  0.00    -0.042 C 
BRANCH  23  24
ATOM     24  C   UNL     1      -1.412  -0.526   0.013  0.00  0.00    -0.043 A 
ATOM     25  C   UNL     1      -2.015  -0.864   1.210  0.00  0.00    +0.003 A 
ATOM     26  C   UNL     1      -3.312  -1.342   1.220  0.00  0.00    +0.000 A 
ATOM     27  C   UNL     1      -4.006  -1.483   0.033  0.00  0.00    +0.001 A 
ATOM     28  C   UNL     1      -3.404  -1.145  -1.165  0.00  0.00    +0.020 A 
ATOM     29  C   UNL     1      -2.108  -0.661  -1.175  0.00  0.00    +0.043 A 
ATOM     30 CL   UNL     1      -1.354  -0.230  -2.678  0.00  0.00    -0.083 Cl
ENDBRANCH  23  24
ENDBRANCH  19  23
ENDBRANCH  18  19
ENDBRANCH   1  18
TORSDOF 7
