REMARK  Name = ZINC23608153
REMARK  2 active torsions:
REMARK  status: ('A' for Active; 'I' for Inactive)
REMARK    1  A    between atoms: C_1  and  N_2
REMARK    2  A    between atoms: C_11  and  C_13
REMARK                            x       y       z     vdW  Elec       q    Type
REMARK                         _______ _______ _______ _____ _____    ______ ____
ROOT
ATOM      1  C   UNL     1      -0.018   1.465   0.010  0.00  0.00    +0.105 C 
ATOM      2  N   UNL     1       0.002  -0.004   0.002  0.00  0.00    -0.300 NA
ATOM      3  C   UNL     1      -1.362  -0.549   0.020  0.00  0.00    +0.090 C 
ATOM      4  C   UNL     1      -1.348  -2.033  -0.362  0.00  0.00    +0.071 C 
ATOM      5  C   UNL     1      -0.326  -2.738   0.518  0.00  0.00    +0.056 A 
ATOM      6  C   UNL     1       0.616  -2.008   1.173  0.00  0.00    +0.028 A 
ATOM      7  S   UNL     1       1.534  -3.250   2.037  0.00  0.00    -0.055 S 
ATOM      8  C   UNL     1       0.655  -4.585   1.500  0.00  0.00    +0.165 A 
ATOM      9  N   UNL     1      -0.259  -4.049   0.721  0.00  0.00    -0.229 NA
ATOM     10  N   UNL     1       0.850  -5.926   1.806  0.00  0.00    -0.260 N 
ATOM     11  C   UNL     1       1.850  -6.290   2.634  0.00  0.00    +0.258 C 
ATOM     12  O   UNL     1       2.582  -5.444   3.112  0.00  0.00    -0.269 OA
ATOM     13  C   UNL     1       0.790  -0.529   1.135  0.00  0.00    +0.128 C 
ATOM     14  H   UNL     1       0.266  -6.600   1.425  0.00  0.00    +0.157 HD
ENDROOT
BRANCH  11  15
ATOM     15  C   UNL     1       2.055  -7.706   2.957  0.00  0.00    +0.094 A 
ATOM     16  C   UNL     1       2.997  -8.263   3.768  0.00  0.00    +0.068 A 
ATOM     17  C   UNL     1       3.027  -9.658   3.950  0.00  0.00    +0.008 A 
ATOM     18  C   UNL     1       3.922 -10.419   4.746  0.00  0.00    +0.013 A 
ATOM     19  C   UNL     1       3.815 -11.771   4.814  0.00  0.00    +0.039 A 
ATOM     20  C   UNL     1       2.831 -12.460   4.111  0.00  0.00    +0.124 A 
ATOM     21  C   UNL     1       1.939 -11.756   3.323  0.00  0.00    +0.054 A 
ATOM     22  C   UNL     1       2.037 -10.383   3.247  0.00  0.00    +0.024 A 
ATOM     23  S   UNL     1       1.128  -9.121   2.391  0.00  0.00    -0.082 S 
ATOM     24  F   UNL     1       2.749 -13.806   4.197  0.00  0.00    -0.205 F 
ATOM     25 CL   UNL     1       4.157  -7.254   4.574  0.00  0.00    -0.082 Cl
ENDBRANCH  11  15
TORSDOF 1
