REMARK  Name = ZINC43286667
REMARK  9 active torsions:
REMARK  status: ('A' for Active; 'I' for Inactive)
REMARK    1  A    between atoms: C_1  and  C_2
REMARK    2  A    between atoms: C_2  and  C_4
REMARK    3  A    between atoms: C_2  and  N_22
REMARK    4  A    between atoms: C_4  and  C_6
REMARK    5  A    between atoms: C_4  and  N_12
REMARK    6  A    between atoms: N_15  and  C_18
REMARK    7  A    between atoms: C_18  and  C_19
REMARK    8  A    between atoms: C_18  and  C_20
REMARK    9  A    between atoms: C_18  and  C_21
REMARK                            x       y       z     vdW  Elec       q    Type
REMARK                         _______ _______ _______ _____ _____    ______ ____
ROOT
ATOM      1  C   UNL     1       0.742  -0.511   1.242  0.00  0.00    +0.079 C 
ENDROOT
BRANCH   1   2
ATOM      2  N   UNL     1       0.126   0.060   2.447  0.00  0.00    -0.300 NA
ATOM      3  C   UNL     1      -1.308  -0.255   2.505  0.00  0.00    +0.066 C 
ATOM      4  C   UNL     1      -1.923   0.406   3.741  0.00  0.00    -0.062 C 
ATOM      5  N   UNL     1      -1.246  -0.087   4.948  0.00  0.00    +0.385 N 
ATOM      6  C   UNL     1       0.181   0.256   4.886  0.00  0.00    -0.062 C 
ATOM      7  C   UNL     1       0.813  -0.406   3.660  0.00  0.00    +0.066 C 
ATOM      8  H   UNL     1      -1.348  -1.089   5.005  0.00  0.00    -0.081 HD
BRANCH   5   9
ATOM      9  C   UNL     1      -1.848   0.534   6.135  0.00  0.00    -0.074 C 
ATOM     10  C   UNL     1      -3.334   0.175   6.200  0.00  0.00    -0.010 C 
ATOM     11  C   UNL     1      -1.144   0.020   7.392  0.00  0.00    -0.010 C 
ATOM     12  C   UNL     1      -1.694   2.054   6.049  0.00  0.00    -0.010 C 
ENDBRANCH   5   9
ENDBRANCH   1   2
BRANCH   1  13
ATOM     13  C   UNL     1       2.188  -0.092   1.170  0.00  0.00    +0.006 A 
ATOM     14  C   UNL     1       3.268  -0.816   0.786  0.00  0.00    +0.028 A 
ATOM     15  C   UNL     1       4.515  -0.218   0.800  0.00  0.00    +0.025 A 
ATOM     16  C   UNL     1       4.620   1.075   1.196  0.00  0.00    +0.060 A 
ATOM     17  S   UNL     1       2.921   1.488   1.560  0.00  0.00    -0.099 S 
ATOM     18 BR   UNL     1       6.050  -1.188   0.274  0.00  0.00    -0.050 Br
ENDBRANCH   1  13
BRANCH   1  20
ATOM     19  C   UNL     1      -0.019   1.526   0.010  0.00  0.00    -0.012 C 
ATOM     20  C   UNL     1       0.002  -0.004   0.002  0.00  0.00    -0.056 C 
BRANCH  20  21
ATOM     21  N   UNL     1       0.690  -0.478  -1.207  0.00  0.00    +0.381 N 
ATOM     22  H   UNL     1       1.636  -0.129  -1.214  0.00  0.00    -0.090 HD
ATOM     23  H   UNL     1       0.703  -1.487  -1.212  0.00  0.00    -0.090 HD
ATOM     24  H   UNL     1       0.202  -0.144  -2.024  0.00  0.00    -0.090 HD
ENDBRANCH  20  21
ENDBRANCH   1  20
TORSDOF 5
