REMARK  Name = ZINC63375063
REMARK  9 active torsions:
REMARK  status: ('A' for Active; 'I' for Inactive)
REMARK    1  A    between atoms: C_1  and  C_2
REMARK    2  A    between atoms: C_2  and  C_3
REMARK    3  A    between atoms: C_3  and  N_4
REMARK    4  A    between atoms: C_5  and  C_7
REMARK    5  A    between atoms: C_12  and  N_13
REMARK    6  A    between atoms: C_29  and  C_34
REMARK    7  A    between atoms: C_37  and  C_40
REMARK    8  A    between atoms: C_40  and  C_41
REMARK    9  A    between atoms: C_40  and  C_42
REMARK                            x       y       z     vdW  Elec       q    Type
REMARK                         _______ _______ _______ _____ _____    ______ ____
ROOT
ATOM      1  N   UNL     1       3.056  -3.686  -4.289  0.00  0.00    -0.192 N 
ATOM      2  C   UNL     1       4.261  -3.105  -4.461  0.00  0.00    +0.248 C 
ATOM      3  O   UNL     1       5.166  -3.042  -3.656  0.00  0.00    -0.273 OA
ATOM      4  C   UNL     1       4.248  -2.546  -5.867  0.00  0.00    +0.169 C 
ATOM      5  C   UNL     1       4.487  -1.026  -5.832  0.00  0.00    +0.065 C 
ATOM      6  C   UNL     1       3.890  -0.472  -7.104  0.00  0.00    -0.034 C 
ATOM      7  C   UNL     1       4.428   0.285  -8.054  0.00  0.00    -0.001 A 
ATOM      8  C   UNL     1       5.746   0.931  -8.161  0.00  0.00    +0.010 A 
ATOM      9  C   UNL     1       5.979   1.633  -9.302  0.00  0.00    +0.001 A 
ATOM     10  C   UNL     1       5.042   1.756 -10.334  0.00  0.00    +0.002 A 
ATOM     11  C   UNL     1       3.803   1.203 -10.315  0.00  0.00    +0.026 A 
ATOM     12  C   UNL     1       3.440   0.447  -9.163  0.00  0.00    +0.043 A 
ATOM     13  N   UNL     1       2.330  -0.167  -8.876  0.00  0.00    -0.375 N 
ATOM     14  C   UNL     1       2.455  -0.742  -7.535  0.00  0.00    +0.131 C 
ATOM     15  C   UNL     1       2.273  -2.267  -7.556  0.00  0.00    +0.135 C 
ATOM     16  N   UNL     1       2.867  -2.804  -6.321  0.00  0.00    -0.264 N 
ATOM     17  C   UNL     1       2.277  -3.540  -5.370  0.00  0.00    +0.317 C 
ATOM     18  O   UNL     1       1.164  -4.017  -5.473  0.00  0.00    -0.252 OA
ATOM     19  H   UNL     1       1.552  -0.232  -9.451  0.00  0.00    +0.160 HD
ENDROOT
BRANCH   1  25
ATOM     20  C   UNL     1       2.036  -3.670  -2.088  0.00  0.00    +0.059 A 
ATOM     21  C   UNL     1       1.650  -4.358  -0.936  0.00  0.00    +0.015 A 
ATOM     22  C   UNL     1       1.898  -5.710  -0.827  0.00  0.00    +0.001 A 
ATOM     23  C   UNL     1       2.530  -6.390  -1.856  0.00  0.00    +0.002 A 
ATOM     24  C   UNL     1       2.917  -5.722  -3.000  0.00  0.00    +0.025 A 
ATOM     25  C   UNL     1       2.670  -4.362  -3.129  0.00  0.00    +0.058 A 
BRANCH  20  27
ATOM     26  N   UNL     1       1.163  -1.561  -1.208  0.00  0.00    -0.311 N 
ATOM     27  C   UNL     1       1.773  -2.223  -2.211  0.00  0.00    +0.246 C 
ATOM     28  O   UNL     1       2.106  -1.628  -3.218  0.00  0.00    -0.270 OA
ATOM     29  H   UNL     1       0.898  -2.036  -0.405  0.00  0.00    +0.149 HD
BRANCH  26  30
ATOM     30  C   UNL     1       0.902  -0.125  -1.330  0.00  0.00    +0.104 C 
BRANCH  30  32
ATOM     31  C   UNL     1      -0.066   1.877  -0.191  0.00  0.00    +0.005 C 
ATOM     32  C   UNL     1       0.207   0.377  -0.063  0.00  0.00    +0.015 C 
ENDBRANCH  30  32
ENDBRANCH  26  30
ENDBRANCH  20  27
ENDBRANCH   1  25
BRANCH  15  33
ATOM     33  C   UNL     1       2.986  -2.853  -8.748  0.00  0.00    -0.025 A 
ATOM     34  C   UNL     1       4.366  -2.813  -8.816  0.00  0.00    +0.006 A 
ATOM     35  C   UNL     1       5.019  -3.351  -9.909  0.00  0.00    +0.004 A 
ATOM     36  C   UNL     1       4.293  -3.930 -10.933  0.00  0.00    -0.045 A 
ATOM     37  C   UNL     1       2.913  -3.971 -10.864  0.00  0.00    +0.004 A 
ATOM     38  C   UNL     1       2.260  -3.437  -9.769  0.00  0.00    +0.006 A 
BRANCH  36  39
ATOM     39  C   UNL     1       5.006  -4.516 -12.124  0.00  0.00    +0.013 C 
ATOM     40  C   UNL     1       4.675  -6.006 -12.235  0.00  0.00    +0.012 C 
ATOM     41  C   UNL     1       4.550  -3.797 -13.396  0.00  0.00    +0.012 C 
ENDBRANCH  36  39
ENDBRANCH  15  33
TORSDOF 6
