REMARK  Name = ZINC36307999
REMARK  18 active torsions:
REMARK  status: ('A' for Active; 'I' for Inactive)
REMARK    1  A    between atoms: C_1  and  C_2
REMARK    2  A    between atoms: C_2  and  C_3
REMARK    3  A    between atoms: C_2  and  C_4
REMARK    4  A    between atoms: C_5  and  C_23
REMARK    5  A    between atoms: C_6  and  O_15
REMARK    6  A    between atoms: N_7  and  C_9
REMARK    7  A    between atoms: O_15  and  C_16
REMARK    8  A    between atoms: C_23  and  N_24
REMARK    9  A    between atoms: N_24  and  C_25
REMARK   10  A    between atoms: N_24  and  C_35
REMARK   11  A    between atoms: C_25  and  C_26
REMARK   12  A    between atoms: C_26  and  C_28
REMARK   13  A    between atoms: C_26  and  O_34
REMARK   14  A    between atoms: C_28  and  O_29
REMARK   15  A    between atoms: O_29  and  C_30
REMARK   16  A    between atoms: C_30  and  C_31
REMARK   17  A    between atoms: C_30  and  C_32
REMARK   18  A    between atoms: C_30  and  C_33
REMARK                            x       y       z     vdW  Elec       q    Type
REMARK                         _______ _______ _______ _____ _____    ______ ____
ROOT
ATOM      1  C   UNL     1       0.476  -0.398   0.711  0.00  0.00    +0.071 A 
ATOM      2  C   UNL     1       0.210  -1.427   1.619  0.00  0.00    +0.021 A 
ATOM      3  C   UNL     1       1.379  -1.759   2.229  0.00  0.00    +0.225 A 
ATOM      4  N   UNL     1       2.350  -0.958   1.714  0.00  0.00    -0.200 N 
ATOM      5  N   UNL     1       1.754  -0.121   0.762  0.00  0.00    -0.168 NA
ENDROOT
BRANCH   4   6
ATOM      6  C   UNL     1       3.706  -0.971   2.069  0.00  0.00    +0.069 A 
ATOM      7  C   UNL     1       4.075  -1.078   3.403  0.00  0.00    +0.028 A 
ATOM      8  C   UNL     1       5.412  -1.091   3.749  0.00  0.00    +0.002 A 
ATOM      9  C   UNL     1       6.383  -0.996   2.769  0.00  0.00    +0.000 A 
ATOM     10  C   UNL     1       6.018  -0.889   1.439  0.00  0.00    +0.002 A 
ATOM     11  C   UNL     1       4.683  -0.882   1.086  0.00  0.00    +0.028 A 
ENDBRANCH   4   6
BRANCH   1  13
ATOM     12  C   UNL     1      -0.581   1.770   0.134  0.00  0.00    +0.014 C 
ATOM     13  C   UNL     1      -0.536   0.273  -0.181  0.00  0.00    +0.034 C 
ATOM     14  C   UNL     1      -0.140   0.072  -1.645  0.00  0.00    +0.014 C 
ENDBRANCH   1  13
BRANCH   3  15
ATOM     15  O   UNL     1       1.547  -2.715   3.178  0.00  0.00    -0.438 OA
BRANCH  15  16
ATOM     16  C   UNL     1       1.346  -2.367   4.476  0.00  0.00    +0.133 A 
ATOM     17  C   UNL     1       0.888  -1.095   4.792  0.00  0.00    +0.046 A 
ATOM     18  C   UNL     1       0.684  -0.743   6.112  0.00  0.00    +0.006 A 
ATOM     19  C   UNL     1       0.936  -1.655   7.120  0.00  0.00    +0.038 A 
ATOM     20  C   UNL     1       1.393  -2.925   6.809  0.00  0.00    +0.127 A 
ATOM     21  C   UNL     1       1.593  -3.284   5.487  0.00  0.00    +0.084 A 
ATOM     22  F   UNL     1       1.639  -3.815   7.795  0.00  0.00    -0.205 F 
ENDBRANCH  15  16
ENDBRANCH   3  15
BRANCH   2  23
ATOM     23  C   UNL     1      -1.135  -2.057   1.878  0.00  0.00    -0.035 C 
BRANCH  23  24
ATOM     24  N   UNL     1      -1.322  -3.199   0.973  0.00  0.00    +0.386 N 
ATOM     25  H   UNL     1      -1.196  -2.896   0.018  0.00  0.00    -0.081 HD
BRANCH  24  26
ATOM     26  C   UNL     1      -0.338  -4.242   1.289  0.00  0.00    -0.068 C 
ATOM     27  C   UNL     1       0.832  -4.427   0.321  0.00  0.00    -0.017 C 
ATOM     28  C   UNL     1      -0.288  -5.468   0.375  0.00  0.00    -0.017 C 
ENDBRANCH  24  26
BRANCH  24  29
ATOM     29  C   UNL     1      -2.678  -3.739   1.140  0.00  0.00    -0.044 C 
BRANCH  29  30
ATOM     30  C   UNL     1      -3.702  -2.700   0.677  0.00  0.00    +0.124 C 
BRANCH  30  31
ATOM     31  O   UNL     1      -3.484  -2.399  -0.703  0.00  0.00    -0.391 OA
ATOM     32  H   UNL     1      -3.567  -3.163  -1.290  0.00  0.00    +0.210 HD
ENDBRANCH  30  31
BRANCH  30  33
ATOM     33  C   UNL     1      -5.114  -3.258   0.861  0.00  0.00    +0.189 C 
BRANCH  33  34
ATOM     34  O   UNL     1      -6.072  -2.248   0.539  0.00  0.00    -0.372 OA
BRANCH  34  35
ATOM     35  C   UNL     1      -7.430  -2.668   0.678  0.00  0.00    +0.061 C 
ATOM     36  C   UNL     1      -7.688  -3.089   2.126  0.00  0.00    +0.041 C 
ATOM     37  C   UNL     1      -8.362  -1.512   0.309  0.00  0.00    +0.041 C 
ATOM     38  C   UNL     1      -7.695  -3.854  -0.252  0.00  0.00    +0.041 C 
ENDBRANCH  34  35
ENDBRANCH  33  34
ENDBRANCH  30  33
ENDBRANCH  29  30
ENDBRANCH  24  29
ENDBRANCH  23  24
ENDBRANCH   2  23
TORSDOF 13
