REMARK  Name = ZINC39671661
REMARK  8 active torsions:
REMARK  status: ('A' for Active; 'I' for Inactive)
REMARK    1  A    between atoms: C_1  and  C_2
REMARK    2  A    between atoms: C_4  and  C_36
REMARK    3  A    between atoms: N_5  and  C_7
REMARK    4  A    between atoms: C_7  and  C_8
REMARK    5  A    between atoms: C_8  and  C_9
REMARK    6  A    between atoms: C_9  and  N_10
REMARK    7  A    between atoms: C_11  and  C_13
REMARK    8  A    between atoms: C_24  and  C_26
REMARK                            x       y       z     vdW  Elec       q    Type
REMARK                         _______ _______ _______ _____ _____    ______ ____
ROOT
ATOM      1  C   UNL     1       5.259  -6.737   3.985  0.00  0.00    +0.100 C 
ATOM      2  C   UNL     1       5.695  -5.455   4.728  0.00  0.00    +0.121 C 
ATOM      3  N   UNL     1       5.515  -5.774   6.164  0.00  0.00    -0.296 N 
ATOM      4  C   UNL     1       5.964  -7.182   6.287  0.00  0.00    +0.115 C 
ATOM      5  C   UNL     1       5.441  -7.869   5.011  0.00  0.00    -0.004 C 
ATOM      6  C   UNL     1       6.459  -8.885   4.502  0.00  0.00    -0.010 C 
ATOM      7  C   UNL     1       6.579 -10.030   5.512  0.00  0.00    -0.082 C 
ATOM      8  N   UNL     1       5.269 -10.667   5.690  0.00  0.00    +0.379 N 
ATOM      9  C   UNL     1       4.320  -9.708   6.267  0.00  0.00    -0.082 C 
ATOM     10  C   UNL     1       4.104  -8.550   5.289  0.00  0.00    -0.010 C 
ATOM     11  C   UNL     1       5.049  -4.967   7.137  0.00  0.00    +0.247 C 
ATOM     12  O   UNL     1       4.601  -3.873   6.857  0.00  0.00    -0.270 OA
ATOM     13  H   UNL     1       4.925 -10.982   4.795  0.00  0.00    -0.086 HD
ATOM     14  H   UNL     1       5.363 -11.459   6.308  0.00  0.00    -0.086 HD
ENDROOT
BRANCH  11  15
ATOM     15  C   UNL     1       5.083  -5.413   8.546  0.00  0.00    +0.037 A 
ATOM     16  C   UNL     1       5.978  -6.425   8.936  0.00  0.00    +0.013 A 
ATOM     17  C   UNL     1       6.028  -6.852  10.224  0.00  0.00    +0.009 A 
ATOM     18  C   UNL     1       5.178  -6.280  11.188  0.00  0.00    -0.018 A 
ATOM     19  C   UNL     1       5.211  -6.705  12.527  0.00  0.00    +0.008 A 
ATOM     20  C   UNL     1       4.376  -6.134  13.437  0.00  0.00    +0.001 A 
ATOM     21  C   UNL     1       3.485  -5.130  13.063  0.00  0.00    +0.001 A 
ATOM     22  C   UNL     1       3.423  -4.693  11.776  0.00  0.00    +0.008 A 
ATOM     23  C   UNL     1       4.271  -5.259  10.807  0.00  0.00    -0.017 A 
ATOM     24  C   UNL     1       4.237  -4.827   9.473  0.00  0.00    +0.021 A 
ENDBRANCH  11  15
BRANCH   1  26
ATOM     25  N   UNL     1       3.361  -7.367   2.529  0.00  0.00    -0.315 N 
ATOM     26  C   UNL     1       3.815  -6.636   3.566  0.00  0.00    +0.218 C 
ATOM     27  O   UNL     1       3.061  -5.897   4.163  0.00  0.00    -0.275 OA
ATOM     28  H   UNL     1       3.964  -7.958   2.051  0.00  0.00    +0.149 HD
BRANCH  25  29
ATOM     29  C   UNL     1       1.957  -7.268   2.121  0.00  0.00    +0.106 C 
BRANCH  29  30
ATOM     30  C   UNL     1       1.706  -8.193   0.929  0.00  0.00    +0.042 C 
BRANCH  30  31
ATOM     31  C   UNL     1       0.240  -8.090   0.503  0.00  0.00    +0.145 C 
BRANCH  31  36
ATOM     32  C   UNL     1      -0.160  -9.754  -4.215  0.00  0.00    +0.067 C 
ATOM     33  C   UNL     1      -0.169  -9.682  -2.710  0.00  0.00    +0.060 A 
ATOM     34  C   UNL     1      -0.498 -10.728  -1.841  0.00  0.00    +0.047 A 
ATOM     35  C   UNL     1      -0.386 -10.267  -0.574  0.00  0.00    +0.036 A 
ATOM     36  N   UNL     1      -0.001  -8.976  -0.638  0.00  0.00    -0.268 N 
ATOM     37  N   UNL     1       0.134  -8.633  -1.990  0.00  0.00    -0.176 NA
ATOM     38  C   UNL     1      -0.646 -11.055   0.684  0.00  0.00    +0.065 C 
ENDBRANCH  31  36
ENDBRANCH  30  31
ENDBRANCH  29  30
ENDBRANCH  25  29
ENDBRANCH   1  26
TORSDOF 6
