REMARK  Name = ZINC36500367
REMARK  9 active torsions:
REMARK  status: ('A' for Active; 'I' for Inactive)
REMARK    1  A    between atoms: C_3  and  C_6
REMARK    2  A    between atoms: C_6  and  N_7
REMARK    3  A    between atoms: N_7  and  C_8
REMARK    4  A    between atoms: C_8  and  C_10
REMARK    5  A    between atoms: C_8  and  C_19
REMARK    6  A    between atoms: C_13  and  N_16
REMARK    7  A    between atoms: N_21  and  C_22
REMARK    8  A    between atoms: C_28  and  C_30
REMARK    9  A    between atoms: C_33  and  O_36
REMARK                            x       y       z     vdW  Elec       q    Type
REMARK                         _______ _______ _______ _____ _____    ______ ____
ROOT
ATOM      1  C   UNL     1       3.322   0.098   3.071  0.00  0.00    +0.193 C 
ENDROOT
BRANCH   1   2
ATOM      2  C   UNL     1       3.912  -1.235   2.688  0.00  0.00    -0.018 A 
ATOM      3  C   UNL     1       4.076  -1.561   1.355  0.00  0.00    +0.008 A 
ATOM      4  C   UNL     1       4.617  -2.783   1.003  0.00  0.00    +0.033 A 
ATOM      5  C   UNL     1       4.994  -3.680   1.986  0.00  0.00    +0.126 A 
ATOM      6  C   UNL     1       4.831  -3.354   3.319  0.00  0.00    +0.033 A 
ATOM      7  C   UNL     1       4.294  -2.130   3.670  0.00  0.00    +0.008 A 
BRANCH   5   8
ATOM      8  N   UNL     1       5.573  -4.989   1.609  0.00  0.00    +0.056 N 
ATOM      9  O   UNL     1       5.716  -5.275   0.443  0.00  0.00    -0.126 OA
ATOM     10  O   UNL     1       5.903  -5.774   2.468  0.00  0.00    -0.126 OA
ENDBRANCH   5   8
ENDBRANCH   1   2
BRANCH   1  11
ATOM     11  C   UNL     1       2.242  -0.108   4.102  0.00  0.00    +0.238 C 
ATOM     12  O   UNL     1       1.081  -0.173   3.758  0.00  0.00    -0.273 OA
ATOM     13  N   UNL     1       2.567  -0.221   5.405  0.00  0.00    -0.311 N 
ATOM     14  H   UNL     1       3.495  -0.170   5.679  0.00  0.00    +0.149 HD
BRANCH  13  15
ATOM     15  C   UNL     1       1.517  -0.422   6.407  0.00  0.00    +0.073 C 
ATOM     16  C   UNL     1       0.940   0.934   6.819  0.00  0.00    +0.022 C 
ATOM     17  C   UNL     1      -0.157   0.725   7.865  0.00  0.00    +0.002 C 
ATOM     18  C   UNL     1       0.435   0.028   9.092  0.00  0.00    +0.000 C 
ATOM     19  C   UNL     1       1.012  -1.328   8.680  0.00  0.00    +0.002 C 
ATOM     20  C   UNL     1       2.108  -1.119   7.633  0.00  0.00    +0.022 C 
ENDBRANCH  13  15
ENDBRANCH   1  11
BRANCH   1  21
ATOM     21  N   UNL     1       2.749   0.737   1.884  0.00  0.00    -0.275 N 
ATOM     22  C   UNL     1       3.213   1.934   1.473  0.00  0.00    +0.248 C 
ATOM     23  O   UNL     1       2.806   2.420   0.436  0.00  0.00    -0.270 OA
BRANCH  22  24
ATOM     24  C   UNL     1       4.216   2.654   2.282  0.00  0.00    +0.037 A 
ATOM     25  C   UNL     1       5.391   2.009   2.678  0.00  0.00    +0.016 A 
ATOM     26  C   UNL     1       6.324   2.684   3.432  0.00  0.00    +0.046 A 
ATOM     27  C   UNL     1       6.100   4.005   3.800  0.00  0.00    +0.117 A 
ATOM     28  C   UNL     1       4.933   4.651   3.407  0.00  0.00    +0.046 A 
ATOM     29  C   UNL     1       3.997   3.984   2.648  0.00  0.00    +0.016 A 
BRANCH  27  30
ATOM     30  O   UNL     1       7.022   4.667   4.543  0.00  0.00    -0.507 OA
ATOM     31  H   UNL     1       7.689   5.132   4.020  0.00  0.00    +0.292 HD
ENDBRANCH  27  30
ENDBRANCH  22  24
BRANCH  21  32
ATOM     32  C   UNL     1       1.671   0.076   1.145  0.00  0.00    +0.183 C 
BRANCH  32  35
ATOM     33  C   UNL     1      -1.073   2.451   0.500  0.00  0.00    +0.041 A 
ATOM     34  C   UNL     1       0.128   1.811   0.115  0.00  0.00    +0.046 A 
ATOM     35  C   UNL     1       0.460   0.973   1.113  0.00  0.00    +0.122 A 
ATOM     36  O   UNL     1      -0.470   1.070   2.077  0.00  0.00    -0.466 OA
ATOM     37  C   UNL     1      -1.403   1.965   1.710  0.00  0.00    +0.195 A 
ENDBRANCH  32  35
ENDBRANCH  21  32
ENDBRANCH   1  21
TORSDOF 9
