REMARK  Name = ZINC13064552
REMARK  14 active torsions:
REMARK  status: ('A' for Active; 'I' for Inactive)
REMARK    1  A    between atoms: C_1  and  C_2
REMARK    2  A    between atoms: C_2  and  C_3
REMARK    3  A    between atoms: C_3  and  C_5
REMARK    4  A    between atoms: C_3  and  N_65
REMARK    5  A    between atoms: N_9  and  C_10
REMARK    6  A    between atoms: C_10  and  C_11
REMARK    7  A    between atoms: C_10  and  C_12
REMARK    8  A    between atoms: C_10  and  C_13
REMARK    9  A    between atoms: C_14  and  C_15
REMARK   10  A    between atoms: C_14  and  N_65
REMARK   11  A    between atoms: C_20  and  C_21
REMARK   12  A    between atoms: C_20  and  N_65
REMARK   13  A    between atoms: C_25  and  C_34
REMARK   14  A    between atoms: C_26  and  C_33
REMARK                            x       y       z     vdW  Elec       q    Type
REMARK                         _______ _______ _______ _____ _____    ______ ____
ROOT
ATOM      1  N   UNL     1      -5.666   3.900  -1.356  0.00  0.00    +0.392 N 
ATOM      2  H   UNL     1      -5.132   4.104  -2.209  0.00  0.00    -0.080 HD
ENDROOT
BRANCH   1   3
ATOM      3  C   UNL     1      -6.921   4.680  -1.378  0.00  0.00    +0.003 C 
BRANCH   3   4
ATOM      4  C   UNL     1      -6.630   6.046  -1.944  0.00  0.00    +0.139 A 
ATOM      5  N   UNL     1      -5.618   6.821  -1.637  0.00  0.00    -0.115 NA
ATOM      6  N   UNL     1      -5.720   7.902  -2.331  0.00  0.00    -0.023 NA
ATOM      7  N   UNL     1      -6.770   7.837  -3.072  0.00  0.00    -0.043 NA
ATOM      8  N   UNL     1      -7.356   6.706  -2.866  0.00  0.00    -0.226 N 
BRANCH   8   9
ATOM      9  C   UNL     1      -8.581   6.230  -3.512  0.00  0.00    +0.059 C 
ATOM     10  C   UNL     1      -9.616   5.873  -2.443  0.00  0.00    +0.036 C 
ATOM     11  C   UNL     1      -9.141   7.330  -4.416  0.00  0.00    +0.036 C 
ATOM     12  C   UNL     1      -8.267   4.990  -4.351  0.00  0.00    +0.036 C 
ENDBRANCH   8   9
ENDBRANCH   3   4
BRANCH   3  14
ATOM     13  C   UNL     1      -7.941   3.454   0.545  0.00  0.00    +0.002 C 
ATOM     14  C   UNL     1      -7.487   4.823   0.036  0.00  0.00    -0.011 C 
ENDBRANCH   3  14
ENDBRANCH   1   3
BRANCH   1  15
ATOM     15  C   UNL     1      -5.970   2.455  -1.313  0.00  0.00    -0.034 C 
BRANCH  15  16
ATOM     16  C   UNL     1      -6.706   2.073  -2.571  0.00  0.00    -0.027 A 
ATOM     17  C   UNL     1      -6.206   1.759  -3.791  0.00  0.00    +0.009 A 
ATOM     18  C   UNL     1      -7.081   1.436  -4.812  0.00  0.00    +0.008 A 
ATOM     19  C   UNL     1      -8.413   1.443  -4.562  0.00  0.00    +0.045 A 
ATOM     20  S   UNL     1      -8.464   1.910  -2.840  0.00  0.00    -0.103 S 
ENDBRANCH  15  16
ENDBRANCH   1  15
BRANCH   1  21
ATOM     21  C   UNL     1      -4.855   4.281  -0.180  0.00  0.00    -0.036 C 
BRANCH  21  22
ATOM     22  C   UNL     1      -3.427   3.866  -0.424  0.00  0.00    +0.001 A 
ATOM     23  C   UNL     1      -2.542   4.758  -0.933  0.00  0.00    +0.017 A 
ATOM     24  C   UNL     1      -1.163   4.322  -1.163  0.00  0.00    -0.001 A 
ATOM     25  C   UNL     1      -0.210   5.191  -1.702  0.00  0.00    +0.013 A 
ATOM     26  C   UNL     1       1.068   4.753  -1.905  0.00  0.00    -0.047 A 
ATOM     27  C   UNL     1       1.429   3.453  -1.580  0.00  0.00    -0.046 A 
ATOM     28  C   UNL     1       0.506   2.579  -1.048  0.00  0.00    +0.030 A 
ATOM     29  C   UNL     1      -0.803   3.001  -0.837  0.00  0.00    +0.049 A 
ATOM     30  N   UNL     1      -1.748   2.146  -0.311  0.00  0.00    -0.322 N 
ATOM     31  H   UNL     1      -1.497   1.237  -0.084  0.00  0.00    +0.169 HD
ATOM     32  C   UNL     1      -3.013   2.554  -0.109  0.00  0.00    +0.251 A 
ATOM     33  O   UNL     1      -3.823   1.771   0.357  0.00  0.00    -0.268 OA
ATOM     34  C   UNL     1       2.845   2.991  -1.813  0.00  0.00    +0.044 C 
ATOM     35  C   UNL     1       2.095   5.690  -2.486  0.00  0.00    +0.044 C 
ENDBRANCH  21  22
ENDBRANCH   1  21
TORSDOF 8
