REMARK  Name = ZINC65769624
REMARK  8 active torsions:
REMARK  status: ('A' for Active; 'I' for Inactive)
REMARK    1  A    between atoms: C_1  and  C_2
REMARK    2  A    between atoms: C_2  and  C_3
REMARK    3  A    between atoms: C_2  and  O_4
REMARK    4  A    between atoms: O_4  and  C_5
REMARK    5  A    between atoms: C_10  and  C_11
REMARK    6  A    between atoms: N_13  and  N_14
REMARK    7  A    between atoms: C_15  and  C_17
REMARK    8  A    between atoms: N_21  and  C_22
REMARK                            x       y       z     vdW  Elec       q    Type
REMARK                         _______ _______ _______ _____ _____    ______ ____
ROOT
ATOM      1  C   UNL     1       2.057  -1.212  -3.526  0.00  0.00    +0.264 C 
ATOM      2  O   UNL     1       0.845  -1.125  -3.584  0.00  0.00    -0.269 OA
ATOM      3  N   UNL     1       2.762  -1.539  -4.626  0.00  0.00    -0.230 N 
ATOM      4  H   UNL     1       3.729  -1.609  -4.580  0.00  0.00    +0.173 HD
ENDROOT
BRANCH   1  10
ATOM      5  C   UNL     1       2.024  -0.619  -1.104  0.00  0.00    +0.133 A 
ATOM      6  C   UNL     1       2.689  -0.389   0.092  0.00  0.00    +0.048 A 
ATOM      7  C   UNL     1       4.065  -0.489   0.149  0.00  0.00    +0.023 A 
ATOM      8  C   UNL     1       4.792  -0.820  -0.984  0.00  0.00    +0.042 A 
ATOM      9  C   UNL     1       4.146  -1.052  -2.181  0.00  0.00    +0.036 A 
ATOM     10  C   UNL     1       2.754  -0.959  -2.250  0.00  0.00    +0.081 A 
ATOM     11 CL   UNL     1       6.521  -0.942  -0.897  0.00  0.00    -0.084 Cl
BRANCH   5  12
ATOM     12  O   UNL     1       0.672  -0.520  -1.161  0.00  0.00    -0.489 OA
BRANCH  12  14
ATOM     13  C   UNL     1       0.033   1.436   0.107  0.00  0.00    +0.051 C 
ATOM     14  C   UNL     1       0.002  -0.092   0.026  0.00  0.00    +0.167 C 
ATOM     15  C   UNL     1      -1.450  -0.572  -0.006  0.00  0.00    +0.051 C 
ENDBRANCH  12  14
ENDBRANCH   5  12
ENDBRANCH   1  10
BRANCH   3  16
ATOM     16  N   UNL     1       2.100  -1.779  -5.837  0.00  0.00    -0.229 N 
ATOM     17  C   UNL     1       2.806  -2.106  -6.938  0.00  0.00    +0.277 C 
ATOM     18  O   UNL     1       4.007  -2.284  -6.860  0.00  0.00    -0.267 OA
ATOM     19  H   UNL     1       1.134  -1.710  -5.883  0.00  0.00    +0.173 HD
BRANCH  17  20
ATOM     20  C   UNL     1       2.126  -2.249  -8.230  0.00  0.00    +0.106 A 
ATOM     21  C   UNL     1       0.765  -2.182  -8.446  0.00  0.00    +0.032 A 
ATOM     22  C   UNL     1       0.558  -2.369  -9.816  0.00  0.00    +0.020 A 
ATOM     23  C   UNL     1       1.768  -2.544 -10.400  0.00  0.00    +0.086 A 
ATOM     24  N   UNL     1       2.729  -2.467  -9.447  0.00  0.00    -0.346 N 
ATOM     25  C   UNL     1       4.170  -2.598  -9.675  0.00  0.00    +0.149 C 
ENDBRANCH  17  20
ENDBRANCH   3  16
TORSDOF 5
