REMARK  Name = ZINC19297374
REMARK  7 active torsions:
REMARK  status: ('A' for Active; 'I' for Inactive)
REMARK    1  A    between atoms: C_1  and  C_2
REMARK    2  A    between atoms: N_13  and  C_24
REMARK    3  A    between atoms: C_14  and  S_16
REMARK    4  A    between atoms: S_16  and  C_17
REMARK    5  A    between atoms: C_17  and  C_19
REMARK    6  A    between atoms: C_17  and  C_20
REMARK    7  A    between atoms: N_22  and  C_23
REMARK                            x       y       z     vdW  Elec       q    Type
REMARK                         _______ _______ _______ _____ _____    ______ ____
ROOT
ATOM      1  C   UNL     1       4.933  -6.565   0.316  0.00  0.00    +0.008 C 
ATOM      2  C   UNL     1       4.525  -5.138  -0.056  0.00  0.00    -0.009 C 
ATOM      3  C   UNL     1       3.344  -4.698   0.814  0.00  0.00    +0.008 C 
ATOM      4  C   UNL     1       2.773  -3.381   0.288  0.00  0.00    +0.037 C 
ATOM      5  C   UNL     1       3.909  -2.369   0.156  0.00  0.00    -0.023 A 
ATOM      6  C   UNL     1       5.193  -2.777   0.119  0.00  0.00    -0.004 A 
ATOM      7  S   UNL     1       6.144  -1.289  -0.036  0.00  0.00    -0.073 S 
ATOM      8  C   UNL     1       4.809  -0.120  -0.051  0.00  0.00    +0.117 A 
ATOM      9  C   UNL     1       3.666  -0.928   0.066  0.00  0.00    +0.076 A 
ATOM     10  C   UNL     1       2.413  -0.238   0.082  0.00  0.00    +0.268 A 
ATOM     11  O   UNL     1       1.367  -0.857   0.180  0.00  0.00    -0.267 OA
ATOM     12  N   UNL     1       2.404   1.105  -0.014  0.00  0.00    -0.255 N 
ATOM     13  C   UNL     1       3.566   1.814  -0.131  0.00  0.00    +0.178 A 
ATOM     14  N   UNL     1       4.733   1.203  -0.142  0.00  0.00    -0.215 NA
ATOM     15  C   UNL     1       5.702  -4.184   0.193  0.00  0.00    +0.046 C 
ENDROOT
BRANCH  12  16
ATOM     16  C   UNL     1       1.180   1.787   0.000  0.00  0.00    +0.052 A 
ATOM     17  C   UNL     1       0.636   2.215   1.204  0.00  0.00    +0.028 A 
ATOM     18  C   UNL     1      -0.572   2.883   1.216  0.00  0.00    +0.022 A 
ATOM     19  C   UNL     1      -1.236   3.135   0.029  0.00  0.00    +0.041 A 
ATOM     20  C   UNL     1      -0.697   2.710  -1.173  0.00  0.00    +0.022 A 
ATOM     21  C   UNL     1       0.509   2.037  -1.189  0.00  0.00    +0.028 A 
ATOM     22 CL   UNL     1      -2.753   3.980   0.047  0.00  0.00    -0.084 Cl
ENDBRANCH  12  16
BRANCH  13  23
ATOM     23  S   UNL     1       3.503   3.570  -0.261  0.00  0.00    -0.075 S 
BRANCH  23  24
ATOM     24  C   UNL     1       5.271   3.940  -0.385  0.00  0.00    +0.137 C 
ATOM     25  C   UNL     1       5.825   3.350  -1.683  0.00  0.00    +0.029 C 
BRANCH  24  26
ATOM     26  C   UNL     1       5.473   5.433  -0.385  0.00  0.00    +0.226 C 
ATOM     27  O   UNL     1       4.553   6.170  -0.672  0.00  0.00    -0.275 OA
ATOM     28  N   UNL     1       6.676   5.951  -0.066  0.00  0.00    -0.317 N 
ATOM     29  C   UNL     1       6.872   7.402  -0.066  0.00  0.00    +0.128 C 
ATOM     30  H   UNL     1       7.510   5.283   0.194  0.00  0.00    +0.148 HD
ENDBRANCH  24  26
ENDBRANCH  23  24
ENDBRANCH  13  23
TORSDOF 4
