REMARK  Name = ZINC39692933
REMARK  11 active torsions:
REMARK  status: ('A' for Active; 'I' for Inactive)
REMARK    1  A    between atoms: C_1  and  C_2
REMARK    2  A    between atoms: C_2  and  C_3
REMARK    3  A    between atoms: C_3  and  N_4
REMARK    4  A    between atoms: N_4  and  C_5
REMARK    5  A    between atoms: C_9  and  S_12
REMARK    6  A    between atoms: S_12  and  C_13
REMARK    7  A    between atoms: C_13  and  C_14
REMARK    8  A    between atoms: N_16  and  CA_17
REMARK    9  A    between atoms: CA_17  and  CB_19
REMARK   10  A    between atoms: CA_17  and  C_29
REMARK   11  A    between atoms: CB_19  and  CG_20
REMARK                            x       y       z     vdW  Elec       q    Type
REMARK                         _______ _______ _______ _____ _____    ______ ____
ROOT
ATOM      1  C   UNK A   0      -8.196  -3.252  -1.951  0.00  0.00    +0.224 C 
ATOM      2  O   UNK A   0      -8.487  -3.795  -2.996  0.00  0.00    -0.275 OA
ATOM      3  N   TRP A   1      -9.158  -2.686  -1.196  0.00  0.00    -0.301 N 
ATOM      4  H   TRP A   1      -8.925  -2.251  -0.360  0.00  0.00    +0.150 HD
ENDROOT
BRANCH   1   5
ATOM      5  C   UNK A   0      -6.760  -3.211  -1.498  0.00  0.00    +0.167 C 
BRANCH   5   6
ATOM      6  S   UNK A   0      -5.715  -4.052  -2.720  0.00  0.00    -0.121 S 
BRANCH   6  10
ATOM      7  C   UNK A   0      -2.792  -2.511   0.015  0.00  0.00    +0.074 C 
ATOM      8  N   UNK A   0      -2.812  -4.000   0.049  0.00  0.00    -0.259 NA
ATOM      9  N   UNK A   0      -3.954  -4.543  -0.678  0.00  0.00    -0.235 NA
ATOM     10  C   UNK A   0      -4.041  -3.916  -2.034  0.00  0.00    +0.184 C 
ATOM     11  S   UNK A   0      -3.634  -2.171  -1.588  0.00  0.00    -0.130 S 
ATOM     12  H   UNK A   0      -1.946  -4.381  -0.301  0.00  0.00    +0.140 HD
ATOM     13  H   UNK A   0      -3.894  -5.548  -0.747  0.00  0.00    +0.143 HD
BRANCH   7  14
ATOM     14  N   UNK A   0      -1.413  -2.002   0.005  0.00  0.00    +0.396 N 
ATOM     15  H   UNK A   0      -0.941  -2.328  -0.825  0.00  0.00    -0.082 HD
ATOM     16  H   UNK A   0      -0.925  -2.337   0.822  0.00  0.00    -0.082 HD
BRANCH  14  17
ATOM     17  C   UNK A   0      -1.433  -0.534   0.013  0.00  0.00    -0.079 C 
BRANCH  17  19
ATOM     18  C   UNK A   0      -0.019   1.526   0.010  0.00  0.00    +0.002 C 
ATOM     19  C   UNK A   0       0.002  -0.004   0.002  0.00  0.00    -0.022 C 
ENDBRANCH  17  19
ENDBRANCH  14  17
ENDBRANCH   7  14
ENDBRANCH   6  10
ENDBRANCH   5   6
ENDBRANCH   1   5
BRANCH   3  20
ATOM     20  CA  TRP A   1     -10.554  -2.725  -1.637  0.00  0.00    +0.191 C 
BRANCH  20  21
ATOM     21  C   TRP A   1     -10.817  -1.577  -2.576  0.00  0.00    +0.376 C 
ATOM     22  O   TRP A   1     -11.654  -1.688  -3.456  0.00  0.00    -0.244 OA
ATOM     23  OXT TRP A   1     -10.194  -0.536  -2.457  0.00  0.00    -0.244 OA
ENDBRANCH  20  21
BRANCH  20  24
ATOM     24  CB  TRP A   1     -11.476  -2.611  -0.421  0.00  0.00    +0.071 C 
BRANCH  24  25
ATOM     25  CG  TRP A   1     -11.301  -3.823   0.458  0.00  0.00    -0.020 A 
ATOM     26  CD2 TRP A   1     -10.281  -4.008   1.493  0.00  0.00    +0.003 A 
ATOM     27  CE3 TRP A   1      -9.234  -3.221   1.975  0.00  0.00    +0.010 A 
ATOM     28  CZ3 TRP A   1      -8.436  -3.694   2.979  0.00  0.00    +0.001 A 
ATOM     29  CH2 TRP A   1      -8.659  -4.951   3.524  0.00  0.00    +0.002 A 
ATOM     30  CZ2 TRP A   1      -9.687  -5.744   3.063  0.00  0.00    +0.026 A 
ATOM     31  CE2 TRP A   1     -10.511  -5.283   2.042  0.00  0.00    +0.047 A 
ATOM     32  NE1 TRP A   1     -11.593  -5.820   1.381  0.00  0.00    -0.360 N 
ATOM     33  CD1 TRP A   1     -12.053  -4.934   0.445  0.00  0.00    +0.087 A 
ATOM     34  HE1 TRP A   1     -11.974  -6.695   1.555  0.00  0.00    +0.165 HD
ENDBRANCH  24  25
ENDBRANCH  20  24
ENDBRANCH   3  20
TORSDOF 10
