REMARK  Name = ZINC33326754
REMARK  6 active torsions:
REMARK  status: ('A' for Active; 'I' for Inactive)
REMARK    1  A    between atoms: C_1  and  C_2
REMARK    2  A    between atoms: C_6  and  N_8
REMARK    3  A    between atoms: N_8  and  C_9
REMARK    4  A    between atoms: N_15  and  C_16
REMARK    5  A    between atoms: C_19  and  N_22
REMARK    6  A    between atoms: N_25  and  C_26
REMARK                            x       y       z     vdW  Elec       q    Type
REMARK                         _______ _______ _______ _____ _____    ______ ____
ROOT
ATOM      1  C   UNL     1       4.709  -6.856  -0.458  0.00  0.00    +0.032 A 
ATOM      2  C   UNL     1       5.761  -6.014  -0.793  0.00  0.00    +0.025 A 
ATOM      3  C   UNL     1       5.540  -4.659  -0.945  0.00  0.00    +0.025 A 
ATOM      4  C   UNL     1       4.265  -4.140  -0.763  0.00  0.00    +0.035 A 
ATOM      5  C   UNL     1       3.214  -4.981  -0.422  0.00  0.00    +0.025 A 
ATOM      6  C   UNL     1       3.434  -6.336  -0.275  0.00  0.00    +0.025 A 
ENDROOT
BRANCH   1  14
ATOM      7  C   UNL     1       3.828 -12.445   1.692  0.00  0.00    +0.086 C 
ATOM      8  C   UNL     1       3.707 -10.943   1.669  0.00  0.00    +0.107 A 
ATOM      9  N   UNL     1       4.338 -10.264   0.733  0.00  0.00    -0.332 N 
ATOM     10  C   UNL     1       4.261  -8.936   0.682  0.00  0.00    +0.105 A 
ATOM     11  C   UNL     1       3.491  -8.267   1.629  0.00  0.00    +0.085 A 
ATOM     12  C   UNL     1       2.836  -9.022   2.598  0.00  0.00    +0.124 A 
ATOM     13  N   UNL     1       2.968 -10.347   2.583  0.00  0.00    -0.220 NA
ATOM     14  N   UNL     1       4.933  -8.229  -0.304  0.00  0.00    -0.301 N 
ATOM     15  H   UNL     1       5.643  -8.748  -0.965  0.00  0.00    +0.154 HD
ATOM     16  H   UNL     1       4.938 -10.795  -0.021  0.00  0.00    +0.168 HD
BRANCH  12  17
ATOM     17  N   UNL     1       2.057  -8.403   3.563  0.00  0.00    -0.326 N 
ATOM     18  H   UNL     1       1.542  -9.007   4.325  0.00  0.00    +0.148 HD
BRANCH  17  19
ATOM     19  C   UNL     1       1.918  -6.945   3.568  0.00  0.00    +0.072 C 
ATOM     20  C   UNL     1       3.092  -6.324   4.328  0.00  0.00    +0.022 C 
ATOM     21  C   UNL     1       2.947  -4.800   4.334  0.00  0.00    +0.002 C 
ATOM     22  C   UNL     1       1.635  -4.415   5.020  0.00  0.00    +0.000 C 
ATOM     23  C   UNL     1       0.461  -5.037   4.260  0.00  0.00    +0.002 C 
ATOM     24  C   UNL     1       0.606  -6.560   4.254  0.00  0.00    +0.022 C 
ENDBRANCH  17  19
ENDBRANCH  12  17
ENDBRANCH   1  14
BRANCH   4  25
ATOM     25  N   UNL     1       4.040  -2.765  -0.918  0.00  0.00    -0.269 N 
ATOM     26  C   UNL     1       4.977  -1.880  -0.523  0.00  0.00    +0.308 C 
ATOM     27  O   UNL     1       6.047  -2.275  -0.101  0.00  0.00    -0.252 OA
ATOM     28  N   UNL     1       4.728  -0.558  -0.596  0.00  0.00    -0.269 N 
ATOM     29  H   UNL     1       3.099  -2.408  -1.361  0.00  0.00    +0.156 HD
ATOM     30  H   UNL     1       3.738  -0.201  -0.915  0.00  0.00    +0.156 HD
BRANCH  28  31
ATOM     31  C   UNL     1       5.732   0.363  -0.267  0.00  0.00    +0.038 A 
ATOM     32  C   UNL     1       6.616   0.086   0.767  0.00  0.00    +0.027 A 
ATOM     33  C   UNL     1       7.605   0.994   1.093  0.00  0.00    +0.051 A 
ATOM     34  C   UNL     1       7.718   2.184   0.390  0.00  0.00    +0.162 A 
ATOM     35  C   UNL     1       6.835   2.463  -0.647  0.00  0.00    +0.164 A 
ATOM     36  C   UNL     1       5.842   1.552  -0.973  0.00  0.00    +0.072 A 
ATOM     37  O   UNL     1       6.936   3.622  -1.354  0.00  0.00    -0.485 OA
ATOM     38  C   UNL     1       7.702   4.675  -0.760  0.00  0.00    +0.270 C 
ATOM     39  C   UNL     1       9.015   4.077  -0.236  0.00  0.00    +0.270 C 
ATOM     40  O   UNL     1       8.693   3.071   0.732  0.00  0.00    -0.485 OA
ENDBRANCH  28  31
ENDBRANCH   4  25
TORSDOF 5
