REMARK  Name = ZINC23968687
REMARK  9 active torsions:
REMARK  status: ('A' for Active; 'I' for Inactive)
REMARK    1  A    between atoms: C_1  and  C_2
REMARK    2  A    between atoms: C_2  and  C_4
REMARK    3  A    between atoms: C_2  and  N_32
REMARK    4  A    between atoms: C_7  and  S_16
REMARK    5  A    between atoms: N_8  and  C_9
REMARK    6  A    between atoms: S_16  and  C_17
REMARK    7  A    between atoms: C_17  and  C_18
REMARK    8  A    between atoms: N_32  and  C_33
REMARK    9  A    between atoms: N_32  and  C_34
REMARK                            x       y       z     vdW  Elec       q    Type
REMARK                         _______ _______ _______ _____ _____    ______ ____
ROOT
ATOM      1  C   UNL     1       0.820  -6.687  -1.717  0.00  0.00    +0.125 A 
ATOM      2  N   UNL     1       0.845  -6.400  -0.446  0.00  0.00    -0.135 NA
ATOM      3  N   UNL     1       0.905  -5.127  -0.280  0.00  0.00    -0.122 NA
ATOM      4  C   UNL     1       0.923  -4.525  -1.447  0.00  0.00    +0.196 A 
ATOM      5  N   UNL     1       0.864  -5.502  -2.402  0.00  0.00    -0.275 N 
ENDROOT
BRANCH   5   6
ATOM      6  C   UNL     1       0.853  -5.327  -3.795  0.00  0.00    +0.050 A 
ATOM      7  C   UNL     1      -0.263  -5.697  -4.533  0.00  0.00    +0.029 A 
ATOM      8  C   UNL     1      -0.274  -5.518  -5.902  0.00  0.00    +0.040 A 
ATOM      9  C   UNL     1       0.832  -4.982  -6.540  0.00  0.00    +0.124 A 
ATOM     10  C   UNL     1       1.948  -4.617  -5.806  0.00  0.00    +0.040 A 
ATOM     11  C   UNL     1       1.960  -4.789  -4.436  0.00  0.00    +0.029 A 
ATOM     12  F   UNL     1       0.822  -4.813  -7.881  0.00  0.00    -0.205 F 
ENDBRANCH   5   6
BRANCH   1  14
ATOM     13  C   UNL     1       2.115  -8.747  -2.196  0.00  0.00    -0.005 C 
ATOM     14  C   UNL     1       0.750  -8.066  -2.320  0.00  0.00    -0.003 C 
BRANCH  14  15
ATOM     15  N   UNL     1      -0.260  -8.861  -1.610  0.00  0.00    +0.382 N 
ATOM     16  C   UNL     1      -0.441 -10.173  -2.246  0.00  0.00    -0.096 C 
ATOM     17  C   UNL     1       0.088  -9.008  -0.190  0.00  0.00    -0.096 C 
ATOM     18  H   UNL     1      -1.217  -8.322  -1.670  0.00  0.00    -0.082 HD
ENDBRANCH  14  15
ENDBRANCH   1  14
BRANCH   4  19
ATOM     19  S   UNL     1       1.000  -2.788  -1.728  0.00  0.00    -0.078 S 
BRANCH  19  20
ATOM     20  C   UNL     1       1.043  -2.194  -0.019  0.00  0.00    +0.151 C 
BRANCH  20  21
ATOM     21  C   UNL     1       1.112  -0.689  -0.011  0.00  0.00    +0.122 A 
ATOM     22  N   UNL     1       2.320  -0.089  -0.019  0.00  0.00    -0.337 N 
ATOM     23  H   UNL     1       3.236  -0.698  -0.030  0.00  0.00    +0.168 HD
ATOM     24  C   UNL     1       2.412   1.266  -0.014  0.00  0.00    +0.092 A 
ATOM     25  C   UNL     1       1.271   2.068   0.001  0.00  0.00    +0.075 A 
ATOM     26  C   UNL     1       1.499   3.521   0.007  0.00  0.00    -0.023 A 
ATOM     27  C   UNL     1       2.778   3.934  -0.005  0.00  0.00    -0.004 A 
ATOM     28  S   UNL     1       3.740   2.438  -0.023  0.00  0.00    -0.075 S 
ATOM     29  C   UNL     1       2.892   5.434  -0.001  0.00  0.00    +0.043 C 
ATOM     30  C   UNL     1       1.491   5.930  -0.421  0.00  0.00    +0.010 C 
ATOM     31  C   UNL     1       0.596   4.758   0.027  0.00  0.00    +0.037 C 
ATOM     32  C   UNL     1      -0.016   1.338   0.009  0.00  0.00    +0.282 A 
ATOM     33  O   UNL     1      -1.075   1.945   0.018  0.00  0.00    -0.265 OA
ATOM     34  N   UNL     1       0.002  -0.004   0.002  0.00  0.00    -0.195 NA
ENDBRANCH  20  21
ENDBRANCH  19  20
ENDBRANCH   4  19
TORSDOF 6
