REMARK  Name = ZINC59097636
REMARK  7 active torsions:
REMARK  status: ('A' for Active; 'I' for Inactive)
REMARK    1  A    between atoms: C_4  and  N_8
REMARK    2  A    between atoms: N_8  and  C_9
REMARK    3  A    between atoms: C_9  and  N_11
REMARK    4  A    between atoms: N_11  and  C_12
REMARK    5  A    between atoms: N_11  and  C_20
REMARK    6  A    between atoms: C_12  and  C_13
REMARK    7  A    between atoms: C_20  and  C_21
REMARK                            x       y       z     vdW  Elec       q    Type
REMARK                         _______ _______ _______ _____ _____    ______ ____
ROOT
ATOM      1  N   UNL     1       4.824  -2.645   0.143  0.00  0.00    -0.310 N 
ENDROOT
BRANCH   1   2
ATOM      2  C   UNL     1       3.646  -1.996   0.057  0.00  0.00    +0.137 C 
ATOM      3  S   UNL     1       2.179  -2.879   0.067  0.00  0.00    -0.018 S 
BRANCH   2   4
ATOM      4  N   UNL     1       3.623  -0.652  -0.037  0.00  0.00    -0.296 N 
ATOM      5  H   UNL     1       4.452  -0.157  -0.123  0.00  0.00    +0.154 HD
BRANCH   4   9
ATOM      6  C   UNL     1      -0.016   1.380   0.038  0.00  0.00    +0.021 A 
ATOM      7  C   UNL     1       0.951   1.730  -0.887  0.00  0.00    +0.023 A 
ATOM      8  C   UNL     1       2.158   1.059  -0.915  0.00  0.00    +0.062 A 
ATOM      9  C   UNL     1       2.401   0.031  -0.011  0.00  0.00    +0.053 A 
ATOM     10  C   UNL     1       1.429  -0.318   0.916  0.00  0.00    +0.044 A 
ATOM     11  C   UNL     1       0.223   0.357   0.939  0.00  0.00    +0.043 A 
ATOM     12 CL   UNL     1      -0.993  -0.078   2.099  0.00  0.00    -0.083 Cl
ATOM     13 CL   UNL     1       3.370   1.498  -2.078  0.00  0.00    -0.082 Cl
ENDBRANCH   4   9
ENDBRANCH   2   4
ENDBRANCH   1   2
BRANCH   1  14
ATOM     14  C   UNL     1       4.849  -4.106   0.245  0.00  0.00    +0.110 C 
BRANCH  14  15
ATOM     15  C   UNL     1       4.907  -4.715  -1.157  0.00  0.00    +0.010 C 
ATOM     16  C   UNL     1       4.819  -6.243  -1.060  0.00  0.00    +0.009 C 
ATOM     17  C   UNL     1       4.700  -6.812  -2.476  0.00  0.00    +0.027 C 
ATOM     18  C   UNL     1       5.758  -6.221  -3.361  0.00  0.00    -0.031 C 
ATOM     19  C   UNL     1       6.423  -5.147  -3.079  0.00  0.00    -0.031 C 
ATOM     20  C   UNL     1       6.234  -4.344  -1.824  0.00  0.00    +0.032 C 
ENDBRANCH  14  15
ENDBRANCH   1  14
BRANCH   1  21
ATOM     21  C   UNL     1       6.079  -1.890   0.134  0.00  0.00    +0.138 C 
BRANCH  21  22
ATOM     22  C   UNL     1       6.466  -1.527   1.569  0.00  0.00    +0.136 C 
ATOM     23  C   UNL     1       7.721  -0.628   1.561  0.00  0.00    +0.035 C 
ATOM     24  C   UNL     1       8.518  -1.164   2.782  0.00  0.00    +0.031 C 
ATOM     25  C   UNL     1       8.159  -2.671   2.728  0.00  0.00    +0.160 C 
ATOM     26  O   UNL     1       6.787  -2.715   2.301  0.00  0.00    -0.375 OA
ENDBRANCH  21  22
ENDBRANCH   1  21
TORSDOF 7
