REMARK  Name = ZINC14805627
REMARK  9 active torsions:
REMARK  status: ('A' for Active; 'I' for Inactive)
REMARK    1  A    between atoms: C_4  and  C_7
REMARK    2  A    between atoms: C_10  and  C_12
REMARK    3  A    between atoms: C_12  and  C_13
REMARK    4  A    between atoms: C_13  and  C_14
REMARK    5  A    between atoms: N_16  and  N_17
REMARK    6  A    between atoms: C_18  and  C_20
REMARK    7  A    between atoms: C_25  and  N_26
REMARK    8  A    between atoms: N_26  and  S_27
REMARK    9  A    between atoms: S_27  and  C_30
REMARK                            x       y       z     vdW  Elec       q    Type
REMARK                         _______ _______ _______ _____ _____    ______ ____
ROOT
ATOM      1  N   UNL     1      -0.859  -0.746  -0.282  0.00  0.00    -0.230 N 
ATOM      2  C   UNL     1      -0.951  -2.087  -0.193  0.00  0.00    +0.262 C 
ATOM      3  O   UNL     1       0.054  -2.758  -0.057  0.00  0.00    -0.269 OA
ATOM      4  H   UNL     1      -1.661  -0.211  -0.391  0.00  0.00    +0.173 HD
ENDROOT
BRANCH   2   5
ATOM      5  C   UNL     1      -2.270  -2.742  -0.260  0.00  0.00    +0.060 A 
ATOM      6  C   UNL     1      -3.429  -1.975  -0.411  0.00  0.00    +0.015 A 
ATOM      7  C   UNL     1      -4.658  -2.592  -0.477  0.00  0.00    +0.001 A 
ATOM      8  C   UNL     1      -4.755  -3.972  -0.386  0.00  0.00    +0.002 A 
ATOM      9  C   UNL     1      -3.621  -4.743  -0.233  0.00  0.00    +0.025 A 
ATOM     10  C   UNL     1      -2.371  -4.139  -0.168  0.00  0.00    +0.060 A 
BRANCH  10  11
ATOM     11  N   UNL     1      -1.229  -4.912  -0.013  0.00  0.00    -0.215 N 
ATOM     12  H   UNL     1      -0.488  -4.583   0.520  0.00  0.00    +0.174 HD
BRANCH  11  13
ATOM     13  S   UNL     1      -1.129  -6.397  -0.740  0.00  0.00    +0.079 S 
ATOM     14  O   UNL     1       0.190  -6.873  -0.513  0.00  0.00    -0.149 OA
ATOM     15  O   UNL     1      -2.282  -7.125  -0.337  0.00  0.00    -0.149 OA
BRANCH  13  16
ATOM     16  C   UNL     1      -1.280  -6.139  -2.477  0.00  0.00    +0.146 A 
ATOM     17  C   UNL     1      -0.307  -5.907  -3.392  0.00  0.00    +0.036 A 
ATOM     18  C   UNL     1      -0.662  -5.732  -4.717  0.00  0.00    +0.010 A 
ATOM     19  C   UNL     1      -1.972  -5.798  -5.061  0.00  0.00    +0.047 A 
ATOM     20  S   UNL     1      -2.751  -6.121  -3.488  0.00  0.00    -0.077 S 
ENDBRANCH  13  16
ENDBRANCH  11  13
ENDBRANCH  10  11
ENDBRANCH   2   5
BRANCH   1  23
ATOM     21  C   UNL     1       0.487   1.218  -0.307  0.00  0.00    +0.229 C 
ATOM     22  O   UNL     1      -0.515   1.886  -0.448  0.00  0.00    -0.274 OA
ATOM     23  N   UNL     1       0.395  -0.124  -0.218  0.00  0.00    -0.234 N 
ATOM     24  H   UNL     1       1.197  -0.659  -0.110  0.00  0.00    +0.173 HD
BRANCH  21  25
ATOM     25  C   UNL     1       1.836   1.887  -0.238  0.00  0.00    +0.105 C 
BRANCH  25  26
ATOM     26  C   UNL     1       1.661   3.401  -0.363  0.00  0.00    +0.083 C 
BRANCH  26  30
ATOM     27  C   UNL     1       4.806   5.043   0.510  0.00  0.00    +0.135 A 
ATOM     28  C   UNL     1       4.963   4.965  -0.838  0.00  0.00    +0.050 A 
ATOM     29  C   UNL     1       3.807   4.340  -1.346  0.00  0.00    +0.045 A 
ATOM     30  C   UNL     1       3.010   4.070  -0.294  0.00  0.00    +0.106 A 
ATOM     31  O   UNL     1       3.613   4.501   0.825  0.00  0.00    -0.460 OA
BRANCH  27  35
ATOM     32  C   UNL     1       7.583   6.720   3.252  0.00  0.00    +0.000 A 
ATOM     33  C   UNL     1       6.392   6.189   3.715  0.00  0.00    +0.001 A 
ATOM     34  C   UNL     1       5.486   5.643   2.830  0.00  0.00    +0.011 A 
ATOM     35  C   UNL     1       5.772   5.626   1.464  0.00  0.00    +0.017 A 
ATOM     36  C   UNL     1       6.978   6.158   1.004  0.00  0.00    +0.011 A 
ATOM     37  C   UNL     1       7.873   6.707   1.899  0.00  0.00    +0.001 A 
ENDBRANCH  27  35
ENDBRANCH  26  30
ENDBRANCH  25  26
ENDBRANCH  21  25
ENDBRANCH   1  23
TORSDOF 9
