REMARK  Name = ZINC58754184
REMARK  9 active torsions:
REMARK  status: ('A' for Active; 'I' for Inactive)
REMARK    1  A    between atoms: C_1  and  C_2
REMARK    2  A    between atoms: C_2  and  C_4
REMARK    3  A    between atoms: C_2  and  N_14
REMARK    4  A    between atoms: C_15  and  C_17
REMARK    5  A    between atoms: C_17  and  N_18
REMARK    6  A    between atoms: N_21  and  S_24
REMARK    7  A    between atoms: S_24  and  N_27
REMARK    8  A    between atoms: N_27  and  C_28
REMARK    9  A    between atoms: N_27  and  C_29
REMARK                            x       y       z     vdW  Elec       q    Type
REMARK                         _______ _______ _______ _____ _____    ______ ____
ROOT
ATOM      1  C   UNL     1      -3.465  -1.164  -1.134  0.00  0.00    +0.180 C 
ENDROOT
BRANCH   1   2
ATOM      2  N   UNL     1      -3.979  -1.213  -2.509  0.00  0.00    -0.291 NA
ATOM      3  C   UNL     1      -4.101   0.138  -3.074  0.00  0.00    +0.102 C 
ATOM      4  C   UNL     1      -4.465   0.036  -4.559  0.00  0.00    +0.126 C 
ATOM      5  N   UNL     1      -5.665  -0.804  -4.689  0.00  0.00    -0.164 NA
ATOM      6  C   UNL     1      -5.669  -2.120  -4.032  0.00  0.00    +0.126 C 
ATOM      7  C   UNL     1      -5.258  -1.933  -2.567  0.00  0.00    +0.102 C 
BRANCH   5   8
ATOM      8  S   UNL     1      -6.978  -0.283  -5.555  0.00  0.00    +0.100 S 
ATOM      9  O   UNL     1      -8.103  -0.989  -5.051  0.00  0.00    -0.141 OA
ATOM     10  O   UNL     1      -6.915   1.137  -5.572  0.00  0.00    -0.141 OA
BRANCH   8  11
ATOM     11  N   UNL     1      -6.764  -0.784  -7.118  0.00  0.00    -0.166 NA
ATOM     12  C   UNL     1      -7.275  -2.090  -7.545  0.00  0.00    +0.133 C 
BRANCH  11  13
ATOM     13  C   UNL     1      -6.064   0.077  -8.075  0.00  0.00    +0.081 C 
ATOM     14  C   UNL     1      -6.998   0.408  -9.240  0.00  0.00    +0.020 C 
ATOM     15  C   UNL     1      -6.268   1.308 -10.239  0.00  0.00    +0.002 C 
ATOM     16  C   UNL     1      -5.030   0.581 -10.769  0.00  0.00    +0.000 C 
ATOM     17  C   UNL     1      -4.096   0.250  -9.603  0.00  0.00    +0.002 C 
ATOM     18  C   UNL     1      -4.826  -0.650  -8.604  0.00  0.00    +0.020 C 
ENDBRANCH  11  13
ENDBRANCH   8  11
ENDBRANCH   5   8
ENDBRANCH   1   2
BRANCH   1  20
ATOM     19  N   UNL     1      -1.372  -0.511   0.012  0.00  0.00    -0.308 N 
ATOM     20  C   UNL     1      -2.051  -0.643  -1.145  0.00  0.00    +0.228 C 
ATOM     21  O   UNL     1      -1.524  -0.341  -2.194  0.00  0.00    -0.274 OA
ATOM     22  H   UNL     1      -1.794  -0.752   0.852  0.00  0.00    +0.149 HD
BRANCH  19  24
ATOM     23  C   UNL     1      -0.019   1.526   0.010  0.00  0.00    +0.033 C 
ATOM     24  C   UNL     1       0.002  -0.004   0.002  0.00  0.00    +0.100 C 
BRANCH  24  25
ATOM     25  C   UNL     1       0.731  -0.503   1.223  0.00  0.00    -0.027 A 
ATOM     26  C   UNL     1       0.066  -0.555   2.446  0.00  0.00    +0.006 A 
ATOM     27  C   UNL     1       0.695  -1.000   3.568  0.00  0.00    +0.009 A 
ATOM     28  C   UNL     1       2.035  -1.415   3.495  0.00  0.00    -0.018 A 
ATOM     29  C   UNL     1       2.718  -1.881   4.631  0.00  0.00    +0.008 A 
ATOM     30  C   UNL     1       4.016  -2.276   4.523  0.00  0.00    +0.001 A 
ATOM     31  C   UNL     1       4.681  -2.225   3.299  0.00  0.00    +0.001 A 
ATOM     32  C   UNL     1       4.052  -1.779   2.178  0.00  0.00    +0.008 A 
ATOM     33  C   UNL     1       2.712  -1.363   2.251  0.00  0.00    -0.018 A 
ATOM     34  C   UNL     1       2.027  -0.902   1.113  0.00  0.00    +0.014 A 
ENDBRANCH  24  25
ENDBRANCH  19  24
ENDBRANCH   1  20
TORSDOF 7
