REMARK  Name = ZINC05551947
REMARK  7 active torsions:
REMARK  status: ('A' for Active; 'I' for Inactive)
REMARK    1  A    between atoms: C_1  and  C_2
REMARK    2  A    between atoms: C_2  and  C_3
REMARK    3  A    between atoms: C_3  and  C_4
REMARK    4  A    between atoms: C_4  and  C_5
REMARK    5  A    between atoms: C_8  and  N_11
REMARK    6  A    between atoms: C_15  and  C_16
REMARK    7  A    between atoms: C_19  and  N_22
REMARK                            x       y       z     vdW  Elec       q    Type
REMARK                         _______ _______ _______ _____ _____    ______ ____
ROOT
ATOM      1  N   UNL     1       4.110   6.036  -0.147  0.00  0.00    -0.224 N 
ATOM      2  C   UNL     1       4.377   5.327   0.936  0.00  0.00    +0.263 C 
ATOM      3  O   UNL     1       4.952   5.812   1.893  0.00  0.00    -0.269 OA
ATOM      4  C   UNL     1       3.946   3.913   0.924  0.00  0.00    +0.077 C 
ATOM      5  C   UNL     1       4.086   2.958   1.877  0.00  0.00    +0.028 C 
ATOM      6  S   UNL     1       3.183   3.810  -0.690  0.00  0.00    -0.061 S 
ATOM      7  C   UNL     1       3.466   5.497  -1.202  0.00  0.00    +0.125 C 
ATOM      8  S   UNL     1       3.027   6.247  -2.677  0.00  0.00    -0.027 S 
ENDROOT
BRANCH   1  12
ATOM      9  C   UNL     1       5.264  10.039  -0.296  0.00  0.00    -0.047 A 
ATOM     10  C   UNL     1       6.220   9.042  -0.355  0.00  0.00    +0.005 A 
ATOM     11  C   UNL     1       5.841   7.715  -0.306  0.00  0.00    +0.024 A 
ATOM     12  C   UNL     1       4.498   7.382  -0.197  0.00  0.00    +0.043 A 
ATOM     13  C   UNL     1       3.539   8.385  -0.144  0.00  0.00    +0.024 A 
ATOM     14  C   UNL     1       3.925   9.710  -0.189  0.00  0.00    +0.005 A 
BRANCH   9  15
ATOM     15  C   UNL     1       5.681  11.486  -0.350  0.00  0.00    +0.035 C 
BRANCH  15  16
ATOM     16  C   UNL     1       5.711  11.954  -1.806  0.00  0.00    +0.004 C 
BRANCH  16  18
ATOM     17  C   UNL     1       6.165  13.891  -3.317  0.00  0.00    +0.004 C 
ATOM     18  C   UNL     1       6.135  13.423  -1.861  0.00  0.00    -0.003 C 
ENDBRANCH  16  18
ENDBRANCH  15  16
ENDBRANCH   9  15
ENDBRANCH   1  12
BRANCH   5  19
ATOM     19  C   UNL     1       3.715   1.566   1.583  0.00  0.00    -0.024 A 
ATOM     20  C   UNL     1       3.388   1.186   0.276  0.00  0.00    +0.010 A 
ATOM     21  C   UNL     1       3.042  -0.121   0.009  0.00  0.00    +0.033 A 
ATOM     22  C   UNL     1       3.016  -1.057   1.028  0.00  0.00    +0.126 A 
ATOM     23  C   UNL     1       3.338  -0.689   2.324  0.00  0.00    +0.033 A 
ATOM     24  C   UNL     1       3.686   0.614   2.608  0.00  0.00    +0.010 A 
BRANCH  22  25
ATOM     25  N   UNL     1       2.643  -2.458   0.732  0.00  0.00    +0.056 N 
ATOM     26  O   UNL     1       2.360  -2.785  -0.406  0.00  0.00    -0.126 OA
ATOM     27  O   UNL     1       2.620  -3.284   1.627  0.00  0.00    -0.126 OA
ENDBRANCH  22  25
ENDBRANCH   5  19
TORSDOF 6
