REMARK  Name = ZINC55493865
REMARK  5 active torsions:
REMARK  status: ('A' for Active; 'I' for Inactive)
REMARK    1  A    between atoms: C_1  and  C_2
REMARK    2  A    between atoms: C_2  and  C_3
REMARK    3  A    between atoms: C_2  and  C_4
REMARK    4  A    between atoms: N_6  and  C_7
REMARK    5  A    between atoms: C_10  and  C_13
REMARK                            x       y       z     vdW  Elec       q    Type
REMARK                         _______ _______ _______ _____ _____    ______ ____
ROOT
ATOM      1  C   UNL     1      -6.839  -4.011   0.411  0.00  0.00    +0.142 A 
ATOM      2  N   UNL     1      -7.001  -5.365   0.511  0.00  0.00    -0.306 N 
ATOM      3  H   UNL     1      -6.219  -5.940   0.510  0.00  0.00    +0.170 HD
ATOM      4  C   UNL     1      -8.226  -5.916   0.609  0.00  0.00    +0.260 A 
ATOM      5  O   UNL     1      -8.357  -7.124   0.698  0.00  0.00    -0.267 OA
ATOM      6  C   UNL     1      -9.373  -5.057   0.609  0.00  0.00    +0.075 A 
ATOM      7  C   UNL     1     -10.789  -5.441   0.706  0.00  0.00    -0.023 A 
ATOM      8  C   UNL     1     -11.691  -4.445   0.683  0.00  0.00    -0.004 A 
ATOM      9  S   UNL     1     -10.730  -2.956   0.536  0.00  0.00    -0.073 S 
ATOM     10  C   UNL     1      -9.113  -3.683   0.503  0.00  0.00    +0.116 A 
ATOM     11  N   UNL     1      -7.879  -3.202   0.415  0.00  0.00    -0.222 NA
ATOM     12  C   UNL     1     -13.104  -4.955   0.784  0.00  0.00    +0.043 C 
ATOM     13  C   UNL     1     -12.998  -6.458   0.442  0.00  0.00    +0.010 C 
ATOM     14  C   UNL     1     -11.541  -6.768   0.839  0.00  0.00    +0.037 C 
ENDROOT
BRANCH   1  18
ATOM     15  C   UNL     1      -2.926  -2.388   0.107  0.00  0.00    +0.033 A 
ATOM     16  C   UNL     1      -4.030  -1.541   0.111  0.00  0.00    +0.024 A 
ATOM     17  C   UNL     1      -5.300  -2.064   0.209  0.00  0.00    +0.013 A 
ATOM     18  C   UNL     1      -5.479  -3.447   0.305  0.00  0.00    +0.017 A 
ATOM     19  C   UNL     1      -4.368  -4.294   0.301  0.00  0.00    +0.013 A 
ATOM     20  C   UNL     1      -3.101  -3.764   0.197  0.00  0.00    +0.024 A 
BRANCH  15  23
ATOM     21  C   UNL     1      -1.351  -0.677   0.597  0.00  0.00    +0.220 C 
ATOM     22  O   UNL     1      -2.228  -0.040   1.142  0.00  0.00    -0.275 OA
ATOM     23  N   UNL     1      -1.640  -1.854   0.008  0.00  0.00    -0.285 N 
ATOM     24  H   UNL     1      -0.954  -2.331  -0.485  0.00  0.00    +0.155 HD
BRANCH  21  26
ATOM     25  C   UNL     1       0.115   1.191   1.310  0.00  0.00    +0.017 C 
ATOM     26  C   UNL     1       0.061  -0.151   0.579  0.00  0.00    +0.069 C 
ATOM     27  C   UNL     1       0.986  -1.150   1.276  0.00  0.00    +0.017 C 
ENDBRANCH  21  26
ENDBRANCH  15  23
ENDBRANCH   1  18
TORSDOF 3
