REMARK  Name = ZINC08832442
REMARK  9 active torsions:
REMARK  status: ('A' for Active; 'I' for Inactive)
REMARK    1  A    between atoms: C_1  and  C_2
REMARK    2  A    between atoms: C_2  and  C_3
REMARK    3  A    between atoms: C_2  and  C_4
REMARK    4  A    between atoms: C_2  and  C_5
REMARK    5  A    between atoms: C_12  and  N_17
REMARK    6  A    between atoms: C_13  and  C_14
REMARK    7  A    between atoms: C_18  and  C_20
REMARK    8  A    between atoms: C_20  and  C_21
REMARK    9  A    between atoms: C_20  and  C_27
REMARK                            x       y       z     vdW  Elec       q    Type
REMARK                         _______ _______ _______ _____ _____    ______ ____
ROOT
ATOM      1  C   UNL     1      -0.288  -2.954  -3.987  0.00  0.00    -0.000 C 
ATOM      2  C   UNL     1      -0.696  -2.483  -5.386  0.00  0.00    +0.009 C 
ATOM      3  C   UNL     1       0.404  -2.826  -6.392  0.00  0.00    +0.037 C 
ATOM      4  C   UNL     1       1.729  -2.293  -5.867  0.00  0.00    -0.023 A 
ATOM      5  C   UNL     1       1.889  -1.969  -4.566  0.00  0.00    -0.004 A 
ATOM      6  S   UNL     1       3.562  -1.409  -4.446  0.00  0.00    -0.077 S 
ATOM      7  C   UNL     1       4.041  -1.592  -6.045  0.00  0.00    +0.084 A 
ATOM      8  C   UNL     1       2.914  -2.086  -6.681  0.00  0.00    +0.068 A 
ATOM      9  C   UNL     1       0.863  -2.074  -3.479  0.00  0.00    +0.046 C 
ENDROOT
BRANCH   8  10
ATOM     10  C   UNL     1       2.917  -2.387  -8.116  0.00  0.00    +0.244 C 
ATOM     11  O   UNL     1       2.603  -1.527  -8.919  0.00  0.00    -0.270 OA
ATOM     12  N   UNL     1       3.267  -3.615  -8.546  0.00  0.00    -0.325 N 
ATOM     13  H   UNL     1       3.517  -4.300  -7.907  0.00  0.00    +0.145 HD
ATOM     14  H   UNL     1       3.269  -3.814  -9.496  0.00  0.00    +0.145 HD
ENDBRANCH   8  10
BRANCH   1  16
ATOM     15  C   UNL     1      -1.940  -1.376  -2.975  0.00  0.00    +0.011 C 
ATOM     16  C   UNL     1      -1.482  -2.834  -3.037  0.00  0.00    -0.035 C 
ATOM     17  C   UNL     1      -1.070  -3.300  -1.639  0.00  0.00    +0.011 C 
ATOM     18  C   UNL     1      -2.630  -3.708  -3.548  0.00  0.00    +0.011 C 
ENDBRANCH   1  16
BRANCH   7  19
ATOM     19  N   UNL     1       5.280  -1.312  -6.601  0.00  0.00    -0.279 N 
ATOM     20  C   UNL     1       6.274  -0.832  -5.826  0.00  0.00    +0.229 C 
ATOM     21  O   UNL     1       6.083  -0.644  -4.643  0.00  0.00    -0.274 OA
ATOM     22  H   UNL     1       5.433  -1.462  -7.547  0.00  0.00    +0.155 HD
BRANCH  20  23
ATOM     23  C   UNL     1       7.620  -0.528  -6.431  0.00  0.00    +0.135 C 
BRANCH  23  24
ATOM     24  C   UNL     1       7.463   0.513  -7.509  0.00  0.00    -0.031 A 
ATOM     25  C   UNL     1       6.784   1.688  -7.242  0.00  0.00    +0.005 A 
ATOM     26  C   UNL     1       6.641   2.643  -8.232  0.00  0.00    +0.000 A 
ATOM     27  C   UNL     1       7.176   2.423  -9.487  0.00  0.00    +0.000 A 
ATOM     28  C   UNL     1       7.856   1.250  -9.753  0.00  0.00    +0.000 A 
ATOM     29  C   UNL     1       8.004   0.296  -8.763  0.00  0.00    +0.005 A 
ENDBRANCH  23  24
BRANCH  23  30
ATOM     30  C   UNL     1       8.545  -0.007  -5.360  0.00  0.00    -0.031 A 
ATOM     31  C   UNL     1       8.156   1.057  -4.569  0.00  0.00    +0.005 A 
ATOM     32  C   UNL     1       9.004   1.534  -3.587  0.00  0.00    +0.000 A 
ATOM     33  C   UNL     1      10.241   0.948  -3.397  0.00  0.00    +0.000 A 
ATOM     34  C   UNL     1      10.630  -0.117  -4.188  0.00  0.00    +0.000 A 
ATOM     35  C   UNL     1       9.780  -0.597  -5.167  0.00  0.00    +0.005 A 
ENDBRANCH  23  30
ENDBRANCH  20  23
ENDBRANCH   7  19
TORSDOF 6
