REMARK  Name = ZINC00907682
REMARK  7 active torsions:
REMARK  status: ('A' for Active; 'I' for Inactive)
REMARK    1  A    between atoms: C_1  and  C_2
REMARK    2  A    between atoms: C_9  and  C_14
REMARK    3  A    between atoms: C_14  and  C_16
REMARK    4  A    between atoms: C_14  and  N_60
REMARK    5  A    between atoms: N_20  and  C_21
REMARK    6  A    between atoms: C_21  and  C_22
REMARK    7  A    between atoms: C_31  and  C_34
REMARK                            x       y       z     vdW  Elec       q    Type
REMARK                         _______ _______ _______ _____ _____    ______ ____
ROOT
ATOM      1  C   UNL     1      -2.349  -0.745   1.988  0.00  0.00    +0.039 C 
ENDROOT
BRANCH   1  10
ATOM      2  C   UNL     1      -5.175   6.147   1.627  0.00  0.00    +0.044 C 
ATOM      3  C   UNL     1      -4.707   4.959   2.427  0.00  0.00    -0.050 A 
ATOM      4  C   UNL     1      -4.760   5.000   3.813  0.00  0.00    +0.005 A 
ATOM      5  C   UNL     1      -4.337   3.925   4.565  0.00  0.00    +0.026 A 
ATOM      6  C   UNL     1      -3.852   2.786   3.929  0.00  0.00    +0.049 A 
ATOM      7  C   UNL     1      -3.800   2.749   2.523  0.00  0.00    -0.001 A 
ATOM      8  C   UNL     1      -4.234   3.852   1.781  0.00  0.00    +0.013 A 
ATOM      9  C   UNL     1      -3.288   1.546   1.864  0.00  0.00    +0.017 A 
ATOM     10  C   UNL     1      -2.881   0.508   2.635  0.00  0.00    +0.011 A 
ATOM     11  C   UNL     1      -2.960   0.594   4.042  0.00  0.00    +0.251 A 
ATOM     12  O   UNL     1      -2.594  -0.353   4.716  0.00  0.00    -0.268 OA
ATOM     13  N   UNL     1      -3.423   1.696   4.656  0.00  0.00    -0.322 N 
ATOM     14  H   UNL     1      -3.457   1.726   5.655  0.00  0.00    +0.169 HD
ENDBRANCH   1  10
BRANCH   1  21
ATOM     15  C   UNL     1      -4.566  -1.667   2.304  0.00  0.00    -0.077 C 
ATOM     16  C   UNL     1      -5.342  -2.828   2.930  0.00  0.00    -0.015 C 
ATOM     17  C   UNL     1      -4.946  -4.133   2.235  0.00  0.00    -0.018 C 
ATOM     18  C   UNL     1      -3.433  -4.332   2.363  0.00  0.00    -0.015 C 
ATOM     19  C   UNL     1      -2.712  -3.127   1.754  0.00  0.00    -0.077 C 
ATOM     20  C   UNL     1      -5.673  -5.306   2.897  0.00  0.00    +0.007 C 
ATOM     21  N   UNL     1      -3.118  -1.906   2.482  0.00  0.00    +0.389 N 
ATOM     22  H   UNL     1      -2.922  -2.034   3.482  0.00  0.00    -0.080 HD
ENDBRANCH   1  21
BRANCH   1  23
ATOM     23  C   UNL     1      -0.901  -0.927   2.361  0.00  0.00    +0.143 A 
ATOM     24  N   UNL     1      -0.428  -1.205   3.551  0.00  0.00    -0.115 NA
ATOM     25  N   UNL     1       0.855  -1.280   3.462  0.00  0.00    -0.023 NA
ATOM     26  N   UNL     1       1.213  -1.061   2.245  0.00  0.00    -0.044 NA
ATOM     27  N   UNL     1       0.159  -0.834   1.536  0.00  0.00    -0.226 N 
BRANCH  27  28
ATOM     28  C   UNL     1       0.122  -0.536   0.102  0.00  0.00    +0.182 C 
BRANCH  28  29
ATOM     29  C   UNL     1       0.361   0.936  -0.112  0.00  0.00    -0.026 A 
ATOM     30  C   UNL     1      -0.712   1.793  -0.275  0.00  0.00    +0.008 A 
ATOM     31  C   UNL     1      -0.495   3.144  -0.466  0.00  0.00    +0.038 A 
ATOM     32  C   UNL     1       0.797   3.639  -0.505  0.00  0.00    +0.123 A 
ATOM     33  C   UNL     1       1.871   2.779  -0.347  0.00  0.00    +0.038 A 
ATOM     34  C   UNL     1       1.652   1.429  -0.150  0.00  0.00    +0.008 A 
ATOM     35  F   UNL     1       1.011   4.959  -0.697  0.00  0.00    -0.205 F 
ENDBRANCH  28  29
ENDBRANCH  27  28
ENDBRANCH   1  23
TORSDOF 5
