REMARK  Name = ZINC24274436
REMARK  7 active torsions:
REMARK  status: ('A' for Active; 'I' for Inactive)
REMARK    1  A    between atoms: C_1  and  C_2
REMARK    2  A    between atoms: C_2  and  C_4
REMARK    3  A    between atoms: C_2  and  N_14
REMARK    4  A    between atoms: C_15  and  C_17
REMARK    5  A    between atoms: C_17  and  N_18
REMARK    6  A    between atoms: C_21  and  C_25
REMARK    7  A    between atoms: C_21  and  C_26
REMARK                            x       y       z     vdW  Elec       q    Type
REMARK                         _______ _______ _______ _____ _____    ______ ____
ROOT
ATOM      1  N   UNL     1       8.785   4.413   2.779  0.00  0.00    -0.215 N 
ATOM      2  C   UNL     1       9.938   4.699   2.143  0.00  0.00    +0.251 C 
ATOM      3  O   UNL     1      10.347   4.208   1.112  0.00  0.00    -0.272 OA
ATOM      4  C   UNL     1      10.617   5.762   2.983  0.00  0.00    +0.135 C 
ATOM      5  N   UNL     1       9.683   5.966   4.104  0.00  0.00    -0.281 N 
ATOM      6  C   UNL     1       8.646   5.135   3.896  0.00  0.00    +0.310 C 
ATOM      7  O   UNL     1       7.689   5.050   4.641  0.00  0.00    -0.252 OA
ATOM      8  C   UNL     1      11.969   5.258   3.493  0.00  0.00    +0.047 C 
ATOM      9  H   UNL     1       9.921   6.696   4.892  0.00  0.00    +0.152 HD
ENDROOT
BRANCH   4  10
ATOM     10  C   UNL     1      10.791   7.037   2.199  0.00  0.00    -0.015 A 
ATOM     11  C   UNL     1      11.046   6.985   0.841  0.00  0.00    +0.006 A 
ATOM     12  C   UNL     1      11.198   8.155   0.123  0.00  0.00    +0.004 A 
ATOM     13  C   UNL     1      11.108   9.381   0.761  0.00  0.00    -0.044 A 
ATOM     14  C   UNL     1      10.859   9.433   2.119  0.00  0.00    -0.044 A 
ATOM     15  C   UNL     1      10.701   8.259   2.836  0.00  0.00    +0.010 A 
ATOM     16  C   UNL     1      10.808  10.875   2.575  0.00  0.00    +0.036 C 
ATOM     17  C   UNL     1      10.616  11.700   1.285  0.00  0.00    +0.009 C 
ATOM     18  C   UNL     1      11.241  10.785   0.211  0.00  0.00    +0.036 C 
ENDBRANCH   4  10
BRANCH   1  19
ATOM     19  C   UNL     1       7.808   3.429   2.308  0.00  0.00    +0.213 C 
BRANCH  19  21
ATOM     20  N   UNL     1       5.807   3.391   0.853  0.00  0.00    -0.307 N 
ATOM     21  C   UNL     1       6.807   4.106   1.407  0.00  0.00    +0.231 C 
ATOM     22  O   UNL     1       6.901   5.293   1.181  0.00  0.00    -0.274 OA
ATOM     23  H   UNL     1       5.722   2.314   1.059  0.00  0.00    +0.149 HD
BRANCH  20  25
ATOM     24  C   UNL     1       5.387   4.105  -1.448  0.00  0.00    +0.033 C 
ATOM     25  C   UNL     1       4.834   4.049  -0.022  0.00  0.00    +0.100 C 
BRANCH  25  26
ATOM     26  C   UNL     1       3.544   3.271  -0.014  0.00  0.00    -0.027 A 
ATOM     27  C   UNL     1       3.583   1.877  -0.022  0.00  0.00    +0.006 A 
ATOM     28  C   UNL     1       2.436   1.144  -0.014  0.00  0.00    +0.009 A 
ATOM     29  C   UNL     1       1.193   1.799   0.000  0.00  0.00    -0.018 A 
ATOM     30  C   UNL     1      -0.013   1.076   0.008  0.00  0.00    +0.008 A 
ATOM     31  C   UNL     1      -1.198   1.744   0.017  0.00  0.00    +0.001 A 
ATOM     32  C   UNL     1      -1.237   3.137   0.031  0.00  0.00    +0.001 A 
ATOM     33  C   UNL     1      -0.090   3.870   0.023  0.00  0.00    +0.008 A 
ATOM     34  C   UNL     1       1.153   3.215   0.008  0.00  0.00    -0.018 A 
ATOM     35  C   UNL     1       2.358   3.938   0.000  0.00  0.00    +0.014 A 
ENDBRANCH  25  26
ENDBRANCH  20  25
ENDBRANCH  19  21
ENDBRANCH   1  19
TORSDOF 5
