REMARK  Name = ZINC00976988
REMARK  4 active torsions:
REMARK  status: ('A' for Active; 'I' for Inactive)
REMARK    1  A    between atoms: C_1  and  C_2
REMARK    2  A    between atoms: C_2  and  O_3
REMARK    3  A    between atoms: O_3  and  C_4
REMARK    4  A    between atoms: C_11  and  C_15
REMARK                            x       y       z     vdW  Elec       q    Type
REMARK                         _______ _______ _______ _____ _____    ______ ____
ROOT
ATOM      1  C   UNL     1       5.320   3.229   2.186  0.00  0.00    +0.121 A 
ATOM      2  C   UNL     1       5.945   3.353   0.941  0.00  0.00    +0.048 A 
ATOM      3  C   UNL     1       5.296   3.018  -0.205  0.00  0.00    +0.032 A 
ATOM      4  C   UNL     1       3.975   2.537  -0.146  0.00  0.00    +0.073 A 
ATOM      5  C   UNL     1       3.342   2.411   1.115  0.00  0.00    +0.004 A 
ATOM      6  C   UNL     1       4.039   2.765   2.281  0.00  0.00    +0.055 A 
ATOM      7  C   UNL     1       2.018   1.935   1.170  0.00  0.00    +0.020 A 
ATOM      8  C   UNL     1       1.402   1.604  -0.003  0.00  0.00    +0.028 A 
ATOM      9  C   UNL     1       2.083   1.752  -1.211  0.00  0.00    +0.136 A 
ATOM     10  N   UNL     1       3.315   2.200  -1.259  0.00  0.00    -0.235 NA
ATOM     11 CL   UNL     1       1.278   1.331  -2.691  0.00  0.00    -0.062 Cl
ENDROOT
BRANCH   8  12
ATOM     12  C   UNL     1      -0.013   1.086   0.008  0.00  0.00    +0.193 C 
ATOM     13  N   UNL     1      -0.716   1.569  -1.186  0.00  0.00    -0.322 N 
ATOM     14  C   UNL     1      -1.133   2.895  -1.220  0.00  0.00    +0.041 A 
ATOM     15  C   UNL     1      -1.234   3.602  -2.406  0.00  0.00    +0.024 A 
ATOM     16  C   UNL     1      -1.651   4.919  -2.384  0.00  0.00    +0.002 A 
ATOM     17  C   UNL     1      -1.967   5.537  -1.184  0.00  0.00    +0.001 A 
ATOM     18  C   UNL     1      -1.874   4.847   0.006  0.00  0.00    +0.015 A 
ATOM     19  C   UNL     1      -1.457   3.518  -0.002  0.00  0.00    +0.058 A 
ATOM     20  C   UNL     1      -1.347   2.731   1.240  0.00  0.00    +0.247 C 
ATOM     21  O   UNL     1      -1.846   3.138   2.272  0.00  0.00    -0.270 OA
ATOM     22  N   UNL     1      -0.691   1.554   1.216  0.00  0.00    -0.289 N 
ATOM     23  H   UNL     1      -0.887   0.976  -1.935  0.00  0.00    +0.148 HD
ATOM     24  H   UNL     1      -0.666   1.009   2.018  0.00  0.00    +0.151 HD
ENDBRANCH   8  12
BRANCH   1  25
ATOM     25  O   UNL     1       5.996   3.573   3.314  0.00  0.00    -0.492 OA
BRANCH  25  27
ATOM     26  C   UNL     1       7.926   4.385   4.519  0.00  0.00    +0.048 C 
ATOM     27  C   UNL     1       7.332   4.050   3.150  0.00  0.00    +0.225 C 
ENDBRANCH  25  27
ENDBRANCH   1  25
TORSDOF 3
