REMARK  Name = ZINC09373307
REMARK  6 active torsions:
REMARK  status: ('A' for Active; 'I' for Inactive)
REMARK    1  A    between atoms: C_1  and  C_2
REMARK    2  A    between atoms: C_2  and  C_16
REMARK    3  A    between atoms: N_3  and  N_4
REMARK    4  A    between atoms: C_5  and  C_7
REMARK    5  A    between atoms: C_9  and  N_14
REMARK    6  A    between atoms: C_19  and  N_22
REMARK                            x       y       z     vdW  Elec       q    Type
REMARK                         _______ _______ _______ _____ _____    ______ ____
ROOT
ATOM      1  N   UNL     1      -3.889   5.250  -5.566  0.00  0.00    -0.201 N 
ATOM      2  C   UNL     1      -4.026   6.581  -5.733  0.00  0.00    +0.281 C 
ATOM      3  O   UNL     1      -3.504   7.349  -4.949  0.00  0.00    -0.267 OA
ATOM      4  H   UNL     1      -4.306   4.638  -6.193  0.00  0.00    +0.178 HD
ENDROOT
BRANCH   2   5
ATOM      5  C   UNL     1      -4.811   7.106  -6.872  0.00  0.00    +0.125 A 
ATOM      6  C   UNL     1      -4.954   8.482  -7.034  0.00  0.00    +0.091 A 
ATOM      7  C   UNL     1      -5.694   8.961  -8.116  0.00  0.00    +0.067 A 
ATOM      8  C   UNL     1      -6.271   8.037  -8.985  0.00  0.00    +0.098 A 
ATOM      9  C   UNL     1      -6.088   6.683  -8.753  0.00  0.00    +0.128 A 
ATOM     10 CL   UNL     1      -6.803   5.527  -9.832  0.00  0.00    -0.062 Cl
ATOM     11 CL   UNL     1      -7.208   8.576 -10.343  0.00  0.00    -0.079 Cl
ATOM     12 CL   UNL     1      -4.216   9.583  -5.913  0.00  0.00    -0.079 Cl
ATOM     13  N   UNL     1      -5.371   6.182  -7.715  0.00  0.00    -0.339 N 
ATOM     14  H   UNL     1      -5.254   5.172  -7.570  0.00  0.00    +0.167 HD
BRANCH   7  15
ATOM     15  N   UNL     1      -5.856  10.331  -8.318  0.00  0.00    -0.356 N 
ATOM     16  H   UNL     1      -6.376  10.651  -9.072  0.00  0.00    +0.142 HD
ATOM     17  H   UNL     1      -5.449  10.963  -7.706  0.00  0.00    +0.142 HD
ENDBRANCH   7  15
ENDBRANCH   2   5
BRANCH   1  20
ATOM     18  C   UNL     1      -3.660   2.519  -5.301  0.00  0.00    +0.068 C 
ATOM     19  C   UNL     1      -3.013   3.471  -4.328  0.00  0.00    +0.063 C 
ATOM     20  N   UNL     1      -3.145   4.752  -4.489  0.00  0.00    -0.184 NA
BRANCH  19  21
ATOM     21  C   UNL     1      -2.231   2.947  -3.194  0.00  0.00    -0.002 A 
ATOM     22  C   UNL     1      -1.630   3.828  -2.291  0.00  0.00    +0.011 A 
ATOM     23  C   UNL     1      -0.899   3.335  -1.233  0.00  0.00    +0.024 A 
ATOM     24  C   UNL     1      -0.759   1.962  -1.062  0.00  0.00    +0.030 A 
ATOM     25  C   UNL     1      -1.351   1.081  -1.962  0.00  0.00    +0.024 A 
ATOM     26  C   UNL     1      -2.087   1.567  -3.020  0.00  0.00    +0.011 A 
BRANCH  24  27
ATOM     27  N   UNL     1      -0.018   1.466   0.010  0.00  0.00    -0.326 N 
ATOM     28  C   UNL     1       1.350   2.006  -0.000  0.00  0.00    +0.133 C 
ATOM     29  C   UNL     1       2.107   1.484   1.224  0.00  0.00    +0.178 C 
ATOM     30  O   UNL     1       2.090   0.054   1.216  0.00  0.00    -0.377 OA
ATOM     31  C   UNL     1       0.773  -0.505   1.226  0.00  0.00    +0.178 C 
ATOM     32  C   UNL     1       0.002  -0.004   0.002  0.00  0.00    +0.133 C 
ENDBRANCH  24  27
ENDBRANCH  19  21
ENDBRANCH   1  20
TORSDOF 5
