REMARK  Name = ZINC05791030
REMARK  5 active torsions:
REMARK  status: ('A' for Active; 'I' for Inactive)
REMARK    1  A    between atoms: C_1  and  C_2
REMARK    2  A    between atoms: C_2  and  O_3
REMARK    3  A    between atoms: O_3  and  C_4
REMARK    4  A    between atoms: C_4  and  C_6
REMARK    5  A    between atoms: C_10  and  N_11
REMARK                            x       y       z     vdW  Elec       q    Type
REMARK                         _______ _______ _______ _____ _____    ______ ____
ROOT
ATOM      1  N   UNL     1      -0.602  -2.455  -3.925  0.00  0.00    -0.295 N 
ATOM      2  C   UNL     1      -1.110  -2.692  -5.186  0.00  0.00    +0.105 C 
ATOM      3  C   UNL     1      -2.531  -2.401  -5.479  0.00  0.00    +0.016 A 
ATOM      4  C   UNL     1      -3.292  -1.596  -4.638  0.00  0.00    +0.011 A 
ATOM      5  C   UNL     1      -4.612  -1.337  -4.953  0.00  0.00    +0.001 A 
ATOM      6  C   UNL     1      -5.173  -1.875  -6.098  0.00  0.00    +0.000 A 
ATOM      7  C   UNL     1      -4.420  -2.681  -6.935  0.00  0.00    +0.004 A 
ATOM      8  C   UNL     1      -3.104  -2.949  -6.627  0.00  0.00    -0.035 A 
ATOM      9  C   UNL     1      -2.268  -3.847  -7.500  0.00  0.00    +0.063 C 
ATOM     10  C   UNL     1      -0.815  -3.369  -7.487  0.00  0.00    +0.044 C 
ATOM     11  N   UNL     1      -0.342  -3.167  -6.119  0.00  0.00    -0.367 N 
ATOM     12  C   UNL     1      -0.716  -2.044  -8.250  0.00  0.00    +0.028 C 
ATOM     13  C   UNL     1       0.736  -1.563  -8.246  0.00  0.00    +0.002 C 
ATOM     14  C   UNL     1       1.623  -2.607  -8.928  0.00  0.00    +0.000 C 
ATOM     15  C   UNL     1       1.519  -3.934  -8.175  0.00  0.00    +0.002 C 
ATOM     16  C   UNL     1       0.066  -4.413  -8.180  0.00  0.00    +0.028 C 
ATOM     17  H   UNL     1       0.575  -3.397  -5.900  0.00  0.00    +0.161 HD
ATOM     18  H   UNL     1      -1.200  -2.226  -3.196  0.00  0.00    +0.154 HD
ENDROOT
BRANCH   1  23
ATOM     19  C   UNL     1       1.431  -2.496  -2.486  0.00  0.00    +0.091 A 
ATOM     20  C   UNL     1       2.878  -2.619  -2.522  0.00  0.00    -0.021 A 
ATOM     21  C   UNL     1       3.390  -2.761  -3.763  0.00  0.00    -0.004 A 
ATOM     22  S   UNL     1       1.984  -2.731  -4.835  0.00  0.00    -0.077 S 
ATOM     23  C   UNL     1       0.761  -2.544  -3.701  0.00  0.00    +0.085 A 
ATOM     24  C   UNL     1       4.835  -2.908  -4.128  0.00  0.00    +0.043 C 
ATOM     25  C   UNL     1       5.684  -2.497  -2.916  0.00  0.00    +0.005 C 
ATOM     26  C   UNL     1       5.134  -3.193  -1.667  0.00  0.00    +0.005 C 
ATOM     27  C   UNL     1       3.776  -2.595  -1.294  0.00  0.00    +0.037 C 
BRANCH  19  28
ATOM     28  C   UNL     1       0.709  -2.334  -1.223  0.00  0.00    +0.342 C 
ATOM     29  O   UNL     1       0.327  -3.313  -0.611  0.00  0.00    -0.245 OA
BRANCH  28  30
ATOM     30  O   UNL     1       0.469  -1.099  -0.737  0.00  0.00    -0.461 OA
BRANCH  30  32
ATOM     31  C   UNL     1      -0.417   0.454   0.889  0.00  0.00    +0.048 C 
ATOM     32  C   UNL     1      -0.240  -1.015   0.501  0.00  0.00    +0.229 C 
ENDBRANCH  30  32
ENDBRANCH  28  30
ENDBRANCH  19  28
ENDBRANCH   1  23
TORSDOF 4
