REMARK  Name = ZINC05013992
REMARK  7 active torsions:
REMARK  status: ('A' for Active; 'I' for Inactive)
REMARK    1  A    between atoms: C_1  and  C_2
REMARK    2  A    between atoms: C_4  and  C_25
REMARK    3  A    between atoms: C_5  and  N_11
REMARK    4  A    between atoms: C_6  and  N_8
REMARK    5  A    between atoms: C_12  and  C_14
REMARK    6  A    between atoms: C_20  and  C_23
REMARK    7  A    between atoms: C_20  and  C_24
REMARK                            x       y       z     vdW  Elec       q    Type
REMARK                         _______ _______ _______ _____ _____    ______ ____
ROOT
ATOM      1  N   UNL     1       1.327   1.604   2.364  0.00  0.00    -0.283 N 
ATOM      2  C   UNL     1       2.027   2.098   3.404  0.00  0.00    +0.227 C 
ATOM      3  O   UNL     1       1.446   2.603   4.342  0.00  0.00    -0.275 OA
ATOM      4  H   UNL     1       1.792   1.279   1.577  0.00  0.00    +0.155 HD
ENDROOT
BRANCH   2   5
ATOM      5  C   UNL     1       3.532   2.022   3.403  0.00  0.00    +0.069 C 
ATOM      6  C   UNL     1       4.141   0.587   3.376  0.00  0.00    +0.021 C 
ATOM      7  C   UNL     1       5.603   0.795   3.894  0.00  0.00    +0.006 C 
ATOM      8  C   UNL     1       5.714   2.329   4.156  0.00  0.00    +0.000 C 
ATOM      9  C   UNL     1       4.257   2.644   4.648  0.00  0.00    +0.025 C 
ATOM     10  C   UNL     1       5.670   2.967   2.733  0.00  0.00    -0.010 C 
ATOM     11  C   UNL     1       4.239   2.763   2.258  0.00  0.00    -0.056 C 
ATOM     12  C   UNL     1       3.719   3.139   1.116  0.00  0.00    +0.009 C 
ATOM     13  C   UNL     1       6.648   2.252   1.799  0.00  0.00    +0.016 C 
ATOM     14  C   UNL     1       5.999   4.459   2.806  0.00  0.00    +0.016 C 
ENDBRANCH   2   5
BRANCH   1  19
ATOM     15  C   UNL     1      -4.339   1.426   2.590  0.00  0.00    +0.044 C 
ATOM     16  C   UNL     1      -2.834   1.473   2.530  0.00  0.00    -0.048 A 
ATOM     17  C   UNL     1      -2.085   0.899   3.541  0.00  0.00    +0.008 A 
ATOM     18  C   UNL     1      -0.705   0.946   3.491  0.00  0.00    -0.027 A 
ATOM     19  C   UNL     1      -0.071   1.560   2.420  0.00  0.00    +0.067 A 
ATOM     20  C   UNL     1      -0.826   2.130   1.403  0.00  0.00    +0.148 A 
ATOM     21  C   UNL     1      -2.205   2.085   1.462  0.00  0.00    +0.038 A 
ATOM     22  C   UNL     1       0.110   0.325   4.596  0.00  0.00    +0.046 C 
BRANCH  20  23
ATOM     23  N   UNL     1      -0.153   2.785   0.259  0.00  0.00    +0.058 N 
ATOM     24  O   UNL     1      -0.810   3.394  -0.566  0.00  0.00    -0.126 OA
ATOM     25  O   UNL     1       1.057   2.716   0.143  0.00  0.00    -0.126 OA
ENDBRANCH  20  23
ENDBRANCH   1  19
TORSDOF 3
