REMARK  Name = ZINC39520747
REMARK  6 active torsions:
REMARK  status: ('A' for Active; 'I' for Inactive)
REMARK    1  A    between atoms: C_1  and  O_2
REMARK    2  A    between atoms: O_2  and  C_3
REMARK    3  A    between atoms: N_9  and  C_10
REMARK    4  A    between atoms: C_10  and  C_11
REMARK    5  A    between atoms: C_20  and  S_23
REMARK    6  A    between atoms: S_23  and  C_26
REMARK                            x       y       z     vdW  Elec       q    Type
REMARK                         _______ _______ _______ _____ _____    ______ ____
ROOT
ATOM      1  C   UNL     1      -1.254  -0.661  -0.213  0.00  0.00    +0.067 C 
ATOM      2  C   UNL     1      -1.245  -2.162   0.087  0.00  0.00    +0.012 C 
ATOM      3  C   UNL     1      -2.680  -2.693   0.048  0.00  0.00    -0.001 C 
ATOM      4  C   UNL     1      -3.293  -2.379  -1.320  0.00  0.00    -0.012 C 
ATOM      5  C   UNL     1      -3.227  -0.871  -1.569  0.00  0.00    -0.060 C 
ATOM      6  N   UNL     1      -1.827  -0.429  -1.544  0.00  0.00    +0.403 N 
ATOM      7  C   UNL     1      -3.837  -0.554  -2.937  0.00  0.00    -0.012 C 
ATOM      8  C   UNL     1      -5.295  -1.015  -2.964  0.00  0.00    +0.001 C 
ATOM      9  C   UNL     1      -6.082  -0.284  -1.874  0.00  0.00    +0.026 C 
ATOM     10  C   UNL     1      -5.472  -0.600  -0.506  0.00  0.00    +0.135 C 
ATOM     11  C   UNL     1      -4.013  -0.139  -0.479  0.00  0.00    +0.015 C 
ATOM     12  H   UNL     1      -1.299  -0.947  -2.231  0.00  0.00    -0.077 HD
ENDROOT
BRANCH  10  13
ATOM     13  S   UNL     1      -6.404   0.267   0.786  0.00  0.00    -0.000 S 
ATOM     14  O   UNL     1      -5.966  -0.154   2.071  0.00  0.00    -0.169 OA
ATOM     15  O   UNL     1      -6.506   1.649   0.472  0.00  0.00    -0.169 OA
BRANCH  13  16
ATOM     16  C   UNL     1      -8.050  -0.349   0.648  0.00  0.00    +0.088 A 
ATOM     17  C   UNL     1      -8.955   0.281  -0.186  0.00  0.00    +0.027 A 
ATOM     18  C   UNL     1     -10.246  -0.202  -0.294  0.00  0.00    +0.002 A 
ATOM     19  C   UNL     1     -10.631  -1.315   0.430  0.00  0.00    +0.000 A 
ATOM     20  C   UNL     1      -9.725  -1.944   1.263  0.00  0.00    +0.002 A 
ATOM     21  C   UNL     1      -8.433  -1.464   1.368  0.00  0.00    +0.027 A 
ENDBRANCH  13  16
ENDBRANCH  10  13
BRANCH   1  23
ATOM     22  C   UNL     1       1.004  -0.902  -0.979  0.00  0.00    +0.191 C 
ATOM     23  O   UNL     1       0.083  -0.160  -0.176  0.00  0.00    -0.397 OA
ENDBRANCH   1  23
BRANCH   6  24
ATOM     24  C   UNL     1      -1.762   1.004  -1.860  0.00  0.00    -0.039 C 
BRANCH  24  25
ATOM     25  C   UNL     1      -0.323   1.415  -2.033  0.00  0.00    -0.064 A 
ATOM     26  C   UNL     1       0.351   2.028  -0.993  0.00  0.00    +0.002 A 
ATOM     27  C   UNL     1       1.671   2.405  -1.152  0.00  0.00    +0.000 A 
ATOM     28  C   UNL     1       2.318   2.170  -2.351  0.00  0.00    +0.000 A 
ATOM     29  C   UNL     1       1.645   1.557  -3.391  0.00  0.00    +0.000 A 
ATOM     30  C   UNL     1       0.326   1.175  -3.230  0.00  0.00    +0.002 A 
ENDBRANCH  24  25
ENDBRANCH   6  24
TORSDOF 5
