REMARK  Name = ZINC39734393
REMARK  5 active torsions:
REMARK  status: ('A' for Active; 'I' for Inactive)
REMARK    1  A    between atoms: C_1  and  C_2
REMARK    2  A    between atoms: C_2  and  C_4
REMARK    3  A    between atoms: C_2  and  S_17
REMARK    4  A    between atoms: S_17  and  C_18
REMARK    5  A    between atoms: N_26  and  C_27
REMARK                            x       y       z     vdW  Elec       q    Type
REMARK                         _______ _______ _______ _____ _____    ______ ____
ROOT
ATOM      1  C   UNL     1      -1.610  -0.480   0.102  0.00  0.00    +0.230 C 
ATOM      2  O   UNL     1      -2.298  -0.754   1.062  0.00  0.00    -0.274 OA
ATOM      3  N   UNL     1      -2.090  -0.657  -1.144  0.00  0.00    -0.285 N 
ATOM      4  C   UNL     1      -2.535  -1.842  -1.517  0.00  0.00    +0.036 C 
ATOM      5  C   UNL     1      -2.393  -2.995  -0.620  0.00  0.00    +0.025 C 
ATOM      6  C   UNL     1      -2.845  -4.208  -0.994  0.00  0.00    +0.032 C 
ATOM      7  C   UNL     1      -3.483  -4.384  -2.302  0.00  0.00    +0.095 C 
ATOM      8  N   UNL     1      -4.011  -5.412  -2.937  0.00  0.00    -0.190 NA
ATOM      9  C   UNL     1      -4.463  -5.008  -4.136  0.00  0.00    +0.369 C 
ATOM     10  O   UNL     1      -5.063  -5.821  -5.038  0.00  0.00    -0.243 OA
ATOM     11  N   UNL     1      -4.251  -3.726  -4.323  0.00  0.00    -0.190 NA
ATOM     12  C   UNL     1      -3.631  -3.232  -3.213  0.00  0.00    +0.097 C 
ATOM     13  C   UNL     1      -3.182  -2.007  -2.837  0.00  0.00    +0.053 C 
ATOM     14  H   UNL     1      -2.109   0.086  -1.767  0.00  0.00    +0.155 HD
ENDROOT
BRANCH   1  16
ATOM     15  C   UNL     1      -0.250   1.589   0.256  0.00  0.00    +0.029 C 
ATOM     16  C   UNL     1      -0.217   0.060   0.303  0.00  0.00    +0.137 C 
BRANCH  16  17
ATOM     17  S   UNL     1       0.414  -0.482   1.915  0.00  0.00    -0.075 S 
BRANCH  17  18
ATOM     18  C   UNL     1       2.079   0.095   1.937  0.00  0.00    +0.170 A 
ATOM     19  N   UNL     1       2.657   0.763   0.969  0.00  0.00    -0.222 NA
ATOM     20  C   UNL     1       3.939   1.050   1.315  0.00  0.00    +0.090 A 
ATOM     21  C   UNL     1       4.979   1.726   0.671  0.00  0.00    +0.030 A 
ATOM     22  C   UNL     1       6.199   1.857   1.295  0.00  0.00    +0.002 A 
ATOM     23  C   UNL     1       6.405   1.323   2.558  0.00  0.00    +0.002 A 
ATOM     24  C   UNL     1       5.389   0.652   3.207  0.00  0.00    +0.028 A 
ATOM     25  C   UNL     1       4.153   0.511   2.594  0.00  0.00    +0.069 A 
ATOM     26  N   UNL     1       2.959  -0.084   2.967  0.00  0.00    -0.322 N 
ATOM     27  C   UNL     1       2.690  -0.778   4.229  0.00  0.00    +0.151 C 
ENDBRANCH  17  18
ENDBRANCH  16  17
ENDBRANCH   1  16
TORSDOF 3
