REMARK  Name = ZINC08695230
REMARK  20 active torsions:
REMARK  status: ('A' for Active; 'I' for Inactive)
REMARK    1  A    between atoms: C_1  and  C_2
REMARK    2  A    between atoms: C_2  and  C_3
REMARK    3  A    between atoms: C_3  and  C_4
REMARK    4  A    between atoms: C_4  and  N_78
REMARK    5  A    between atoms: C_5  and  C_6
REMARK    6  A    between atoms: C_5  and  N_78
REMARK    7  A    between atoms: C_6  and  C_7
REMARK    8  A    between atoms: C_7  and  C_8
REMARK    9  A    between atoms: C_9  and  C_10
REMARK   10  A    between atoms: C_9  and  N_78
REMARK   11  A    between atoms: C_10  and  C_11
REMARK   12  A    between atoms: C_11  and  N_12
REMARK   13  A    between atoms: C_13  and  C_29
REMARK   14  A    between atoms: C_15  and  C_20
REMARK   15  A    between atoms: C_16  and  O_19
REMARK   16  A    between atoms: C_20  and  C_22
REMARK   17  A    between atoms: C_25  and  C_28
REMARK   18  A    between atoms: C_32  and  C_35
REMARK   19  A    between atoms: C_35  and  O_37
REMARK   20  A    between atoms: O_37  and  C_38
REMARK                            x       y       z     vdW  Elec       q    Type
REMARK                         _______ _______ _______ _____ _____    ______ ____
ROOT
ATOM      1  N   UNL     1      -3.818   4.516  -0.832  0.00  0.00    -0.284 N 
ATOM      2  C   UNL     1      -2.611   3.681  -0.865  0.00  0.00    +0.144 C 
ATOM      3  C   UNL     1      -3.087   2.258  -1.038  0.00  0.00    +0.071 C 
ATOM      4  C   UNL     1      -4.439   2.303  -1.101  0.00  0.00    +0.188 C 
ATOM      5  C   UNL     1      -4.884   3.707  -0.967  0.00  0.00    +0.282 C 
ATOM      6  O   UNL     1      -6.042   4.075  -0.981  0.00  0.00    -0.267 OA
ENDROOT
BRANCH   2   7
ATOM      7  C   UNL     1      -1.737   4.080  -2.027  0.00  0.00    -0.022 A 
ATOM      8  C   UNL     1      -2.294   4.247  -3.282  0.00  0.00    +0.006 A 
ATOM      9  C   UNL     1      -1.501   4.617  -4.349  0.00  0.00    +0.015 A 
ATOM     10  C   UNL     1      -0.131   4.812  -4.161  0.00  0.00    +0.059 A 
ATOM     11  C   UNL     1       0.425   4.637  -2.893  0.00  0.00    +0.015 A 
ATOM     12  C   UNL     1      -0.381   4.272  -1.834  0.00  0.00    +0.006 A 
BRANCH  10  13
ATOM     13  C   UNL     1       0.725   5.202  -5.300  0.00  0.00    +0.339 C 
ATOM     14  O   UNL     1       1.917   5.371  -5.133  0.00  0.00    -0.245 OA
BRANCH  13  15
ATOM     15  O   UNL     1       0.185   5.370  -6.522  0.00  0.00    -0.464 OA
ATOM     16  C   UNL     1       1.087   5.753  -7.594  0.00  0.00    +0.280 C 
ENDBRANCH  13  15
ENDBRANCH  10  13
ENDBRANCH   2   7
BRANCH   3  17
ATOM     17  C   UNL     1      -2.248   1.060  -1.128  0.00  0.00    +0.195 C 
ATOM     18  O   UNL     1      -2.231   0.404  -2.152  0.00  0.00    -0.287 OA
BRANCH  17  19
ATOM     19  C   UNL     1      -1.416   0.652   0.025  0.00  0.00    +0.022 A 
ATOM     20  C   UNL     1      -1.436   1.401   1.204  0.00  0.00    +0.012 A 
ATOM     21  C   UNL     1      -0.662   1.012   2.277  0.00  0.00    +0.004 A 
ATOM     22  C   UNL     1       0.141  -0.112   2.184  0.00  0.00    -0.050 A 
ATOM     23  C   UNL     1       0.170  -0.855   1.017  0.00  0.00    +0.004 A 
ATOM     24  C   UNL     1      -0.603  -0.480  -0.062  0.00  0.00    +0.012 A 
ATOM     25  C   UNL     1       0.989  -0.527   3.359  0.00  0.00    +0.044 C 
ENDBRANCH  17  19
ENDBRANCH   3  17
BRANCH   4  26
ATOM     26  O   UNL     1      -5.252   1.234  -1.258  0.00  0.00    -0.502 OA
ATOM     27  H   UNL     1      -6.205   1.539  -1.272  0.00  0.00    +0.292 HD
ENDBRANCH   4  26
BRANCH   1  28
ATOM     28  C   UNL     1      -3.855   5.972  -0.679  0.00  0.00    +0.107 C 
BRANCH  28  29
ATOM     29  C   UNL     1      -3.802   6.631  -2.059  0.00  0.00    +0.000 C 
BRANCH  29  30
ATOM     30  C   UNL     1      -3.841   8.152  -1.899  0.00  0.00    -0.077 C 
BRANCH  30  31
ATOM     31  N   UNL     1      -3.810   8.774  -3.240  0.00  0.00    +0.380 N 
ATOM     32  H   UNL     1      -4.545   8.351  -3.820  0.00  0.00    -0.082 HD
BRANCH  31  33
ATOM     33  C   UNL     1      -2.498   8.535  -3.878  0.00  0.00    -0.079 C 
BRANCH  33  34
ATOM     34  C   UNL     1      -2.616   8.840  -5.373  0.00  0.00    -0.019 C 
BRANCH  34  35
ATOM     35  C   UNL     1      -1.259   8.622  -6.046  0.00  0.00    -0.005 C 
ATOM     36  C   UNL     1      -1.377   8.927  -7.540  0.00  0.00    +0.004 C 
ENDBRANCH  34  35
ENDBRANCH  33  34
ENDBRANCH  31  33
BRANCH  31  37
ATOM     37  C   UNL     1      -4.062  10.226  -3.130  0.00  0.00    -0.079 C 
BRANCH  37  38
ATOM     38  C   UNL     1      -5.562  10.449  -2.926  0.00  0.00    -0.019 C 
BRANCH  38  40
ATOM     39  C   UNL     1      -7.364  12.172  -2.756  0.00  0.00    +0.004 C 
ATOM     40  C   UNL     1      -5.864  11.949  -2.960  0.00  0.00    -0.005 C 
ENDBRANCH  38  40
ENDBRANCH  37  38
ENDBRANCH  31  37
ENDBRANCH  30  31
ENDBRANCH  29  30
ENDBRANCH  28  29
ENDBRANCH   1  28
TORSDOF 16
