REMARK  Name = ZINC10002738
REMARK  14 active torsions:
REMARK  status: ('A' for Active; 'I' for Inactive)
REMARK    1  A    between atoms: C_1  and  C_2
REMARK    2  A    between atoms: C_2  and  O_3
REMARK    3  A    between atoms: O_3  and  C_4
REMARK    4  A    between atoms: C_7  and  N_10
REMARK    5  A    between atoms: C_11  and  C_13
REMARK    6  A    between atoms: C_13  and  S_14
REMARK    7  A    between atoms: S_14  and  C_15
REMARK    8  A    between atoms: C_18  and  C_21
REMARK    9  A    between atoms: N_19  and  C_20
REMARK   10  A    between atoms: C_21  and  C_23
REMARK   11  A    between atoms: C_21  and  N_26
REMARK   12  A    between atoms: C_23  and  C_24
REMARK   13  A    between atoms: C_23  and  C_25
REMARK   14  A    between atoms: C_27  and  C_29
REMARK                            x       y       z     vdW  Elec       q    Type
REMARK                         _______ _______ _______ _____ _____    ______ ____
ROOT
ATOM      1  C   UNL     1       0.115   0.979  -2.723  0.00  0.00    +0.192 A 
ATOM      2  N   UNL     1       1.186   0.239  -2.549  0.00  0.00    -0.122 NA
ATOM      3  N   UNL     1       1.668  -0.106  -3.689  0.00  0.00    -0.132 NA
ATOM      4  C   UNL     1       0.945   0.394  -4.651  0.00  0.00    +0.155 A 
ATOM      5  N   UNL     1      -0.070   1.103  -4.070  0.00  0.00    -0.308 N 
ATOM      6  C   UNL     1      -1.135   1.843  -4.753  0.00  0.00    +0.152 C 
ENDROOT
BRANCH   1   7
ATOM      7  S   UNL     1      -0.889   1.683  -1.458  0.00  0.00    -0.077 S 
BRANCH   7   8
ATOM      8  C   UNL     1      -0.016   1.080   0.008  0.00  0.00    +0.173 C 
BRANCH   8  10
ATOM      9  N   UNL     1      -0.242   1.246   2.466  0.00  0.00    -0.285 N 
ATOM     10  C   UNL     1      -0.717   1.573   1.248  0.00  0.00    +0.227 C 
ATOM     11  O   UNL     1      -1.709   2.265   1.150  0.00  0.00    -0.275 OA
ATOM     12  H   UNL     1       0.511   0.639   2.546  0.00  0.00    +0.155 HD
BRANCH   9  16
ATOM     13  C   UNL     1      -2.005   2.842   5.891  0.00  0.00    +0.121 A 
ATOM     14  C   UNL     1      -2.787   2.534   4.787  0.00  0.00    +0.047 A 
ATOM     15  C   UNL     1      -2.204   2.006   3.653  0.00  0.00    +0.027 A 
ATOM     16  C   UNL     1      -0.834   1.783   3.616  0.00  0.00    +0.034 A 
ATOM     17  C   UNL     1      -0.052   2.086   4.723  0.00  0.00    +0.027 A 
ATOM     18  C   UNL     1      -0.636   2.619   5.855  0.00  0.00    +0.047 A 
BRANCH  13  19
ATOM     19  O   UNL     1      -2.580   3.362   7.008  0.00  0.00    -0.492 OA
BRANCH  19  21
ATOM     20  C   UNL     1      -2.536   4.228   9.264  0.00  0.00    +0.048 C 
ATOM     21  C   UNL     1      -1.715   3.655   8.107  0.00  0.00    +0.225 C 
ENDBRANCH  19  21
ENDBRANCH  13  19
ENDBRANCH   9  16
ENDBRANCH   8  10
ENDBRANCH   7   8
ENDBRANCH   1   7
BRANCH   4  22
ATOM     22  C   UNL     1       1.183   0.223  -6.129  0.00  0.00    +0.144 C 
BRANCH  22  23
ATOM     23  N   UNL     1       2.605   0.421  -6.420  0.00  0.00    -0.301 N 
ATOM     24  C   UNL     1       2.992   0.816  -7.650  0.00  0.00    +0.245 C 
ATOM     25  O   UNL     1       2.162   1.007  -8.517  0.00  0.00    -0.270 OA
ATOM     26  H   UNL     1       3.268   0.269  -5.729  0.00  0.00    +0.150 HD
BRANCH  24  27
ATOM     27  C   UNL     1       4.425   1.016  -7.943  0.00  0.00    +0.040 A 
ATOM     28  C   UNL     1       5.381   0.803  -6.947  0.00  0.00    +0.017 A 
ATOM     29  C   UNL     1       6.718   0.985  -7.224  0.00  0.00    +0.050 A 
ATOM     30  C   UNL     1       7.120   1.392  -8.490  0.00  0.00    +0.166 A 
ATOM     31  C   UNL     1       6.170   1.612  -9.488  0.00  0.00    +0.167 A 
ATOM     32  C   UNL     1       4.828   1.426  -9.217  0.00  0.00    +0.062 A 
ATOM     33  O   UNL     1       6.816   2.001 -10.626  0.00  0.00    -0.453 OA
ATOM     34  C   UNL     1       8.129   2.411 -10.200  0.00  0.00    +0.466 C 
ATOM     35  O   UNL     1       8.357   1.642  -9.005  0.00  0.00    -0.453 OA
ENDBRANCH  24  27
ENDBRANCH  22  23
BRANCH  22  36
ATOM     36  C   UNL     1       0.768  -1.188  -6.553  0.00  0.00    +0.011 C 
ATOM     37  C   UNL     1       1.010  -1.361  -8.053  0.00  0.00    +0.009 C 
ATOM     38  C   UNL     1       1.596  -2.217  -5.780  0.00  0.00    +0.009 C 
ENDBRANCH  22  36
ENDBRANCH   4  22
TORSDOF 10
