REMARK  Name = ZINC65236867
REMARK  5 active torsions:
REMARK  status: ('A' for Active; 'I' for Inactive)
REMARK    1  A    between atoms: C_1  and  C_2
REMARK    2  A    between atoms: C_5  and  N_8
REMARK    3  A    between atoms: C_10  and  C_13
REMARK    4  A    between atoms: C_15  and  C_18
REMARK    5  A    between atoms: N_20  and  C_21
REMARK                            x       y       z     vdW  Elec       q    Type
REMARK                         _______ _______ _______ _____ _____    ______ ____
ROOT
ATOM      1  C   UNL     1       0.101  -7.494   1.422  0.00  0.00    +0.224 A 
ATOM      2  N   UNL     1       0.122  -8.752   0.957  0.00  0.00    -0.182 NA
ATOM      3  C   UNL     1       0.131  -9.599   1.955  0.00  0.00    +0.314 A 
ATOM      4  O   UNL     1       0.116  -8.900   3.102  0.00  0.00    -0.328 OA
ATOM      5  N   UNL     1       0.102  -7.529   2.734  0.00  0.00    -0.054 NA
ENDROOT
BRANCH   1   8
ATOM      6  N   UNL     1       0.058  -4.173  -0.021  0.00  0.00    -0.219 N 
ATOM      7  C   UNL     1       0.069  -4.988   1.061  0.00  0.00    +0.148 A 
ATOM      8  C   UNL     1       0.085  -6.265   0.590  0.00  0.00    +0.153 A 
ATOM      9  N   UNL     1       0.084  -6.228  -0.750  0.00  0.00    -0.126 NA
ATOM     10  N   UNL     1       0.063  -5.004  -1.150  0.00  0.00    -0.060 NA
BRANCH   6  15
ATOM     11  C   UNL     1      -0.018   1.503   0.010  0.00  0.00    +0.044 C 
ATOM     12  C   UNL     1       0.002  -0.004   0.002  0.00  0.00    -0.050 A 
ATOM     13  C   UNL     1       0.006  -0.688  -1.200  0.00  0.00    +0.005 A 
ATOM     14  C   UNL     1       0.024  -2.068  -1.211  0.00  0.00    +0.028 A 
ATOM     15  C   UNL     1       0.040  -2.771  -0.013  0.00  0.00    +0.067 A 
ATOM     16  C   UNL     1       0.036  -2.082   1.192  0.00  0.00    +0.028 A 
ATOM     17  C   UNL     1       0.023  -0.700   1.196  0.00  0.00    +0.005 A 
ENDBRANCH   6  15
ENDBRANCH   1   8
BRANCH   3  18
ATOM     18  C   UNL     1       0.154 -11.077   1.839  0.00  0.00    +0.302 C 
ATOM     19  O   UNL     1       0.166 -11.601   0.743  0.00  0.00    -0.265 OA
ATOM     20  N   UNL     1       0.162 -11.840   2.950  0.00  0.00    -0.305 N 
ATOM     21  H   UNL     1       0.152 -11.422   3.825  0.00  0.00    +0.149 HD
BRANCH  20  22
ATOM     22  C   UNL     1       0.184 -13.300   2.836  0.00  0.00    +0.073 C 
ATOM     23  C   UNL     1      -1.244 -13.821   2.666  0.00  0.00    +0.022 C 
ATOM     24  C   UNL     1      -1.221 -15.346   2.546  0.00  0.00    +0.002 C 
ATOM     25  C   UNL     1      -0.606 -15.947   3.812  0.00  0.00    +0.000 C 
ATOM     26  C   UNL     1       0.822 -15.427   3.982  0.00  0.00    +0.002 C 
ATOM     27  C   UNL     1       0.799 -13.902   4.102  0.00  0.00    +0.022 C 
ENDBRANCH  20  22
ENDBRANCH   3  18
TORSDOF 4
