REMARK  Name = ZINC15246193
REMARK  6 active torsions:
REMARK  status: ('A' for Active; 'I' for Inactive)
REMARK    1  A    between atoms: C_1  and  C_2
REMARK    2  A    between atoms: C_2  and  C_23
REMARK    3  A    between atoms: N_5  and  C_9
REMARK    4  A    between atoms: C_9  and  C_10
REMARK    5  A    between atoms: C_10  and  C_11
REMARK    6  A    between atoms: N_16  and  C_17
REMARK                            x       y       z     vdW  Elec       q    Type
REMARK                         _______ _______ _______ _____ _____    ______ ____
ROOT
ATOM      1  C   UNL     1      -2.019   1.562   1.271  0.00  0.00    +0.047 C 
ATOM      2  C   UNL     1      -1.184   1.808   0.013  0.00  0.00    +0.135 C 
ATOM      3  C   UNL     1      -0.617   3.213   0.018  0.00  0.00    +0.251 C 
ATOM      4  O   UNL     1      -1.238   4.254   0.022  0.00  0.00    -0.272 OA
ATOM      5  N   UNL     1       0.723   3.065   0.010  0.00  0.00    -0.224 N 
ATOM      6  C   UNL     1       1.077   1.775   0.006  0.00  0.00    +0.310 C 
ATOM      7  O   UNL     1       2.230   1.391  -0.001  0.00  0.00    -0.252 OA
ATOM      8  N   UNL     1       0.014   0.950   0.010  0.00  0.00    -0.281 N 
ATOM      9  H   UNL     1       0.032  -0.019   0.008  0.00  0.00    +0.152 HD
ENDROOT
BRANCH   2  10
ATOM     10  C   UNL     1      -2.008   1.571  -1.227  0.00  0.00    -0.015 A 
ATOM     11  C   UNL     1      -2.749   2.602  -1.773  0.00  0.00    +0.006 A 
ATOM     12  C   UNL     1      -3.499   2.384  -2.912  0.00  0.00    +0.004 A 
ATOM     13  C   UNL     1      -3.521   1.132  -3.503  0.00  0.00    -0.044 A 
ATOM     14  C   UNL     1      -2.784   0.099  -2.954  0.00  0.00    -0.044 A 
ATOM     15  C   UNL     1      -2.029   0.321  -1.815  0.00  0.00    +0.010 A 
ATOM     16  C   UNL     1      -2.973  -1.157  -3.777  0.00  0.00    +0.036 C 
ATOM     17  C   UNL     1      -3.548  -0.675  -5.125  0.00  0.00    +0.009 C 
ATOM     18  C   UNL     1      -4.254   0.640  -4.732  0.00  0.00    +0.036 C 
ENDBRANCH   2  10
BRANCH   5  19
ATOM     19  C   UNL     1       1.674   4.179   0.008  0.00  0.00    +0.127 C 
BRANCH  19  20
ATOM     20  C   UNL     1       1.998   4.570  -1.435  0.00  0.00    +0.115 C 
BRANCH  20  21
ATOM     21  C   UNL     1       2.976   5.717  -1.438  0.00  0.00    +0.222 C 
ATOM     22  O   UNL     1       3.375   6.175  -0.389  0.00  0.00    -0.275 OA
ATOM     23  N   UNL     1       3.408   6.232  -2.606  0.00  0.00    -0.240 N 
ATOM     24  C   UNL     1       4.282   7.257  -2.608  0.00  0.00    +0.310 C 
ATOM     25  O   UNL     1       4.682   7.717  -1.557  0.00  0.00    -0.252 OA
ATOM     26  N   UNL     1       4.714   7.772  -3.777  0.00  0.00    -0.269 N 
ATOM     27  H   UNL     1       3.088   5.865  -3.446  0.00  0.00    +0.159 HD
ATOM     28  H   UNL     1       4.448   7.363  -4.615  0.00  0.00    +0.156 HD
BRANCH  26  29
ATOM     29  C   UNL     1       5.546   8.897  -3.780  0.00  0.00    +0.035 A 
ATOM     30  C   UNL     1       5.434   9.842  -4.792  0.00  0.00    +0.023 A 
ATOM     31  C   UNL     1       6.253  10.954  -4.790  0.00  0.00    +0.002 A 
ATOM     32  C   UNL     1       7.192  11.121  -3.788  0.00  0.00    +0.000 A 
ATOM     33  C   UNL     1       7.309  10.180  -2.782  0.00  0.00    +0.002 A 
ATOM     34  C   UNL     1       6.489   9.069  -2.775  0.00  0.00    +0.023 A 
ENDBRANCH  26  29
ENDBRANCH  20  21
ENDBRANCH  19  20
ENDBRANCH   5  19
TORSDOF 5
