REMARK  Name = ZINC23454077
REMARK  6 active torsions:
REMARK  status: ('A' for Active; 'I' for Inactive)
REMARK    1  A    between atoms: C_4  and  C_7
REMARK    2  A    between atoms: C_7  and  C_8
REMARK    3  A    between atoms: C_8  and  C_10
REMARK    4  A    between atoms: C_8  and  N_24
REMARK    5  A    between atoms: N_12  and  C_13
REMARK    6  A    between atoms: C_25  and  C_27
REMARK                            x       y       z     vdW  Elec       q    Type
REMARK                         _______ _______ _______ _____ _____    ______ ____
ROOT
ATOM      1  C   UNL     1      -1.323   1.604   0.156  0.00  0.00    +0.164 C 
ENDROOT
BRANCH   1   2
ATOM      2  C   UNL     1      -2.405   0.740  -0.436  0.00  0.00    +0.238 C 
ATOM      3  O   UNL     1      -2.178  -0.423  -0.696  0.00  0.00    -0.273 OA
ATOM      4  N   UNL     1      -3.625   1.258  -0.678  0.00  0.00    -0.284 N 
ATOM      5  H   UNL     1      -3.858   2.287  -0.364  0.00  0.00    +0.155 HD
BRANCH   4   6
ATOM      6  C   UNL     1      -4.597   0.488  -1.330  0.00  0.00    +0.037 A 
ATOM      7  C   UNL     1      -5.939   0.647  -1.010  0.00  0.00    +0.027 A 
ATOM      8  C   UNL     1      -6.899  -0.112  -1.652  0.00  0.00    +0.051 A 
ATOM      9  C   UNL     1      -6.526  -1.034  -2.616  0.00  0.00    +0.173 A 
ATOM     10  C   UNL     1      -5.181  -1.196  -2.940  0.00  0.00    +0.174 A 
ATOM     11  C   UNL     1      -4.220  -0.430  -2.300  0.00  0.00    +0.073 A 
ATOM     12  O   UNL     1      -5.077  -2.153  -3.907  0.00  0.00    -0.395 OA
ATOM     13  C   UNL     1      -6.398  -2.284  -4.463  0.00  0.00    +0.589 C 
ATOM     14  O   UNL     1      -7.264  -1.891  -3.382  0.00  0.00    -0.395 OA
ATOM     15  F   UNL     1      -6.558  -1.427  -5.557  0.00  0.00    -0.125 F 
ATOM     16  F   UNL     1      -6.645  -3.608  -4.838  0.00  0.00    -0.125 F 
ENDBRANCH   4   6
ENDBRANCH   1   2
BRANCH   1  17
ATOM     17  N   UNL     1      -0.101   0.813   0.321  0.00  0.00    -0.297 N 
ATOM     18  C   UNL     1       1.100   1.424   0.337  0.00  0.00    +0.280 C 
ATOM     19  O   UNL     1       1.170   2.633   0.220  0.00  0.00    -0.267 OA
ATOM     20  H   UNL     1      -0.164  -0.280   0.431  0.00  0.00    +0.150 HD
BRANCH  18  21
ATOM     21  C   UNL     1       2.324   0.631   0.496  0.00  0.00    +0.189 A 
ATOM     22  C   UNL     1       3.598   1.120   0.529  0.00  0.00    +0.054 A 
ATOM     23  C   UNL     1       4.450   0.017   0.696  0.00  0.00    +0.042 A 
ATOM     24  C   UNL     1       3.668  -1.083   0.757  0.00  0.00    +0.196 A 
ATOM     25  O   UNL     1       2.387  -0.709   0.641  0.00  0.00    -0.458 OA
ENDBRANCH  18  21
ENDBRANCH   1  17
BRANCH   1  26
ATOM     26  C   UNL     1      -1.778   2.129   1.520  0.00  0.00    +0.067 C 
BRANCH  26  30
ATOM     27  C   UNL     1       1.136   4.855   3.044  0.00  0.00    +0.000 A 
ATOM     28  C   UNL     1       0.098   5.320   2.259  0.00  0.00    +0.000 A 
ATOM     29  C   UNL     1      -0.845   4.438   1.765  0.00  0.00    +0.004 A 
ATOM     30  C   UNL     1      -0.750   3.090   2.057  0.00  0.00    -0.045 A 
ATOM     31  C   UNL     1       0.285   2.625   2.847  0.00  0.00    +0.004 A 
ATOM     32  C   UNL     1       1.231   3.507   3.336  0.00  0.00    +0.000 A 
ENDBRANCH  26  30
ENDBRANCH   1  26
TORSDOF 6
