REMARK  Name = ZINC04262965
REMARK  10 active torsions:
REMARK  status: ('A' for Active; 'I' for Inactive)
REMARK    1  A    between atoms: C_1  and  C_2
REMARK    2  A    between atoms: C_6  and  N_9
REMARK    3  A    between atoms: C_7  and  C_8
REMARK    4  A    between atoms: C_10  and  C_12
REMARK    5  A    between atoms: C_13  and  C_30
REMARK    6  A    between atoms: C_18  and  C_20
REMARK    7  A    between atoms: C_23  and  O_28
REMARK    8  A    between atoms: C_25  and  O_26
REMARK    9  A    between atoms: O_26  and  C_27
REMARK   10  A    between atoms: O_28  and  C_29
REMARK                            x       y       z     vdW  Elec       q    Type
REMARK                         _______ _______ _______ _____ _____    ______ ____
ROOT
ATOM      1  C   UNL     1       0.310  -4.968   3.503  0.00  0.00    +0.056 C 
ATOM      2  C   UNL     1      -0.101  -6.253   3.465  0.00  0.00    +0.019 C 
ATOM      3  N   UNL     1      -0.043  -7.045   4.577  0.00  0.00    -0.273 N 
ATOM      4  C   UNL     1       0.414  -6.626   5.764  0.00  0.00    +0.304 C 
ATOM      5  O   UNL     1       0.428  -7.405   6.697  0.00  0.00    -0.252 OA
ATOM      6  N   UNL     1       0.859  -5.369   5.958  0.00  0.00    -0.288 N 
ATOM      7  C   UNL     1       0.844  -4.436   4.818  0.00  0.00    +0.145 C 
ATOM      8  C   UNL     1      -0.634  -6.823   2.176  0.00  0.00    +0.061 C 
ATOM      9  H   UNL     1      -0.349  -7.962   4.503  0.00  0.00    +0.156 HD
ATOM     10  H   UNL     1       1.186  -5.086   6.826  0.00  0.00    +0.151 HD
ENDROOT
BRANCH   7  11
ATOM     11  C   UNL     1       2.253  -3.955   4.586  0.00  0.00    +0.019 A 
ATOM     12  C   UNL     1       3.320  -4.795   4.838  0.00  0.00    +0.013 A 
ATOM     13  C   UNL     1       4.613  -4.357   4.627  0.00  0.00    +0.046 A 
ATOM     14  C   UNL     1       4.843  -3.070   4.160  0.00  0.00    +0.124 A 
ATOM     15  C   UNL     1       3.774  -2.225   3.906  0.00  0.00    +0.091 A 
ATOM     16  C   UNL     1       2.477  -2.669   4.114  0.00  0.00    +0.129 A 
BRANCH  16  17
ATOM     17  O   UNL     1       1.427  -1.845   3.860  0.00  0.00    -0.495 OA
ATOM     18  C   UNL     1       1.726  -0.573   3.283  0.00  0.00    +0.277 C 
ENDBRANCH  16  17
BRANCH  14  19
ATOM     19  O   UNL     1       6.115  -2.639   3.952  0.00  0.00    -0.495 OA
ATOM     20  C   UNL     1       7.168  -3.563   4.236  0.00  0.00    +0.277 C 
ENDBRANCH  14  19
ENDBRANCH   7  11
BRANCH   1  22
ATOM     21  N   UNL     1       1.143  -4.313   1.356  0.00  0.00    -0.281 N 
ATOM     22  C   UNL     1       0.249  -4.146   2.351  0.00  0.00    +0.248 C 
ATOM     23  O   UNL     1      -0.610  -3.288   2.260  0.00  0.00    -0.270 OA
ATOM     24  H   UNL     1       1.813  -5.011   1.419  0.00  0.00    +0.155 HD
BRANCH  21  30
ATOM     25  C   UNL     1       3.439  -2.276  -2.484  0.00  0.00    +0.044 C 
ATOM     26  C   UNL     1       2.202  -2.474  -1.646  0.00  0.00    -0.046 A 
ATOM     27  C   UNL     1       1.026  -1.831  -1.987  0.00  0.00    +0.004 A 
ATOM     28  C   UNL     1      -0.111  -2.009  -1.220  0.00  0.00    +0.002 A 
ATOM     29  C   UNL     1      -0.075  -2.832  -0.111  0.00  0.00    +0.023 A 
ATOM     30  C   UNL     1       1.104  -3.480   0.234  0.00  0.00    +0.037 A 
ATOM     31  C   UNL     1       2.243  -3.302  -0.541  0.00  0.00    -0.026 A 
ATOM     32  C   UNL     1       3.522  -4.008  -0.174  0.00  0.00    +0.046 C 
ENDBRANCH  21  30
ENDBRANCH   1  22
TORSDOF 5
