REMARK  Name = ZINC39508945
REMARK  9 active torsions:
REMARK  status: ('A' for Active; 'I' for Inactive)
REMARK    1  A    between atoms: C_1  and  C_2
REMARK    2  A    between atoms: C_2  and  C_3
REMARK    3  A    between atoms: C_2  and  S_4
REMARK    4  A    between atoms: S_4  and  N_7
REMARK    5  A    between atoms: C_9  and  C_28
REMARK    6  A    between atoms: C_15  and  S_18
REMARK    7  A    between atoms: S_18  and  O_21
REMARK    8  A    between atoms: O_21  and  C_22
REMARK    9  A    between atoms: C_33  and  O_34
REMARK                            x       y       z     vdW  Elec       q    Type
REMARK                         _______ _______ _______ _____ _____    ______ ____
ROOT
ATOM      1  N   UNL     1       0.017  -0.011   2.755  0.00  0.00    -0.174 NA
ATOM      2  C   UNL     1       0.304   1.240   3.486  0.00  0.00    +0.118 C 
ATOM      3  C   UNL     1      -1.050   1.651   4.118  0.00  0.00    +0.040 C 
ATOM      4  C   UNL     1      -1.655   0.270   4.492  0.00  0.00    +0.033 C 
ATOM      5  C   UNL     1      -1.161  -0.630   3.353  0.00  0.00    +0.045 C 
ATOM      6  C   UNL     1      -2.270  -0.854   2.310  0.00  0.00    +0.026 C 
ATOM      7  C   UNL     1      -1.885  -2.187   1.631  0.00  0.00    +0.032 C 
ATOM      8  C   UNL     1      -0.984  -2.943   2.624  0.00  0.00    +0.173 C 
ATOM      9  C   UNL     1      -0.851  -2.045   3.873  0.00  0.00    +0.053 C 
ENDROOT
BRANCH   3  10
ATOM     10  C   UNL     1      -0.837   2.499   5.346  0.00  0.00    -0.002 A 
ATOM     11  C   UNL     1      -0.103   2.006   6.407  0.00  0.00    +0.007 A 
ATOM     12  C   UNL     1       0.092   2.783   7.534  0.00  0.00    +0.001 A 
ATOM     13  C   UNL     1      -0.447   4.055   7.602  0.00  0.00    +0.004 A 
ATOM     14  C   UNL     1      -1.182   4.552   6.543  0.00  0.00    +0.046 A 
ATOM     15  C   UNL     1      -1.374   3.776   5.409  0.00  0.00    +0.120 A 
BRANCH  15  16
ATOM     16  O   UNL     1      -2.092   4.265   4.364  0.00  0.00    -0.506 OA
ATOM     17  H   UNL     1      -3.040   4.078   4.415  0.00  0.00    +0.292 HD
ENDBRANCH  15  16
ENDBRANCH   3  10
BRANCH   1  18
ATOM     18  S   UNL     1       0.879  -0.605   1.472  0.00  0.00    +0.035 S 
ATOM     19  O   UNL     1       0.930   0.468   0.541  0.00  0.00    -0.158 OA
ATOM     20  O   UNL     1       0.235  -1.826   1.136  0.00  0.00    -0.158 OA
BRANCH  18  22
ATOM     21  C   UNL     1       2.436  -1.955   3.271  0.00  0.00    +0.033 C 
ATOM     22  C   UNL     1       2.535  -0.934   2.135  0.00  0.00    +0.142 C 
ATOM     23  C   UNL     1       3.428  -1.493   1.025  0.00  0.00    +0.033 C 
ENDBRANCH  18  22
ENDBRANCH   1  18
BRANCH   8  24
ATOM     24  S   UNL     1      -1.747  -4.526   3.075  0.00  0.00    +0.124 S 
ATOM     25  O   UNL     1      -0.855  -5.289   3.876  0.00  0.00    -0.136 OA
ATOM     26  O   UNL     1      -3.093  -4.322   3.484  0.00  0.00    -0.136 OA
BRANCH  24  27
ATOM     27  O   UNL     1      -1.852  -5.297   1.767  0.00  0.00    -0.346 OA
BRANCH  27  28
ATOM     28  C   UNL     1      -0.669  -5.800   1.326  0.00  0.00    +0.156 A 
ATOM     29  C   UNL     1       0.141  -5.042   0.492  0.00  0.00    +0.048 A 
ATOM     30  C   UNL     1       1.343  -5.555   0.046  0.00  0.00    +0.004 A 
ATOM     31  C   UNL     1       1.739  -6.824   0.428  0.00  0.00    +0.000 A 
ATOM     32  C   UNL     1       0.934  -7.581   1.259  0.00  0.00    +0.004 A 
ATOM     33  C   UNL     1      -0.266  -7.070   1.713  0.00  0.00    +0.048 A 
ENDBRANCH  27  28
ENDBRANCH  24  27
ENDBRANCH   8  24
TORSDOF 7
