REMARK  Name = ZINC30869477
REMARK  8 active torsions:
REMARK  status: ('A' for Active; 'I' for Inactive)
REMARK    1  A    between atoms: C_1  and  C_2
REMARK    2  A    between atoms: C_3  and  N_15
REMARK    3  A    between atoms: N_6  and  C_9
REMARK    4  A    between atoms: N_7  and  C_8
REMARK    5  A    between atoms: N_15  and  S_16
REMARK    6  A    between atoms: S_16  and  C_19
REMARK    7  A    between atoms: C_22  and  O_25
REMARK    8  A    between atoms: O_25  and  C_26
REMARK                            x       y       z     vdW  Elec       q    Type
REMARK                         _______ _______ _______ _____ _____    ______ ____
ROOT
ATOM      1  N   UNL     1      -2.639   0.862   0.360  0.00  0.00    -0.209 N 
ATOM      2  H   UNL     1      -2.898  -0.206   0.381  0.00  0.00    +0.174 HD
ENDROOT
BRANCH   1   5
ATOM      3  C   UNL     1      -0.532  -1.014  -0.830  0.00  0.00    +0.067 C 
ATOM      4  C   UNL     1      -0.406   0.469  -0.595  0.00  0.00    +0.061 A 
ATOM      5  C   UNL     1      -1.357   1.269  -0.068  0.00  0.00    +0.135 A 
ATOM      6  C   UNL     1      -0.843   2.591  -0.021  0.00  0.00    +0.295 A 
ATOM      7  O   UNL     1      -1.429   3.575   0.393  0.00  0.00    -0.264 OA
ATOM      8  N   UNL     1       0.412   2.561  -0.514  0.00  0.00    -0.216 N 
ATOM      9  N   UNL     1       0.697   1.238  -0.877  0.00  0.00    -0.282 N 
ATOM     10  C   UNL     1       1.955   0.757  -1.456  0.00  0.00    +0.171 C 
BRANCH   8  11
ATOM     11  C   UNL     1       1.274   3.654  -0.639  0.00  0.00    +0.067 A 
ATOM     12  C   UNL     1       2.620   3.518  -0.326  0.00  0.00    +0.028 A 
ATOM     13  C   UNL     1       3.471   4.599  -0.456  0.00  0.00    +0.002 A 
ATOM     14  C   UNL     1       2.981   5.818  -0.887  0.00  0.00    +0.000 A 
ATOM     15  C   UNL     1       1.640   5.958  -1.194  0.00  0.00    +0.002 A 
ATOM     16  C   UNL     1       0.785   4.880  -1.072  0.00  0.00    +0.028 A 
ENDBRANCH   8  11
ENDBRANCH   1   5
BRANCH   1  17
ATOM     17  S   UNL     1      -3.752   1.994   0.831  0.00  0.00    +0.073 S 
ATOM     18  O   UNL     1      -4.929   1.282   1.186  0.00  0.00    -0.150 OA
ATOM     19  O   UNL     1      -3.087   2.867   1.734  0.00  0.00    -0.150 OA
BRANCH  17  20
ATOM     20  C   UNL     1      -4.153   2.953  -0.592  0.00  0.00    +0.109 A 
ATOM     21  C   UNL     1      -3.620   4.220  -0.743  0.00  0.00    +0.032 A 
ATOM     22  C   UNL     1      -3.929   4.971  -1.860  0.00  0.00    +0.048 A 
ATOM     23  C   UNL     1      -4.783   4.459  -2.826  0.00  0.00    +0.129 A 
ATOM     24  C   UNL     1      -5.322   3.189  -2.668  0.00  0.00    +0.048 A 
ATOM     25  C   UNL     1      -5.005   2.440  -1.552  0.00  0.00    +0.032 A 
BRANCH  23  26
ATOM     26  O   UNL     1      -5.092   5.198  -3.923  0.00  0.00    -0.456 OA
BRANCH  26  27
ATOM     27  C   UNL     1      -6.313   5.793  -3.969  0.00  0.00    +0.128 A 
ATOM     28  C   UNL     1      -7.170   5.705  -2.881  0.00  0.00    +0.046 A 
ATOM     29  C   UNL     1      -8.408   6.316  -2.928  0.00  0.00    +0.004 A 
ATOM     30  C   UNL     1      -8.798   7.004  -4.062  0.00  0.00    +0.000 A 
ATOM     31  C   UNL     1      -7.949   7.088  -5.149  0.00  0.00    +0.004 A 
ATOM     32  C   UNL     1      -6.707   6.484  -5.106  0.00  0.00    +0.046 A 
ENDBRANCH  26  27
ENDBRANCH  23  26
ENDBRANCH  17  20
ENDBRANCH   1  17
TORSDOF 6
