REMARK  Name = ZINC09668382
REMARK  5 active torsions:
REMARK  status: ('A' for Active; 'I' for Inactive)
REMARK    1  A    between atoms: C_1  and  C_2
REMARK    2  A    between atoms: C_3  and  C_29
REMARK    3  A    between atoms: N_6  and  C_19
REMARK    4  A    between atoms: C_7  and  C_9
REMARK    5  A    between atoms: C_19  and  C_20
REMARK                            x       y       z     vdW  Elec       q    Type
REMARK                         _______ _______ _______ _____ _____    ______ ____
ROOT
ATOM      1  C   UNL     1       3.281   3.914  -2.440  0.00  0.00    +0.042 C 
ATOM      2  C   UNL     1       4.396   3.778  -1.435  0.00  0.00    -0.040 C 
ATOM      3  C   UNL     1       5.675   4.084  -1.628  0.00  0.00    +0.013 C 
ATOM      4  C   UNL     1       6.441   3.808  -0.408  0.00  0.00    +0.243 C 
ATOM      5  O   UNL     1       7.637   3.987  -0.280  0.00  0.00    -0.270 OA
ATOM      6  N   UNL     1       5.626   3.326   0.548  0.00  0.00    -0.283 N 
ATOM      7  C   UNL     1       4.272   3.267  -0.019  0.00  0.00    +0.135 C 
ATOM      8  C   UNL     1       6.252   4.632  -2.908  0.00  0.00    +0.049 C 
ENDROOT
BRANCH   7   9
ATOM      9  C   UNL     1       3.771   1.846  -0.021  0.00  0.00    +0.002 A 
ATOM     10  C   UNL     1       4.522   0.734  -0.059  0.00  0.00    +0.089 A 
ATOM     11  N   UNL     1       3.717  -0.373  -0.046  0.00  0.00    -0.360 N 
ATOM     12  H   UNL     1       4.032  -1.290  -0.068  0.00  0.00    +0.165 HD
ATOM     13  C   UNL     1       2.395   0.009   0.002  0.00  0.00    +0.047 A 
ATOM     14  C   UNL     1       2.371   1.416   0.020  0.00  0.00    +0.005 A 
ATOM     15  C   UNL     1       1.149   2.091   0.067  0.00  0.00    +0.010 A 
ATOM     16  C   UNL     1      -0.018   1.380   0.096  0.00  0.00    +0.001 A 
ATOM     17  C   UNL     1       0.002  -0.008   0.079  0.00  0.00    +0.002 A 
ATOM     18  C   UNL     1       1.196  -0.694   0.032  0.00  0.00    +0.026 A 
ENDBRANCH   7   9
BRANCH   6  19
ATOM     19  C   UNL     1       6.016   2.933   1.905  0.00  0.00    +0.144 C 
BRANCH  19  20
ATOM     20  C   UNL     1       5.785   4.085   2.848  0.00  0.00    -0.026 A 
ATOM     21  C   UNL     1       4.604   4.165   3.563  0.00  0.00    +0.009 A 
ATOM     22  C   UNL     1       4.388   5.220   4.430  0.00  0.00    +0.050 A 
ATOM     23  C   UNL     1       5.354   6.201   4.583  0.00  0.00    +0.166 A 
ATOM     24  C   UNL     1       6.543   6.121   3.862  0.00  0.00    +0.167 A 
ATOM     25  C   UNL     1       6.756   5.058   3.000  0.00  0.00    +0.054 A 
ATOM     26  O   UNL     1       7.322   7.194   4.185  0.00  0.00    -0.453 OA
ATOM     27  C   UNL     1       6.432   8.145   4.799  0.00  0.00    +0.466 C 
ATOM     28  O   UNL     1       5.388   7.325   5.357  0.00  0.00    -0.453 OA
ENDBRANCH  19  20
ENDBRANCH   6  19
TORSDOF 3
