REMARK  Name = ZINC34830408
REMARK  12 active torsions:
REMARK  status: ('A' for Active; 'I' for Inactive)
REMARK    1  A    between atoms: C_1  and  C_2
REMARK    2  A    between atoms: C_2  and  C_3
REMARK    3  A    between atoms: C_3  and  C_4
REMARK    4  A    between atoms: C_4  and  C_5
REMARK    5  A    between atoms: C_5  and  C_7
REMARK    6  A    between atoms: C_5  and  C_9
REMARK    7  A    between atoms: C_7  and  C_8
REMARK    8  A    between atoms: C_18  and  C_20
REMARK    9  A    between atoms: C_20  and  C_22
REMARK   10  A    between atoms: C_20  and  N_23
REMARK   11  A    between atoms: C_31  and  C_33
REMARK   12  A    between atoms: C_38  and  C_39
REMARK                            x       y       z     vdW  Elec       q    Type
REMARK                         _______ _______ _______ _____ _____    ______ ____
ROOT
ATOM      1  C   UNL     1      -8.177  -5.494  -1.314  0.00  0.00    +0.018 C 
ATOM      2  C   UNL     1      -8.537  -4.565  -2.475  0.00  0.00    -0.004 C 
ENDROOT
BRANCH   1  12
ATOM      3  C   UNL     1      -2.411  -6.447  -0.926  0.00  0.00    +0.219 C 
ATOM      4  O   UNL     1      -1.696  -7.426  -0.895  0.00  0.00    -0.275 OA
ATOM      5  N   UNL     1      -3.724  -6.561  -0.642  0.00  0.00    -0.300 N 
ATOM      6  C   UNL     1      -4.322  -7.827  -0.398  0.00  0.00    +0.109 C 
ATOM      7  C   UNL     1      -4.750  -8.605  -1.685  0.00  0.00    +0.038 C 
ATOM      8  C   UNL     1      -5.305  -7.554  -2.700  0.00  0.00    +0.109 C 
ATOM      9  N   UNL     1      -6.066  -6.507  -2.112  0.00  0.00    -0.301 N 
ATOM     10  C   UNL     1      -5.354  -5.237  -1.818  0.00  0.00    +0.126 C 
ATOM     11  C   UNL     1      -4.608  -5.370  -0.565  0.00  0.00    +0.126 C 
ATOM     12  C   UNL     1      -7.376  -6.660  -1.834  0.00  0.00    +0.202 C 
ATOM     13  O   UNL     1      -7.910  -7.736  -2.002  0.00  0.00    -0.277 OA
BRANCH   3  14
ATOM     14  C   UNL     1      -1.832  -5.101  -1.281  0.00  0.00    +0.075 C 
BRANCH  14  15
ATOM     15  C   UNL     1      -0.717  -5.283  -2.313  0.00  0.00    +0.009 C 
ATOM     16  C   UNL     1      -1.302  -5.872  -3.598  0.00  0.00    +0.004 C 
ENDBRANCH  14  15
BRANCH  14  17
ATOM     17  C   UNL     1      -1.261  -4.444  -0.024  0.00  0.00    +0.013 C 
BRANCH  17  18
ATOM     18  C   UNL     1      -0.786  -3.029  -0.359  0.00  0.00    +0.000 C 
BRANCH  18  20
ATOM     19  C   UNL     1       0.261  -0.956   0.564  0.00  0.00    +0.004 C 
ATOM     20  C   UNL     1      -0.215  -2.371   0.899  0.00  0.00    -0.003 C 
ENDBRANCH  18  20
ENDBRANCH  17  18
ENDBRANCH  14  17
ENDBRANCH   3  14
ENDBRANCH   1  12
BRANCH   1  21
ATOM     21  N   UNL     1      -9.407  -5.988  -0.682  0.00  0.00    +0.395 N 
ATOM     22  C   UNL     1     -10.185  -6.751  -1.668  0.00  0.00    -0.071 C 
ATOM     23  C   UNL     1     -11.602  -6.979  -1.115  0.00  0.00    +0.024 C 
ATOM     24  C   UNL     1     -11.464  -7.460   0.292  0.00  0.00    -0.010 A 
ATOM     25  C   UNL     1     -10.334  -7.419   1.054  0.00  0.00    -0.047 A 
ATOM     26  C   UNL     1     -10.437  -7.931   2.345  0.00  0.00    +0.010 A 
ATOM     27  C   UNL     1     -11.616  -8.430   2.784  0.00  0.00    +0.045 A 
ATOM     28  S   UNL     1     -12.669  -8.197   1.359  0.00  0.00    -0.101 S 
ATOM     29  C   UNL     1      -9.055  -6.830   0.468  0.00  0.00    -0.005 C 
ATOM     30  H   UNL     1      -9.955  -5.203  -0.363  0.00  0.00    -0.079 HD
BRANCH  29  31
ATOM     31  C   UNL     1      -8.360  -5.994   1.512  0.00  0.00    -0.054 A 
ATOM     32  C   UNL     1      -8.628  -4.641   1.605  0.00  0.00    +0.002 A 
ATOM     33  C   UNL     1      -7.990  -3.874   2.562  0.00  0.00    +0.000 A 
ATOM     34  C   UNL     1      -7.084  -4.461   3.426  0.00  0.00    +0.000 A 
ATOM     35  C   UNL     1      -6.817  -5.814   3.334  0.00  0.00    +0.003 A 
ATOM     36  C   UNL     1      -7.458  -6.581   2.379  0.00  0.00    -0.049 A 
ATOM     37  C   UNL     1      -7.171  -8.057   2.282  0.00  0.00    +0.044 C 
ENDBRANCH  29  31
ENDBRANCH   1  21
TORSDOF 8
