REMARK  Name = ZINC36253861
REMARK  6 active torsions:
REMARK  status: ('A' for Active; 'I' for Inactive)
REMARK    1  A    between atoms: C_1  and  C_2
REMARK    2  A    between atoms: C_5  and  C_8
REMARK    3  A    between atoms: C_8  and  N_9
REMARK    4  A    between atoms: N_14  and  C_15
REMARK    5  A    between atoms: C_15  and  C_17
REMARK    6  A    between atoms: C_17  and  N_18
REMARK                            x       y       z     vdW  Elec       q    Type
REMARK                         _______ _______ _______ _____ _____    ______ ____
ROOT
ATOM      1  C   UNL     1       1.955  -4.934   4.819  0.00  0.00    +0.215 C 
ENDROOT
BRANCH   1   2
ATOM      2  N   UNL     1       3.015  -5.297   5.763  0.00  0.00    -0.215 N 
ATOM      3  C   UNL     1       3.208  -6.544   6.245  0.00  0.00    +0.251 C 
ATOM      4  O   UNL     1       2.565  -7.539   5.990  0.00  0.00    -0.272 OA
ATOM      5  C   UNL     1       4.396  -6.433   7.165  0.00  0.00    +0.138 C 
ATOM      6  C   UNL     1       4.032  -6.851   8.596  0.00  0.00    +0.045 C 
ATOM      7  C   UNL     1       5.354  -7.473   9.100  0.00  0.00    +0.038 C 
ATOM      8  C   UNL     1       6.074  -7.942   7.852  0.00  0.00    -0.042 A 
ATOM      9  C   UNL     1       5.519  -7.338   6.736  0.00  0.00    -0.012 A 
ATOM     10  C   UNL     1       6.026  -7.622   5.479  0.00  0.00    +0.006 A 
ATOM     11  C   UNL     1       7.080  -8.504   5.335  0.00  0.00    +0.000 A 
ATOM     12  C   UNL     1       7.632  -9.106   6.450  0.00  0.00    +0.000 A 
ATOM     13  C   UNL     1       7.129  -8.824   7.705  0.00  0.00    +0.004 A 
ATOM     14  N   UNL     1       4.780  -5.023   7.103  0.00  0.00    -0.281 N 
ATOM     15  C   UNL     1       3.917  -4.435   6.251  0.00  0.00    +0.310 C 
ATOM     16  O   UNL     1       3.950  -3.255   5.961  0.00  0.00    -0.252 OA
ATOM     17  H   UNL     1       5.512  -4.597   7.577  0.00  0.00    +0.152 HD
ENDBRANCH   1   2
BRANCH   1  18
ATOM     18  C   UNL     1       2.458  -5.100   3.409  0.00  0.00    +0.256 C 
ATOM     19  O   UNL     1       3.595  -5.486   3.211  0.00  0.00    -0.272 OA
BRANCH  18  25
ATOM     20  N   UNL     1       1.447  -4.746  -0.032  0.00  0.00    -0.324 N 
ATOM     21  C   UNL     1       2.097  -4.956  -1.207  0.00  0.00    +0.095 A 
ATOM     22  C   UNL     1       3.362  -5.386  -1.140  0.00  0.00    +0.066 A 
ATOM     23  S   UNL     1       3.624  -5.490   0.621  0.00  0.00    -0.061 S 
ATOM     24  C   UNL     1       2.108  -4.974   1.134  0.00  0.00    +0.166 A 
ATOM     25  N   UNL     1       1.662  -4.827   2.384  0.00  0.00    -0.155 NA
BRANCH  20  26
ATOM     26  C   UNL     1       0.059  -4.275  -0.021  0.00  0.00    +0.158 C 
BRANCH  26  31
ATOM     27  C   UNL     1      -0.018   1.503   0.010  0.00  0.00    +0.044 C 
ATOM     28  C   UNL     1       0.002  -0.004   0.002  0.00  0.00    -0.050 A 
ATOM     29  C   UNL     1       0.006  -0.689  -1.199  0.00  0.00    +0.004 A 
ATOM     30  C   UNL     1       0.025  -2.071  -1.206  0.00  0.00    +0.005 A 
ATOM     31  C   UNL     1       0.040  -2.768  -0.013  0.00  0.00    -0.028 A 
ATOM     32  C   UNL     1       0.037  -2.084   1.188  0.00  0.00    +0.005 A 
ATOM     33  C   UNL     1       0.023  -0.702   1.195  0.00  0.00    +0.004 A 
ENDBRANCH  26  31
ENDBRANCH  20  26
ENDBRANCH  18  25
ENDBRANCH   1  18
TORSDOF 5
