REMARK  Name = ZINC40826786
REMARK  8 active torsions:
REMARK  status: ('A' for Active; 'I' for Inactive)
REMARK    1  A    between atoms: C_1  and  C_2
REMARK    2  A    between atoms: C_6  and  C_12
REMARK    3  A    between atoms: C_10  and  C_11
REMARK    4  A    between atoms: C_12  and  C_13
REMARK    5  A    between atoms: N_15  and  N_16
REMARK    6  A    between atoms: C_23  and  C_39
REMARK    7  A    between atoms: C_24  and  C_26
REMARK    8  A    between atoms: N_28  and  C_29
REMARK                            x       y       z     vdW  Elec       q    Type
REMARK                         _______ _______ _______ _____ _____    ______ ____
ROOT
ATOM      1  N   UNL     1       3.053  -6.902  -2.357  0.00  0.00    -0.184 NA
ATOM      2  C   UNL     1       3.300  -7.867  -3.188  0.00  0.00    +0.070 C 
ATOM      3  C   UNL     1       2.199  -8.734  -3.782  0.00  0.00    +0.058 C 
ATOM      4  C   UNL     1       2.676 -10.190  -3.771  0.00  0.00    +0.014 C 
ATOM      5  C   UNL     1       3.888 -10.368  -4.689  0.00  0.00    +0.075 C 
ATOM      6  C   UNL     1       4.947  -9.360  -4.322  0.00  0.00    +0.115 A 
ATOM      7  C   UNL     1       4.671  -8.202  -3.631  0.00  0.00    +0.042 A 
ATOM      8  C   UNL     1       5.878  -7.509  -3.471  0.00  0.00    +0.009 A 
ATOM      9  C   UNL     1       6.838  -8.270  -4.078  0.00  0.00    +0.193 A 
ATOM     10  O   UNL     1       6.253  -9.384  -4.578  0.00  0.00    -0.454 OA
ATOM     11  C   UNL     1       6.077  -6.190  -2.770  0.00  0.00    +0.048 C 
ENDROOT
BRANCH   1  14
ATOM     12  C   UNL     1       1.478  -5.626  -1.109  0.00  0.00    +0.237 C 
ATOM     13  O   UNL     1       2.390  -4.959  -0.665  0.00  0.00    -0.274 OA
ATOM     14  N   UNL     1       1.734  -6.629  -1.972  0.00  0.00    -0.206 N 
ATOM     15  H   UNL     1       1.005  -7.162  -2.326  0.00  0.00    +0.177 HD
BRANCH  12  16
ATOM     16  C   UNL     1       0.059  -5.333  -0.694  0.00  0.00    +0.136 C 
BRANCH  16  22
ATOM     17  C   UNL     1      -0.007   1.522  -0.009  0.00  0.00    +0.044 C 
ATOM     18  C   UNL     1       0.007   0.015  -0.023  0.00  0.00    -0.044 A 
ATOM     19  C   UNL     1       0.016  -0.661  -1.234  0.00  0.00    +0.004 A 
ATOM     20  C   UNL     1       0.028  -2.028  -1.265  0.00  0.00    +0.012 A 
ATOM     21  C   UNL     1       0.033  -2.746  -0.070  0.00  0.00    +0.024 A 
ATOM     22  C   UNL     1       0.047  -4.174   0.269  0.00  0.00    +0.007 A 
ATOM     23  C   UNL     1       0.046  -4.239   1.608  0.00  0.00    +0.200 A 
ATOM     24  O   UNL     1       0.033  -3.002   2.132  0.00  0.00    -0.462 OA
ATOM     25  C   UNL     1       0.025  -2.067   1.160  0.00  0.00    +0.138 A 
ATOM     26  C   UNL     1       0.018  -0.678   1.169  0.00  0.00    -0.005 A 
ATOM     27  C   UNL     1       0.015   0.069   2.478  0.00  0.00    +0.048 C 
ENDBRANCH  16  22
ENDBRANCH  12  16
ENDBRANCH   1  14
BRANCH   9  28
ATOM     28  C   UNL     1       8.265  -7.940  -4.162  0.00  0.00    +0.284 C 
ATOM     29  O   UNL     1       8.682  -6.910  -3.664  0.00  0.00    -0.266 OA
ATOM     30  N   UNL     1       9.114  -8.776  -4.790  0.00  0.00    -0.277 N 
ATOM     31  H   UNL     1       8.798  -9.633  -5.117  0.00  0.00    +0.155 HD
BRANCH  30  32
ATOM     32  C   UNL     1      10.449  -8.410  -4.972  0.00  0.00    +0.060 A 
ATOM     33  C   UNL     1      10.806  -7.079  -5.000  0.00  0.00    +0.025 A 
ATOM     34  C   UNL     1      12.133  -6.700  -5.181  0.00  0.00    +0.003 A 
ATOM     35  C   UNL     1      13.113  -7.633  -5.334  0.00  0.00    +0.010 A 
ATOM     36  C   UNL     1      12.790  -8.999  -5.311  0.00  0.00    +0.002 A 
ATOM     37  C   UNL     1      11.445  -9.400  -5.122  0.00  0.00    +0.092 A 
ATOM     38  N   UNL     1      11.134 -10.699  -5.095  0.00  0.00    -0.253 NA
ATOM     39  C   UNL     1      12.054 -11.623  -5.234  0.00  0.00    +0.111 A 
ATOM     40  C   UNL     1      13.396 -11.298  -5.417  0.00  0.00    +0.020 A 
ATOM     41  C   UNL     1      13.780  -9.988  -5.467  0.00  0.00    +0.011 A 
ENDBRANCH  30  32
ENDBRANCH   9  28
TORSDOF 5
