REMARK  Name = ZINC14458732
REMARK  6 active torsions:
REMARK  status: ('A' for Active; 'I' for Inactive)
REMARK    1  A    between atoms: C_1  and  C_2
REMARK    2  A    between atoms: C_2  and  C_3
REMARK    3  A    between atoms: C_3  and  C_4
REMARK    4  A    between atoms: N_6  and  C_7
REMARK    5  A    between atoms: C_20  and  C_23
REMARK    6  A    between atoms: C_26  and  C_29
REMARK                            x       y       z     vdW  Elec       q    Type
REMARK                         _______ _______ _______ _____ _____    ______ ____
ROOT
ATOM      1  C   UNL     1      -2.364   1.109  -0.073  0.00  0.00    +0.039 A 
ATOM      2  C   UNL     1      -2.292  -0.277  -0.073  0.00  0.00    +0.025 A 
ATOM      3  C   UNL     1      -3.454  -1.020  -0.161  0.00  0.00    +0.023 A 
ATOM      4  C   UNL     1      -4.678  -0.390  -0.240  0.00  0.00    +0.062 A 
ATOM      5  C   UNL     1      -4.770   1.004  -0.238  0.00  0.00    +0.052 A 
ATOM      6  C   UNL     1      -3.590   1.747  -0.158  0.00  0.00    +0.003 A 
ATOM      7  C   UNL     1      -3.699   3.221  -0.206  0.00  0.00    +0.050 C 
ATOM      8  C   UNL     1      -2.713   4.118   0.446  0.00  0.00    -0.023 C 
ATOM      9  C   UNL     1      -3.342   5.217   0.847  0.00  0.00    -0.030 C 
ATOM     10  C   UNL     1      -4.833   5.114   0.517  0.00  0.00    +0.033 C 
ATOM     11  C   UNL     1      -5.038   3.595   0.502  0.00  0.00    +0.029 C 
ATOM     12  C   UNL     1      -6.117   3.033  -0.400  0.00  0.00    +0.105 C 
ATOM     13  N   UNL     1      -6.044   1.566  -0.299  0.00  0.00    -0.335 N 
ATOM     14 CL   UNL     1      -6.125  -1.343  -0.345  0.00  0.00    -0.082 Cl
ATOM     15  H   UNL     1      -6.599   1.126  -1.017  0.00  0.00    +0.147 HD
ENDROOT
BRANCH  12  16
ATOM     16  C   UNL     1      -7.470   3.512   0.058  0.00  0.00    -0.027 A 
ATOM     17  C   UNL     1      -8.079   2.925   1.151  0.00  0.00    +0.006 A 
ATOM     18  C   UNL     1      -9.318   3.368   1.574  0.00  0.00    +0.004 A 
ATOM     19  C   UNL     1      -9.954   4.392   0.896  0.00  0.00    -0.050 A 
ATOM     20  C   UNL     1      -9.348   4.975  -0.201  0.00  0.00    +0.004 A 
ATOM     21  C   UNL     1      -8.106   4.536  -0.620  0.00  0.00    +0.006 A 
ATOM     22  C   UNL     1     -11.307   4.872   1.354  0.00  0.00    +0.044 C 
ENDBRANCH  12  16
BRANCH   1  25
ATOM     23  C   UNL     1      -0.146   1.407   0.735  0.00  0.00    +0.217 C 
ATOM     24  O   UNL     1      -0.256   0.386   1.380  0.00  0.00    -0.275 OA
ATOM     25  N   UNL     1      -1.191   1.867   0.018  0.00  0.00    -0.285 N 
ATOM     26  H   UNL     1      -1.129   2.722  -0.435  0.00  0.00    +0.155 HD
BRANCH  23  27
ATOM     27  C   UNL     1       1.160   2.159   0.731  0.00  0.00    +0.096 C 
BRANCH  27  29
ATOM     28  C   UNL     1       3.499   2.191   1.609  0.00  0.00    +0.004 C 
ATOM     29  C   UNL     1       2.173   1.427   1.613  0.00  0.00    +0.006 C 
ENDBRANCH  27  29
ENDBRANCH  23  27
ENDBRANCH   1  25
TORSDOF 4
