REMARK  Name = ZINC19393734
REMARK  8 active torsions:
REMARK  status: ('A' for Active; 'I' for Inactive)
REMARK    1  A    between atoms: C_1  and  C_2
REMARK    2  A    between atoms: C_3  and  N_23
REMARK    3  A    between atoms: C_7  and  N_8
REMARK    4  A    between atoms: C_9  and  C_11
REMARK    5  A    between atoms: C_11  and  C_13
REMARK    6  A    between atoms: C_11  and  O_14
REMARK    7  A    between atoms: O_14  and  C_15
REMARK    8  A    between atoms: C_15  and  C_16
REMARK                            x       y       z     vdW  Elec       q    Type
REMARK                         _______ _______ _______ _____ _____    ______ ____
ROOT
ATOM      1  N   UNL     1      -6.908   0.703  -4.912  0.00  0.00    -0.283 N 
ATOM      2  C   UNL     1      -6.104   0.532  -3.843  0.00  0.00    +0.246 C 
ATOM      3  O   UNL     1      -6.192  -0.474  -3.172  0.00  0.00    -0.273 OA
ATOM      4  H   UNL     1      -6.892   1.653  -5.466  0.00  0.00    +0.155 HD
ENDROOT
BRANCH   1  11
ATOM      5  C   UNL     1      -9.254   1.393  -6.364  0.00  0.00    +0.047 C 
ATOM      6  C   UNL     1      -8.917  -0.036  -6.026  0.00  0.00    -0.009 A 
ATOM      7  C   UNL     1      -9.759  -1.063  -6.430  0.00  0.00    +0.029 A 
ATOM      8  C   UNL     1      -9.449  -2.380  -6.112  0.00  0.00    +0.023 A 
ATOM      9  C   UNL     1      -8.301  -2.667  -5.399  0.00  0.00    +0.004 A 
ATOM     10  C   UNL     1      -7.457  -1.648  -5.002  0.00  0.00    +0.024 A 
ATOM     11  C   UNL     1      -7.762  -0.329  -5.316  0.00  0.00    +0.038 A 
BRANCH   7  12
ATOM     12  N   UNL     1     -10.920  -0.773  -7.150  0.00  0.00    -0.358 N 
ATOM     13  H   UNL     1     -11.587  -1.587  -7.470  0.00  0.00    +0.142 HD
ATOM     14  H   UNL     1     -11.168   0.270  -7.398  0.00  0.00    +0.142 HD
ENDBRANCH   7  12
ENDBRANCH   1  11
BRANCH   2  15
ATOM     15  C   UNL     1      -5.096   1.593  -3.482  0.00  0.00    +0.201 C 
ATOM     16  C   UNL     1      -5.827   2.873  -3.073  0.00  0.00    +0.048 C 
BRANCH  15  17
ATOM     17  O   UNL     1      -4.292   1.135  -2.393  0.00  0.00    -0.365 OA
BRANCH  17  18
ATOM     18  C   UNL     1      -2.964   1.661  -2.390  0.00  0.00    +0.192 C 
BRANCH  18  19
ATOM     19  C   UNL     1      -2.198   1.106  -1.188  0.00  0.00    +0.144 C 
ATOM     20  C   UNL     1      -0.740   1.569  -1.252  0.00  0.00    +0.034 C 
ATOM     21  C   UNL     1       0.005   1.060  -0.014  0.00  0.00    +0.005 C 
ATOM     22  C   UNL     1      -0.709   1.565   1.243  0.00  0.00    +0.028 C 
ATOM     23  C   UNL     1      -2.170   1.102   1.211  0.00  0.00    +0.160 C 
ATOM     24  O   UNL     1      -2.795   1.584   0.019  0.00  0.00    -0.374 OA
ENDBRANCH  18  19
ENDBRANCH  17  18
ENDBRANCH  15  17
ENDBRANCH   2  15
TORSDOF 6
