REMARK  Name = ZINC14602524
REMARK  6 active torsions:
REMARK  status: ('A' for Active; 'I' for Inactive)
REMARK    1  A    between atoms: C_1  and  C_2
REMARK    2  A    between atoms: C_2  and  C_3
REMARK    3  A    between atoms: C_3  and  C_5
REMARK    4  A    between atoms: C_3  and  N_12
REMARK    5  A    between atoms: C_8  and  C_11
REMARK    6  A    between atoms: C_13  and  C_15
REMARK                            x       y       z     vdW  Elec       q    Type
REMARK                         _______ _______ _______ _____ _____    ______ ____
ROOT
ATOM      1  C   UNL     1       1.187   1.801   0.000  0.00  0.00    +0.057 A 
ATOM      2  C   UNL     1      -0.013   1.076   0.008  0.00  0.00    +0.045 A 
ATOM      3  C   UNL     1      -1.203   1.752   0.017  0.00  0.00    +0.135 A 
ATOM      4  C   UNL     1      -1.241   3.141   0.057  0.00  0.00    +0.063 A 
ATOM      5  C   UNL     1      -0.055   3.866   0.044  0.00  0.00    +0.046 A 
ATOM      6  C   UNL     1       1.153   3.200   0.012  0.00  0.00    +0.055 A 
ATOM      7 CL   UNL     1       2.636   4.100  -0.013  0.00  0.00    -0.083 Cl
ATOM      8  N   UNL     1      -2.475   3.818   0.126  0.00  0.00    -0.286 N 
ATOM      9  C   UNL     1      -2.409   5.042   0.905  0.00  0.00    +0.112 C 
ATOM     10  C   UNL     1      -3.572   5.544   1.639  0.00  0.00    +0.019 C 
ATOM     11  C   UNL     1      -4.957   5.582   1.108  0.00  0.00    +0.002 C 
ATOM     12  C   UNL     1      -5.212   5.389  -0.358  0.00  0.00    +0.008 C 
ATOM     13  C   UNL     1      -4.642   4.195  -0.983  0.00  0.00    +0.073 C 
ATOM     14  C   UNL     1      -3.594   3.326  -0.440  0.00  0.00    +0.124 C 
ATOM     15  N   UNL     1      -3.836   2.043  -0.540  0.00  0.00    -0.118 NA
ATOM     16  S   UNL     1      -2.750   0.904  -0.033  0.00  0.00    +0.102 S 
ATOM     17  O   UNL     1      -3.090   0.574   1.307  0.00  0.00    -0.146 OA
ATOM     18  O   UNL     1      -2.655  -0.069  -1.064  0.00  0.00    -0.146 OA
ENDROOT
BRANCH   1  20
ATOM     19  N   UNL     1       2.510  -0.255  -0.032  0.00  0.00    -0.304 N 
ATOM     20  C   UNL     1       2.480   1.093  -0.020  0.00  0.00    +0.246 C 
ATOM     21  O   UNL     1       3.519   1.724  -0.027  0.00  0.00    -0.270 OA
ATOM     22  H   UNL     1       1.681  -0.758  -0.027  0.00  0.00    +0.150 HD
BRANCH  19  23
ATOM     23  C   UNL     1       3.795  -0.959  -0.053  0.00  0.00    +0.103 C 
BRANCH  23  24
ATOM     24  C   UNL     1       3.623  -2.334   0.538  0.00  0.00    -0.027 A 
ATOM     25  C   UNL     1       2.488  -3.071   0.256  0.00  0.00    +0.006 A 
ATOM     26  C   UNL     1       2.333  -4.335   0.794  0.00  0.00    +0.004 A 
ATOM     27  C   UNL     1       3.309  -4.858   1.622  0.00  0.00    -0.050 A 
ATOM     28  C   UNL     1       4.441  -4.119   1.909  0.00  0.00    +0.004 A 
ATOM     29  C   UNL     1       4.599  -2.857   1.366  0.00  0.00    +0.006 A 
ATOM     30  C   UNL     1       3.137  -6.234   2.213  0.00  0.00    +0.044 C 
ENDBRANCH  23  24
BRANCH  23  32
ATOM     31  C   UNL     1       4.579   0.313  -2.056  0.00  0.00    +0.006 C 
ATOM     32  C   UNL     1       4.286  -1.081  -1.497  0.00  0.00    +0.024 C 
ENDBRANCH  23  32
ENDBRANCH  19  23
ENDBRANCH   1  20
TORSDOF 4
