REMARK  Name = ZINC02886822
REMARK  8 active torsions:
REMARK  status: ('A' for Active; 'I' for Inactive)
REMARK    1  A    between atoms: C_3  and  O_12
REMARK    2  A    between atoms: O_12  and  C_13
REMARK    3  A    between atoms: C_13  and  C_14
REMARK    4  A    between atoms: C_14  and  C_16
REMARK    5  A    between atoms: C_14  and  O_31
REMARK    6  A    between atoms: C_16  and  N_61
REMARK    7  A    between atoms: N_19  and  S_22
REMARK    8  A    between atoms: S_22  and  N_25
REMARK                            x       y       z     vdW  Elec       q    Type
REMARK                         _______ _______ _______ _____ _____    ______ ____
ROOT
ATOM      1  C   UNL     1       1.423   1.615  -0.003  0.00  0.00    -0.044 C 
ENDROOT
BRANCH   1   7
ATOM      2  C   UNL     1       1.433   1.348   2.404  0.00  0.00    -0.061 C 
ATOM      3  C   UNL     1       2.017   0.511   3.546  0.00  0.00    +0.092 C 
ATOM      4  N   UNL     1       3.482   0.647   3.524  0.00  0.00    -0.170 NA
ATOM      5  C   UNL     1       4.183   0.407   2.253  0.00  0.00    +0.092 C 
ATOM      6  C   UNL     1       3.514   1.249   1.162  0.00  0.00    -0.061 C 
ATOM      7  N   UNL     1       2.070   0.930   1.135  0.00  0.00    +0.383 N 
ATOM      8  H   UNL     1       1.954  -0.084   1.023  0.00  0.00    -0.082 HD
BRANCH   4   9
ATOM      9  S   UNL     1       4.318   1.058   4.893  0.00  0.00    +0.099 S 
ATOM     10  O   UNL     1       3.506   0.676   5.995  0.00  0.00    -0.141 OA
ATOM     11  O   UNL     1       5.643   0.574   4.719  0.00  0.00    -0.141 OA
BRANCH   9  12
ATOM     12  N   UNL     1       4.418   2.710   4.928  0.00  0.00    -0.166 NA
ATOM     13  C   UNL     1       5.551   3.405   4.301  0.00  0.00    +0.110 C 
ATOM     14  C   UNL     1       5.001   4.453   3.322  0.00  0.00    +0.017 C 
ATOM     15  C   UNL     1       4.031   5.375   4.064  0.00  0.00    +0.003 C 
ATOM     16  C   UNL     1       2.856   4.556   4.602  0.00  0.00    +0.017 C 
ATOM     17  C   UNL     1       3.379   3.509   5.591  0.00  0.00    +0.110 C 
ENDBRANCH   9  12
ENDBRANCH   4   9
ENDBRANCH   1   7
BRANCH   1  18
ATOM     18  C   UNL     1       1.746   0.845  -1.284  0.00  0.00    +0.135 C 
BRANCH  18  19
ATOM     19  O   UNL     1       1.256  -0.493  -1.172  0.00  0.00    -0.390 OA
ATOM     20  H   UNL     1       0.300  -0.552  -1.037  0.00  0.00    +0.210 HD
ENDBRANCH  18  19
BRANCH  18  21
ATOM     21  C   UNL     1       1.078   1.534  -2.476  0.00  0.00    +0.258 C 
BRANCH  21  22
ATOM     22  O   UNL     1       1.474   0.884  -3.686  0.00  0.00    -0.489 OA
BRANCH  22  25
ATOM     23  C   UNL     1      -0.428   2.987  -5.952  0.00  0.00    +0.012 A 
ATOM     24  C   UNL     1       0.093   2.468  -4.808  0.00  0.00    +0.046 A 
ATOM     25  C   UNL     1       0.965   1.376  -4.846  0.00  0.00    +0.121 A 
ATOM     26  C   UNL     1       1.309   0.794  -6.033  0.00  0.00    +0.054 A 
ATOM     27  C   UNL     1       0.784   1.302  -7.232  0.00  0.00    -0.014 A 
ATOM     28  C   UNL     1      -0.096   2.413  -7.192  0.00  0.00    -0.017 A 
ATOM     29  C   UNL     1      -0.620   2.920  -8.393  0.00  0.00    +0.023 A 
ATOM     30  C   UNL     1      -0.278   2.339  -9.576  0.00  0.00    +0.018 A 
ATOM     31  C   UNL     1       0.588   1.246  -9.616  0.00  0.00    +0.016 A 
ATOM     32  C   UNL     1       1.115   0.729  -8.473  0.00  0.00    +0.010 A 
ATOM     33 BR   UNL     1      -0.986   3.026 -11.190  0.00  0.00    -0.050 Br
ENDBRANCH  22  25
ENDBRANCH  21  22
ENDBRANCH  18  21
ENDBRANCH   1  18
TORSDOF 8
