REMARK  Name = ZINC40797575
REMARK  8 active torsions:
REMARK  status: ('A' for Active; 'I' for Inactive)
REMARK    1  A    between atoms: C_1  and  C_2
REMARK    2  A    between atoms: C_2  and  O_3
REMARK    3  A    between atoms: O_3  and  C_4
REMARK    4  A    between atoms: C_4  and  C_6
REMARK    5  A    between atoms: C_10  and  N_11
REMARK    6  A    between atoms: C_12  and  C_14
REMARK    7  A    between atoms: C_14  and  C_26
REMARK    8  A    between atoms: C_20  and  C_25
REMARK                            x       y       z     vdW  Elec       q    Type
REMARK                         _______ _______ _______ _____ _____    ______ ____
ROOT
ATOM      1  N   UNL     1      -0.604  -2.455  -3.925  0.00  0.00    -0.276 N 
ATOM      2  C   UNL     1      -1.119  -2.783  -5.126  0.00  0.00    +0.270 C 
ATOM      3  O   UNL     1      -0.397  -3.225  -5.995  0.00  0.00    -0.271 OA
ATOM      4  H   UNL     1      -1.181  -2.102  -3.230  0.00  0.00    +0.155 HD
ENDROOT
BRANCH   2   5
ATOM      5  C   UNL     1      -2.591  -2.599  -5.391  0.00  0.00    +0.258 C 
ATOM      6  C   UNL     1      -2.818  -2.437  -6.873  0.00  0.00    +0.270 C 
ATOM      7  O   UNL     1      -2.042  -2.929  -7.665  0.00  0.00    -0.271 OA
ATOM      8  N   UNL     1      -3.888  -1.744  -7.314  0.00  0.00    -0.279 N 
ATOM      9  C   UNL     1      -4.701  -1.078  -6.386  0.00  0.00    +0.076 A 
ATOM     10  C   UNL     1      -5.924  -0.551  -6.771  0.00  0.00    +0.030 A 
ATOM     11  C   UNL     1      -6.720   0.091  -5.840  0.00  0.00    -0.048 A 
ATOM     12  C   UNL     1      -6.300   0.208  -4.528  0.00  0.00    +0.007 A 
ATOM     13  C   UNL     1      -5.079  -0.310  -4.139  0.00  0.00    +0.048 A 
ATOM     14  C   UNL     1      -4.273  -0.950  -5.066  0.00  0.00    +0.144 A 
ATOM     15  O   UNL     1      -3.056  -1.437  -4.703  0.00  0.00    -0.465 OA
ATOM     16  C   UNL     1      -8.050   0.665  -6.258  0.00  0.00    +0.044 C 
ATOM     17  C   UNL     1      -3.355  -3.827  -4.891  0.00  0.00    +0.076 C 
ATOM     18  H   UNL     1      -4.093  -1.706  -8.261  0.00  0.00    +0.155 HD
ENDBRANCH   2   5
BRANCH   1  23
ATOM     19  C   UNL     1       1.449  -2.344  -2.516  0.00  0.00    +0.091 A 
ATOM     20  C   UNL     1       2.876  -2.619  -2.515  0.00  0.00    -0.021 A 
ATOM     21  C   UNL     1       3.343  -3.117  -3.680  0.00  0.00    -0.004 A 
ATOM     22  S   UNL     1       1.922  -3.212  -4.730  0.00  0.00    -0.077 S 
ATOM     23  C   UNL     1       0.750  -2.624  -3.681  0.00  0.00    +0.086 A 
ATOM     24  C   UNL     1       4.757  -3.498  -3.993  0.00  0.00    +0.043 C 
ATOM     25  C   UNL     1       5.669  -2.887  -2.920  0.00  0.00    +0.005 C 
ATOM     26  C   UNL     1       5.082  -3.191  -1.538  0.00  0.00    +0.005 C 
ATOM     27  C   UNL     1       3.799  -2.383  -1.329  0.00  0.00    +0.037 C 
BRANCH  19  28
ATOM     28  C   UNL     1       0.776  -1.800  -1.335  0.00  0.00    +0.342 C 
ATOM     29  O   UNL     1       0.312  -2.552  -0.499  0.00  0.00    -0.245 OA
BRANCH  28  30
ATOM     30  O   UNL     1       0.671  -0.465  -1.174  0.00  0.00    -0.461 OA
BRANCH  30  32
ATOM     31  C   UNL     1      -0.019   1.526   0.010  0.00  0.00    +0.048 C 
ATOM     32  C   UNL     1       0.002  -0.004   0.002  0.00  0.00    +0.229 C 
ENDBRANCH  30  32
ENDBRANCH  28  30
ENDBRANCH  19  28
ENDBRANCH   1  23
TORSDOF 5
