REMARK  Name = ZINC06180650
REMARK  5 active torsions:
REMARK  status: ('A' for Active; 'I' for Inactive)
REMARK    1  A    between atoms: C_1  and  N_2
REMARK    2  A    between atoms: N_2  and  C_3
REMARK    3  A    between atoms: N_2  and  C_4
REMARK    4  A    between atoms: C_7  and  C_10
REMARK    5  A    between atoms: N_11  and  N_12
REMARK                            x       y       z     vdW  Elec       q    Type
REMARK                         _______ _______ _______ _____ _____    ______ ____
ROOT
ATOM      1  N   UNL     1      -4.762   3.833   0.066  0.00  0.00    -0.263 N 
ATOM      2  C   UNL     1      -5.898   3.161   0.073  0.00  0.00    +0.125 C 
ATOM      3  C   UNL     1      -7.245   3.737   0.089  0.00  0.00    +0.024 A 
ATOM      4  C   UNL     1      -7.843   4.989   0.099  0.00  0.00    +0.012 A 
ATOM      5  C   UNL     1      -9.232   5.090   0.113  0.00  0.00    +0.001 A 
ATOM      6  C   UNL     1     -10.061   3.999   0.116  0.00  0.00    +0.008 A 
ATOM      7  C   UNL     1      -9.495   2.713   0.105  0.00  0.00    -0.015 A 
ATOM      8  C   UNL     1      -8.101   2.627   0.092  0.00  0.00    +0.014 A 
ATOM      9  C   UNL     1      -7.378   1.438   0.080  0.00  0.00    +0.041 A 
ATOM     10  C   UNL     1      -8.120   0.270   0.082  0.00  0.00    +0.024 A 
ATOM     11  C   UNL     1      -9.512   0.329   0.096  0.00  0.00    +0.002 A 
ATOM     12  C   UNL     1     -10.212   1.504   0.106  0.00  0.00    +0.008 A 
ATOM     13  N   UNL     1      -6.033   1.778   0.063  0.00  0.00    -0.299 N 
ATOM     14  H   UNL     1      -5.139   1.138   0.043  0.00  0.00    +0.154 HD
ATOM     15  H   UNL     1      -4.774   4.933   0.071  0.00  0.00    +0.190 HD
ENDROOT
BRANCH   1  17
ATOM     16  C   UNL     1      -2.512   3.867   0.045  0.00  0.00    +0.140 C 
ATOM     17  N   UNL     1      -3.638   3.201   0.052  0.00  0.00    -0.180 NA
BRANCH  16  21
ATOM     18  C   UNL     1       1.184   1.787   0.000  0.00  0.00    +0.029 A 
ATOM     19  C   UNL     1      -0.013   1.076   0.008  0.00  0.00    +0.024 A 
ATOM     20  C   UNL     1      -1.214   1.747   0.017  0.00  0.00    +0.011 A 
ATOM     21  C   UNL     1      -1.232   3.147   0.030  0.00  0.00    -0.005 A 
ATOM     22  C   UNL     1      -0.026   3.858   0.022  0.00  0.00    +0.011 A 
ATOM     23  C   UNL     1       1.171   3.179   0.007  0.00  0.00    +0.024 A 
BRANCH  18  25
ATOM     24  C   UNL     1       2.414  -0.362  -0.022  0.00  0.00    +0.129 C 
ATOM     25  N   UNL     1       2.398   1.103  -0.015  0.00  0.00    -0.336 N 
ATOM     26  C   UNL     1       3.659   1.849  -0.022  0.00  0.00    +0.129 C 
ENDBRANCH  18  25
ENDBRANCH  16  21
ENDBRANCH   1  17
TORSDOF 3
