REMARK  Name = ZINC53111391
REMARK  4 active torsions:
REMARK  status: ('A' for Active; 'I' for Inactive)
REMARK    1  A    between atoms: C_1  and  C_2
REMARK    2  A    between atoms: C_7  and  C_9
REMARK    3  A    between atoms: C_7  and  N_11
REMARK    4  A    between atoms: C_9  and  O_10
REMARK                            x       y       z     vdW  Elec       q    Type
REMARK                         _______ _______ _______ _____ _____    ______ ____
ROOT
ATOM      1  C   UNL     1      -0.388   1.388  -0.087  0.00  0.00    +0.007 C 
ATOM      2  C   UNL     1      -0.221  -0.132  -0.044  0.00  0.00    -0.012 C 
ATOM      3  C   UNL     1      -1.598  -0.795   0.025  0.00  0.00    +0.003 C 
ATOM      4  C   UNL     1      -1.430  -2.315   0.067  0.00  0.00    +0.002 C 
ATOM      5  C   UNL     1      -0.614  -2.704   1.302  0.00  0.00    +0.029 C 
ATOM      6  C   UNL     1       0.763  -2.041   1.233  0.00  0.00    +0.068 C 
ATOM      7  C   UNL     1       0.595  -0.521   1.191  0.00  0.00    +0.032 C 
ENDROOT
BRANCH   6   8
ATOM      8  N   UNL     1       1.461  -2.489   0.026  0.00  0.00    -0.234 N 
ATOM      9  C   UNL     1       2.016  -1.544  -0.757  0.00  0.00    +0.222 C 
ATOM     10  O   UNL     1       2.146  -0.415  -0.334  0.00  0.00    -0.275 OA
ATOM     11  C   UNL     1       2.477  -1.875  -2.151  0.00  0.00    +0.096 C 
ATOM     12  C   UNL     1       3.805  -2.604  -2.108  0.00  0.00    +0.010 C 
ATOM     13  C   UNL     1       3.771  -3.837  -1.220  0.00  0.00    +0.010 C 
ATOM     14  C   UNL     1       2.360  -4.441  -1.254  0.00  0.00    +0.096 C 
ATOM     15  C   UNL     1       1.502  -3.791  -0.207  0.00  0.00    +0.222 C 
ATOM     16  O   UNL     1       0.794  -4.508   0.467  0.00  0.00    -0.275 OA
ENDBRANCH   6   8
BRANCH   6  17
ATOM     17  C   UNL     1       1.578  -2.429   2.468  0.00  0.00    +0.182 C 
BRANCH  17  18
ATOM     18  O   UNL     1       1.714  -3.851   2.521  0.00  0.00    -0.393 OA
ATOM     19  H   UNL     1       2.221  -4.170   3.280  0.00  0.00    +0.209 HD
ENDBRANCH  17  18
ENDBRANCH   6  17
TORSDOF 3
