REMARK  Name = ZINC48373397
REMARK  5 active torsions:
REMARK  status: ('A' for Active; 'I' for Inactive)
REMARK    1  A    between atoms: C_3  and  N_23
REMARK    2  A    between atoms: C_6  and  C_7
REMARK    3  A    between atoms: C_7  and  N_8
REMARK    4  A    between atoms: C_9  and  C_11
REMARK    5  A    between atoms: C_18  and  C_20
REMARK                            x       y       z     vdW  Elec       q    Type
REMARK                         _______ _______ _______ _____ _____    ______ ____
ROOT
ATOM      1  N   UNL     1      -1.734  -1.001  -1.370  0.00  0.00    -0.311 N 
ATOM      2  C   UNL     1      -2.874  -1.680  -1.609  0.00  0.00    +0.218 C 
ATOM      3  O   UNL     1      -3.530  -2.110  -0.684  0.00  0.00    -0.275 OA
ATOM      4  H   UNL     1      -1.210  -0.657  -2.110  0.00  0.00    +0.149 HD
ENDROOT
BRANCH   2   5
ATOM      5  C   UNL     1      -3.333  -1.905  -3.027  0.00  0.00    +0.092 C 
ATOM      6  C   UNL     1      -3.558  -0.554  -3.711  0.00  0.00    +0.016 C 
ATOM      7  C   UNL     1      -3.993  -0.781  -5.161  0.00  0.00    +0.020 C 
ATOM      8  C   UNL     1      -5.313  -1.558  -5.178  0.00  0.00    +0.108 C 
ATOM      9  N   UNL     1      -5.146  -2.792  -4.398  0.00  0.00    -0.301 N 
ATOM     10  C   UNL     1      -4.645  -2.695  -3.020  0.00  0.00    +0.120 C 
ATOM     11  C   UNL     1      -5.446  -3.990  -4.937  0.00  0.00    +0.219 C 
ATOM     12  O   UNL     1      -5.304  -5.002  -4.282  0.00  0.00    -0.275 OA
BRANCH  11  13
ATOM     13  C   UNL     1      -5.959  -4.074  -6.351  0.00  0.00    +0.075 C 
ATOM     14  C   UNL     1      -7.415  -4.498  -6.551  0.00  0.00    +0.013 C 
ATOM     15  C   UNL     1      -6.282  -5.463  -6.905  0.00  0.00    +0.013 C 
ENDBRANCH  11  13
ENDBRANCH   2   5
BRANCH   1  16
ATOM     16  C   UNL     1      -1.288  -0.783   0.009  0.00  0.00    +0.141 C 
BRANCH  16  22
ATOM     17  C   UNL     1      -0.016   1.384   0.036  0.00  0.00    +0.010 A 
ATOM     18  C   UNL     1       1.190   2.061   0.028  0.00  0.00    +0.042 A 
ATOM     19  C   UNL     1       2.374   1.332  -0.013  0.00  0.00    +0.099 A 
ATOM     20  N   UNL     1       2.350   0.008  -0.045  0.00  0.00    -0.349 N 
ATOM     21  C   UNL     1       1.214  -0.663  -0.040  0.00  0.00    +0.089 A 
ATOM     22  C   UNL     1       0.002  -0.004   0.001  0.00  0.00    -0.014 A 
ATOM     23  H   UNL     1       3.188  -0.480  -0.074  0.00  0.00    +0.167 HD
BRANCH  19  24
ATOM     24  N   UNL     1       3.594   1.999  -0.022  0.00  0.00    -0.317 N 
ATOM     25  C   UNL     1       4.856   1.252   0.066  0.00  0.00    +0.106 C 
ATOM     26  C   UNL     1       5.754   1.662  -1.105  0.00  0.00    +0.019 C 
ATOM     27  C   UNL     1       5.922   3.183  -1.106  0.00  0.00    +0.003 C 
ATOM     28  C   UNL     1       4.556   3.849  -1.289  0.00  0.00    +0.019 C 
ATOM     29  C   UNL     1       3.645   3.464  -0.125  0.00  0.00    +0.106 C 
ENDBRANCH  19  24
ENDBRANCH  16  22
ENDBRANCH   1  16
TORSDOF 5
