REMARK  Name = ZINC14476241
REMARK  6 active torsions:
REMARK  status: ('A' for Active; 'I' for Inactive)
REMARK    1  A    between atoms: C_6  and  C_7
REMARK    2  A    between atoms: N_9  and  C_10
REMARK    3  A    between atoms: C_10  and  C_11
REMARK    4  A    between atoms: C_24  and  C_27
REMARK    5  A    between atoms: C_29  and  N_34
REMARK    6  A    between atoms: C_32  and  O_33
REMARK                            x       y       z     vdW  Elec       q    Type
REMARK                         _______ _______ _______ _____ _____    ______ ____
ROOT
ATOM      1  C   UNL     1      -0.017   1.394   0.010  0.00  0.00    +0.015 A 
ATOM      2  C   UNL     1       1.164   2.097   0.002  0.00  0.00    +0.024 A 
ATOM      3  C   UNL     1       2.386   1.429  -0.010  0.00  0.00    +0.031 A 
ATOM      4  C   UNL     1       2.404   0.026  -0.005  0.00  0.00    -0.019 A 
ATOM      5  C   UNL     1       1.226  -0.679  -0.006  0.00  0.00    +0.019 A 
ATOM      6  C   UNL     1       0.002  -0.004   0.002  0.00  0.00    +0.037 A 
ATOM      7  C   UNL     1       3.725  -0.639   0.021  0.00  0.00    +0.049 C 
ATOM      8  C   UNL     1       3.932  -1.998  -0.542  0.00  0.00    -0.023 C 
ATOM      9  C   UNL     1       5.173  -2.080  -1.006  0.00  0.00    -0.030 C 
ATOM     10  C   UNL     1       5.893  -0.745  -0.813  0.00  0.00    +0.033 C 
ATOM     11  C   UNL     1       4.711   0.227  -0.819  0.00  0.00    +0.029 C 
ATOM     12  C   UNL     1       4.890   1.513  -0.033  0.00  0.00    +0.108 C 
ATOM     13  N   UNL     1       3.566   2.172  -0.039  0.00  0.00    -0.336 N 
ATOM     14  H   UNL     1       3.517   3.140  -0.063  0.00  0.00    +0.147 HD
ENDROOT
BRANCH  12  15
ATOM     15  C   UNL     1       5.315   1.205   1.379  0.00  0.00    +0.017 A 
ATOM     16  C   UNL     1       4.369   1.115   2.382  0.00  0.00    +0.041 A 
ATOM     17  C   UNL     1       4.758   0.832   3.678  0.00  0.00    +0.127 A 
ATOM     18  C   UNL     1       6.095   0.639   3.974  0.00  0.00    +0.036 A 
ATOM     19  C   UNL     1       7.045   0.729   2.975  0.00  0.00    +0.048 A 
ATOM     20  C   UNL     1       6.656   1.006   1.673  0.00  0.00    +0.122 A 
BRANCH  17  21
ATOM     21  N   UNL     1       3.742   0.737   4.750  0.00  0.00    +0.056 N 
ATOM     22  O   UNL     1       2.573   0.906   4.492  0.00  0.00    -0.126 OA
ATOM     23  O   UNL     1       4.082   0.490   5.884  0.00  0.00    -0.126 OA
ENDBRANCH  17  21
BRANCH  20  24
ATOM     24  O   UNL     1       7.588   1.090   0.687  0.00  0.00    -0.506 OA
ATOM     25  H   UNL     1       7.950   1.977   0.563  0.00  0.00    +0.292 HD
ENDBRANCH  20  24
ENDBRANCH  12  15
BRANCH   6  26
ATOM     26  C   UNL     1      -1.263  -0.763   0.003  0.00  0.00    +0.244 C 
ATOM     27  O   UNL     1      -1.243  -1.978  -0.004  0.00  0.00    -0.270 OA
ATOM     28  N   UNL     1      -2.441  -0.108   0.011  0.00  0.00    -0.309 N 
ATOM     29  H   UNL     1      -2.457   0.862   0.016  0.00  0.00    +0.149 HD
BRANCH  28  30
ATOM     30  C   UNL     1      -3.698  -0.862   0.012  0.00  0.00    +0.136 C 
BRANCH  30  31
ATOM     31  C   UNL     1      -4.877   0.113   0.022  0.00  0.00    +0.135 C 
ATOM     32  C   UNL     1      -6.217  -0.664   0.058  0.00  0.00    +0.035 C 
ATOM     33  C   UNL     1      -7.155   0.396   0.698  0.00  0.00    +0.031 C 
ATOM     34  C   UNL     1      -6.207   1.127   1.673  0.00  0.00    +0.160 C 
ATOM     35  O   UNL     1      -4.864   0.899   1.224  0.00  0.00    -0.375 OA
ENDBRANCH  30  31
ENDBRANCH  28  30
ENDBRANCH   6  26
TORSDOF 6
