REMARK  Name = ZINC03282226
REMARK  9 active torsions:
REMARK  status: ('A' for Active; 'I' for Inactive)
REMARK    1  A    between atoms: C_1  and  C_2
REMARK    2  A    between atoms: C_4  and  C_30
REMARK    3  A    between atoms: C_6  and  S_8
REMARK    4  A    between atoms: S_8  and  C_9
REMARK    5  A    between atoms: C_9  and  C_10
REMARK    6  A    between atoms: C_13  and  C_16
REMARK    7  A    between atoms: N_18  and  N_19
REMARK    8  A    between atoms: C_20  and  C_21
REMARK    9  A    between atoms: C_24  and  C_27
REMARK                            x       y       z     vdW  Elec       q    Type
REMARK                         _______ _______ _______ _____ _____    ______ ____
ROOT
ATOM      1  C   UNL     1       0.056  -2.148   5.299  0.00  0.00    -0.037 A 
ATOM      2  C   UNL     1      -1.137  -2.447   5.933  0.00  0.00    +0.005 A 
ATOM      3  C   UNL     1      -1.131  -3.003   7.195  0.00  0.00    +0.013 A 
ATOM      4  C   UNL     1       0.083  -3.264   7.834  0.00  0.00    +0.038 A 
ATOM      5  C   UNL     1       1.283  -2.960   7.189  0.00  0.00    +0.013 A 
ATOM      6  C   UNL     1       1.262  -2.409   5.924  0.00  0.00    +0.005 A 
ENDROOT
BRANCH   4   7
ATOM      7  C   UNL     1       0.097  -3.858   9.187  0.00  0.00    +0.263 C 
ATOM      8  O   UNL     1      -0.950  -4.121   9.746  0.00  0.00    -0.268 OA
ATOM      9  N   UNL     1       1.271  -4.109   9.800  0.00  0.00    -0.203 N 
ATOM     10  H   UNL     1       2.106  -3.899   9.354  0.00  0.00    +0.178 HD
BRANCH   9  11
ATOM     11  N   UNL     1       1.284  -4.672  11.083  0.00  0.00    -0.187 NA
ATOM     12  C   UNL     1       2.415  -4.914  11.674  0.00  0.00    +0.138 C 
BRANCH  12  13
ATOM     13  C   UNL     1       2.429  -5.506  13.022  0.00  0.00    -0.005 A 
ATOM     14  C   UNL     1       1.225  -5.814  13.664  0.00  0.00    +0.010 A 
ATOM     15  C   UNL     1       1.238  -6.364  14.913  0.00  0.00    +0.016 A 
ATOM     16  C   UNL     1       2.456  -6.620  15.553  0.00  0.00    +0.063 A 
ATOM     17  C   UNL     1       3.661  -6.311  14.911  0.00  0.00    +0.016 A 
ATOM     18  C   UNL     1       3.648  -5.766  13.659  0.00  0.00    +0.010 A 
BRANCH  16  19
ATOM     19  C   UNL     1       2.470  -7.212  16.901  0.00  0.00    +0.387 C 
ATOM     20  O   UNL     1       1.417  -7.481  17.462  0.00  0.00    -0.241 OA
ATOM     21  O   UNL     1       3.536  -7.435  17.460  0.00  0.00    -0.241 OA
ENDBRANCH  16  19
ENDBRANCH  12  13
ENDBRANCH   9  11
ENDBRANCH   4   7
BRANCH   1  22
ATOM     22  C   UNL     1       0.041  -1.542   3.919  0.00  0.00    +0.112 C 
BRANCH  22  23
ATOM     23  S   UNL     1       0.053  -2.864   2.678  0.00  0.00    -0.081 S 
BRANCH  23  29
ATOM     24  C   UNL     1      -0.018   1.503   0.010  0.00  0.00    +0.066 C 
ATOM     25  C   UNL     1       0.002  -0.004   0.002  0.00  0.00    +0.043 A 
ATOM     26  C   UNL     1       0.006  -0.699  -1.198  0.00  0.00    +0.046 A 
ATOM     27  C   UNL     1       0.025  -2.084  -1.161  0.00  0.00    +0.043 A 
ATOM     28  N   UNL     1       0.039  -2.699   0.010  0.00  0.00    -0.227 NA
ATOM     29  C   UNL     1       0.035  -2.005   1.140  0.00  0.00    +0.189 A 
ATOM     30  N   UNL     1       0.022  -0.679   1.139  0.00  0.00    -0.227 NA
ATOM     31  C   UNL     1       0.029  -2.881  -2.440  0.00  0.00    +0.066 C 
ENDBRANCH  23  29
ENDBRANCH  22  23
ENDBRANCH   1  22
TORSDOF 7
