REMARK  Name = ZINC39195017
REMARK  15 active torsions:
REMARK  status: ('A' for Active; 'I' for Inactive)
REMARK    1  A    between atoms: C_1  and  C_2
REMARK    2  A    between atoms: C_6  and  C_37
REMARK    3  A    between atoms: C_7  and  N_8
REMARK    4  A    between atoms: C_9  and  C_11
REMARK    5  A    between atoms: C_11  and  N_12
REMARK    6  A    between atoms: C_13  and  C_15
REMARK    7  A    between atoms: C_15  and  C_17
REMARK    8  A    between atoms: C_15  and  O_18
REMARK    9  A    between atoms: O_18  and  C_19
REMARK   10  A    between atoms: C_19  and  C_21
REMARK   11  A    between atoms: C_21  and  C_23
REMARK   12  A    between atoms: C_21  and  N_26
REMARK   13  A    between atoms: C_23  and  C_24
REMARK   14  A    between atoms: C_23  and  C_25
REMARK   15  A    between atoms: C_27  and  C_29
REMARK                            x       y       z     vdW  Elec       q    Type
REMARK                         _______ _______ _______ _____ _____    ______ ____
ROOT
ATOM      1  C   UNL     1      -0.455  -1.225   8.394  0.00  0.00    +0.258 C 
ATOM      2  C   UNL     1       0.805  -2.084   8.507  0.00  0.00    +0.062 C 
ENDROOT
BRANCH   1   4
ATOM      3  N   UNL     1      -0.231  -0.746   5.978  0.00  0.00    -0.304 N 
ATOM      4  C   UNL     1      -0.311  -0.271   7.236  0.00  0.00    +0.254 C 
ATOM      5  O   UNL     1      -0.268   0.924   7.437  0.00  0.00    -0.272 OA
ATOM      6  H   UNL     1      -0.265  -1.702   5.817  0.00  0.00    +0.149 HD
BRANCH   3   7
ATOM      7  C   UNL     1      -0.090   0.181   4.852  0.00  0.00    +0.200 C 
BRANCH   7   9
ATOM      8  N   UNL     1       0.108   0.050   2.390  0.00  0.00    -0.284 N 
ATOM      9  C   UNL     1      -0.022  -0.598   3.564  0.00  0.00    +0.234 C 
ATOM     10  O   UNL     1      -0.085  -1.810   3.584  0.00  0.00    -0.274 OA
ATOM     11  H   UNL     1       0.224   1.013   2.378  0.00  0.00    +0.155 HD
BRANCH   8  18
ATOM     12  C   UNL     1       2.558  -0.356   1.002  0.00  0.00    +0.045 C 
ATOM     13  C   UNL     1       1.249  -0.887   0.479  0.00  0.00    -0.029 A 
ATOM     14  C   UNL     1       1.214  -1.599  -0.704  0.00  0.00    +0.005 A 
ATOM     15  C   UNL     1       0.013  -2.087  -1.185  0.00  0.00    +0.001 A 
ATOM     16  C   UNL     1      -1.158  -1.863  -0.484  0.00  0.00    +0.005 A 
ATOM     17  C   UNL     1      -1.130  -1.152   0.700  0.00  0.00    -0.029 A 
ATOM     18  C   UNL     1       0.076  -0.666   1.188  0.00  0.00    +0.039 A 
ATOM     19  C   UNL     1      -2.406  -0.908   1.463  0.00  0.00    +0.045 C 
ENDBRANCH   8  18
ENDBRANCH   7   9
ENDBRANCH   3   7
ENDBRANCH   1   4
BRANCH   1  20
ATOM     20  O   UNL     1      -0.636  -0.484   9.602  0.00  0.00    -0.451 OA
BRANCH  20  21
ATOM     21  C   UNL     1      -1.365  -1.063  10.569  0.00  0.00    +0.329 C 
ATOM     22  O   UNL     1      -1.833  -2.163  10.396  0.00  0.00    -0.249 OA
BRANCH  21  23
ATOM     23  C   UNL     1      -1.598  -0.342  11.872  0.00  0.00    +0.185 C 
BRANCH  23  24
ATOM     24  N   UNL     1      -2.415  -1.178  12.754  0.00  0.00    -0.298 N 
ATOM     25  C   UNL     1      -3.166  -0.609  13.718  0.00  0.00    +0.250 C 
ATOM     26  O   UNL     1      -3.164   0.599  13.855  0.00  0.00    -0.270 OA
ATOM     27  H   UNL     1      -2.417  -2.142  12.644  0.00  0.00    +0.150 HD
BRANCH  25  28
ATOM     28  C   UNL     1      -3.989  -1.452  14.606  0.00  0.00    +0.107 A 
ATOM     29  C   UNL     1      -3.458  -1.938  15.806  0.00  0.00    +0.138 A 
ATOM     30  C   UNL     1      -4.236  -2.726  16.632  0.00  0.00    +0.039 A 
ATOM     31  C   UNL     1      -5.536  -3.035  16.276  0.00  0.00    +0.006 A 
ATOM     32  C   UNL     1      -6.069  -2.559  15.092  0.00  0.00    +0.039 A 
ATOM     33  C   UNL     1      -5.307  -1.764  14.257  0.00  0.00    +0.138 A 
ATOM     34  F   UNL     1      -5.831  -1.296  13.103  0.00  0.00    -0.205 F 
ATOM     35  F   UNL     1      -2.187  -1.638  16.155  0.00  0.00    -0.205 F 
ENDBRANCH  25  28
ENDBRANCH  23  24
BRANCH  23  36
ATOM     36  C   UNL     1      -0.254  -0.054  12.543  0.00  0.00    +0.014 C 
ATOM     37  C   UNL     1       0.600   0.820  11.622  0.00  0.00    +0.009 C 
ATOM     38  C   UNL     1      -0.491   0.679  13.865  0.00  0.00    +0.009 C 
ENDBRANCH  23  36
ENDBRANCH  21  23
ENDBRANCH  20  21
ENDBRANCH   1  20
TORSDOF 10
