REMARK  Name = ZINC53264036
REMARK  7 active torsions:
REMARK  status: ('A' for Active; 'I' for Inactive)
REMARK    1  A    between atoms: C_1  and  C_2
REMARK    2  A    between atoms: C_2  and  C_3
REMARK    3  A    between atoms: C_3  and  C_4
REMARK    4  A    between atoms: C_4  and  N_5
REMARK    5  A    between atoms: C_9  and  C_11
REMARK    6  A    between atoms: C_11  and  N_12
REMARK    7  A    between atoms: C_25  and  C_27
REMARK                            x       y       z     vdW  Elec       q    Type
REMARK                         _______ _______ _______ _____ _____    ______ ____
ROOT
ATOM      1  N   UNL     1       3.059  -7.534  -5.271  0.00  0.00    -0.286 NA
ATOM      2  C   UNL     1       1.699  -8.078  -5.392  0.00  0.00    +0.090 C 
ATOM      3  C   UNL     1       1.708  -9.565  -5.011  0.00  0.00    +0.053 C 
ATOM      4  C   UNL     1       2.834 -10.231  -5.761  0.00  0.00    -0.016 A 
ATOM      5  C   UNL     1       3.074 -11.638  -5.993  0.00  0.00    +0.003 A 
ATOM      6  C   UNL     1       2.382 -12.794  -5.621  0.00  0.00    +0.010 A 
ATOM      7  C   UNL     1       2.913 -13.994  -6.027  0.00  0.00    +0.001 A 
ATOM      8  C   UNL     1       4.079 -14.068  -6.771  0.00  0.00    +0.002 A 
ATOM      9  C   UNL     1       4.785 -12.940  -7.152  0.00  0.00    +0.026 A 
ATOM     10  C   UNL     1       4.269 -11.708  -6.755  0.00  0.00    +0.047 A 
ATOM     11  N   UNL     1       4.701 -10.428  -6.956  0.00  0.00    -0.356 N 
ATOM     12  H   UNL     1       5.499 -10.179  -7.448  0.00  0.00    +0.166 HD
ATOM     13  C   UNL     1       3.838  -9.550  -6.359  0.00  0.00    +0.037 A 
ATOM     14  C   UNL     1       3.939  -8.043  -6.335  0.00  0.00    +0.101 C 
ATOM     15  C   UNL     1       5.384  -7.629  -6.048  0.00  0.00    +0.031 C 
ENDROOT
BRANCH   1  16
ATOM     16  C   UNL     1       3.039  -6.065  -5.263  0.00  0.00    +0.181 C 
BRANCH  16  21
ATOM     17  N   UNL     1       1.425  -2.500  -2.470  0.00  0.00    -0.299 N 
ATOM     18  C   UNL     1       1.564  -3.822  -2.692  0.00  0.00    +0.306 C 
ATOM     19  O   UNL     1       1.120  -4.622  -1.892  0.00  0.00    -0.252 OA
ATOM     20  N   UNL     1       2.195  -4.256  -3.801  0.00  0.00    -0.239 N 
ATOM     21  C   UNL     1       2.334  -5.579  -4.023  0.00  0.00    +0.234 C 
ATOM     22  O   UNL     1       1.891  -6.377  -3.225  0.00  0.00    -0.274 OA
ATOM     23  H   UNL     1       1.779  -1.861  -3.109  0.00  0.00    +0.150 HD
ATOM     24  H   UNL     1       2.549  -3.618  -4.440  0.00  0.00    +0.159 HD
BRANCH  17  25
ATOM     25  C   UNL     1       0.739  -2.027  -1.265  0.00  0.00    +0.106 C 
BRANCH  25  26
ATOM     26  C   UNL     1       0.718  -0.497  -1.257  0.00  0.00    +0.018 C 
BRANCH  26  28
ATOM     27  C   UNL     1      -0.019   1.526   0.010  0.00  0.00    +0.004 C 
ATOM     28  C   UNL     1       0.002  -0.004   0.002  0.00  0.00    -0.002 C 
ENDBRANCH  26  28
ENDBRANCH  25  26
ENDBRANCH  17  25
ENDBRANCH  16  21
ENDBRANCH   1  16
TORSDOF 5
