REMARK  Name = ZINC44825198
REMARK  6 active torsions:
REMARK  status: ('A' for Active; 'I' for Inactive)
REMARK    1  A    between atoms: C_1  and  C_2
REMARK    2  A    between atoms: C_2  and  C_3
REMARK    3  A    between atoms: C_4  and  C_16
REMARK    4  A    between atoms: C_9  and  C_11
REMARK    5  A    between atoms: C_11  and  C_13
REMARK    6  A    between atoms: C_11  and  C_14
REMARK                            x       y       z     vdW  Elec       q    Type
REMARK                         _______ _______ _______ _____ _____    ______ ____
ROOT
ATOM      1  C   UNL     1      -1.412  -0.526   0.013  0.00  0.00    +0.053 A 
ATOM      2  C   UNL     1      -2.067  -0.772   1.174  0.00  0.00    +0.011 A 
ATOM      3  S   UNL     1      -3.639  -1.349   0.553  0.00  0.00    -0.057 S 
ATOM      4  C   UNL     1      -3.302  -1.218  -1.091  0.00  0.00    +0.165 A 
ATOM      5  N   UNL     1      -2.070  -0.758  -1.108  0.00  0.00    -0.229 NA
ATOM      6  N   UNL     1      -4.127  -1.518  -2.168  0.00  0.00    -0.264 N 
ATOM      7  C   UNL     1      -5.375  -1.978  -1.953  0.00  0.00    +0.235 C 
ATOM      8  O   UNL     1      -5.778  -2.131  -0.819  0.00  0.00    -0.274 OA
ATOM      9  C   UNL     1      -1.597  -0.606   2.596  0.00  0.00    +0.053 C 
ATOM     10  H   UNL     1      -3.805  -1.395  -3.075  0.00  0.00    +0.157 HD
ENDROOT
BRANCH   1  12
ATOM     11  C   UNL     1      -0.019   1.526   0.010  0.00  0.00    +0.010 C 
ATOM     12  C   UNL     1       0.002  -0.004   0.002  0.00  0.00    +0.053 C 
ENDBRANCH   1  12
BRANCH   7  13
ATOM     13  C   UNL     1      -6.271  -2.304  -3.121  0.00  0.00    +0.174 C 
ATOM     14  C   UNL     1      -5.617  -3.391  -3.976  0.00  0.00    +0.033 C 
BRANCH  13  15
ATOM     15  C   UNL     1      -7.570  -2.785  -2.624  0.00  0.00    +0.075 C 
ATOM     16  N   UNL     1      -8.573  -3.156  -2.241  0.00  0.00    -0.196 NA
ENDBRANCH  13  15
ENDBRANCH   7  13
TORSDOF 3
