REMARK  Name = ZINC28382365
REMARK  6 active torsions:
REMARK  status: ('A' for Active; 'I' for Inactive)
REMARK    1  A    between atoms: C_6  and  C_7
REMARK    2  A    between atoms: C_7  and  C_9
REMARK    3  A    between atoms: C_9  and  S_10
REMARK    4  A    between atoms: S_10  and  C_11
REMARK    5  A    between atoms: C_14  and  C_17
REMARK    6  A    between atoms: N_15  and  N_16
REMARK                            x       y       z     vdW  Elec       q    Type
REMARK                         _______ _______ _______ _____ _____    ______ ____
ROOT
ATOM      1  C   UNL     1      -3.230  -1.649   0.026  0.00  0.00    +0.209 A 
ATOM      2  N   UNL     1      -2.378  -2.650   0.013  0.00  0.00    -0.120 NA
ATOM      3  N   UNL     1      -1.173  -2.203   0.003  0.00  0.00    -0.125 NA
ATOM      4  C   UNL     1      -1.182  -0.891   0.009  0.00  0.00    +0.202 A 
ATOM      5  N   UNL     1      -2.499  -0.495   0.029  0.00  0.00    -0.222 N 
ENDROOT
BRANCH   4   6
ATOM      6  C   UNL     1       0.002  -0.004   0.002  0.00  0.00    +0.134 A 
ATOM      7  C   UNL     1       1.353  -0.420  -0.013  0.00  0.00    +0.004 A 
ATOM      8  C   UNL     1       2.125   0.685  -0.015  0.00  0.00    +0.040 A 
ATOM      9  N   UNL     1       1.309   1.766  -0.001  0.00  0.00    -0.281 N 
ATOM     10  H   UNL     1       1.737   2.779   0.000  0.00  0.00    +0.189 HD
ATOM     11  N   UNL     1      -0.016   1.313   0.009  0.00  0.00    -0.170 NA
ATOM     12  C   UNL     1       3.590   0.303  -0.031  0.00  0.00    +0.055 C 
ATOM     13  C   UNL     1       3.619  -1.181   0.395  0.00  0.00    +0.011 C 
ATOM     14  C   UNL     1       2.215  -1.664  -0.028  0.00  0.00    +0.039 C 
ENDBRANCH   4   6
BRANCH   5  15
ATOM     15  N   UNL     1      -2.977   0.784   0.047  0.00  0.00    -0.295 N 
ATOM     16  H   UNL     1      -2.276   1.633   0.048  0.00  0.00    +0.163 HD
ATOM     17  H   UNL     1      -4.061   0.967   0.060  0.00  0.00    +0.163 HD
ENDBRANCH   5  15
BRANCH   1  18
ATOM     18  S   UNL     1      -4.988  -1.773   0.043  0.00  0.00    -0.077 S 
BRANCH  18  19
ATOM     19  C   UNL     1      -5.176  -3.574   0.036  0.00  0.00    +0.157 C 
BRANCH  19  20
ATOM     20  C   UNL     1      -6.641  -3.925   0.049  0.00  0.00    +0.173 C 
ATOM     21  O   UNL     1      -7.476  -3.046   0.062  0.00  0.00    -0.291 OA
BRANCH  20  27
ATOM     22  C   UNL     1      -6.099  -6.353   0.025  0.00  0.00    +0.013 A 
ATOM     23  C   UNL     1      -6.497  -7.673   0.028  0.00  0.00    +0.022 A 
ATOM     24  C   UNL     1      -7.844  -7.993   0.040  0.00  0.00    +0.059 A 
ATOM     25  C   UNL     1      -8.802  -6.991   0.055  0.00  0.00    +0.060 A 
ATOM     26  C   UNL     1      -8.418  -5.666   0.058  0.00  0.00    +0.032 A 
ATOM     27  C   UNL     1      -7.059  -5.336   0.046  0.00  0.00    +0.020 A 
ATOM     28 CL   UNL     1     -10.489  -7.404   0.070  0.00  0.00    -0.082 Cl
ATOM     29 CL   UNL     1      -8.336  -9.658   0.037  0.00  0.00    -0.082 Cl
ENDBRANCH  20  27
ENDBRANCH  19  20
ENDBRANCH  18  19
ENDBRANCH   1  18
TORSDOF 6
