REMARK  Name = ZINC39666123
REMARK  9 active torsions:
REMARK  status: ('A' for Active; 'I' for Inactive)
REMARK    1  A    between atoms: C_1  and  C_2
REMARK    2  A    between atoms: C_5  and  O_8
REMARK    3  A    between atoms: O_8  and  C_9
REMARK    4  A    between atoms: C_9  and  C_11
REMARK    5  A    between atoms: C_9  and  C_12
REMARK    6  A    between atoms: C_12  and  N_13
REMARK    7  A    between atoms: C_14  and  C_16
REMARK    8  A    between atoms: C_27  and  C_29
REMARK    9  A    between atoms: C_35  and  C_37
REMARK                            x       y       z     vdW  Elec       q    Type
REMARK                         _______ _______ _______ _____ _____    ______ ____
ROOT
ATOM      1  C   UNL     1      -3.960  -6.981  -0.136  0.00  0.00    +0.100 C 
ATOM      2  C   UNL     1      -3.903  -6.456  -1.588  0.00  0.00    +0.121 C 
ATOM      3  N   UNL     1      -3.954  -7.675  -2.429  0.00  0.00    -0.300 N 
ATOM      4  C   UNL     1      -4.928  -8.557  -1.741  0.00  0.00    +0.115 C 
ATOM      5  C   UNL     1      -4.637  -8.358  -0.240  0.00  0.00    -0.004 C 
ATOM      6  C   UNL     1      -5.939  -8.368   0.556  0.00  0.00    -0.010 C 
ATOM      7  C   UNL     1      -6.563  -9.765   0.486  0.00  0.00    -0.082 C 
ATOM      8  N   UNL     1      -5.624 -10.751   1.032  0.00  0.00    +0.379 N 
ATOM      9  C   UNL     1      -4.412 -10.801   0.205  0.00  0.00    -0.082 C 
ATOM     10  C   UNL     1      -3.696  -9.448   0.264  0.00  0.00    -0.010 C 
ATOM     11  C   UNL     1      -3.271  -7.926  -3.563  0.00  0.00    +0.219 C 
ATOM     12  O   UNL     1      -3.423  -8.981  -4.142  0.00  0.00    -0.275 OA
ATOM     13  H   UNL     1      -5.375 -10.491   1.975  0.00  0.00    -0.086 HD
ATOM     14  H   UNL     1      -6.061 -11.661   1.041  0.00  0.00    -0.086 HD
ENDROOT
BRANCH  11  15
ATOM     15  C   UNL     1      -2.318  -6.896  -4.112  0.00  0.00    +0.078 C 
ATOM     16  C   UNL     1      -3.082  -5.605  -4.417  0.00  0.00    +0.032 C 
ATOM     17  C   UNL     1      -2.104  -4.549  -4.941  0.00  0.00    +0.108 C 
ATOM     18  N   UNL     1      -1.379  -5.107  -6.091  0.00  0.00    -0.302 N 
ATOM     19  C   UNL     1      -0.684  -6.392  -5.933  0.00  0.00    +0.108 C 
ATOM     20  C   UNL     1      -1.678  -7.427  -5.397  0.00  0.00    +0.032 C 
ATOM     21  C   UNL     1      -1.351  -4.452  -7.269  0.00  0.00    +0.212 C 
ATOM     22  O   UNL     1      -0.677  -4.876  -8.183  0.00  0.00    -0.276 OA
ATOM     23  C   UNL     1      -2.159  -3.193  -7.450  0.00  0.00    +0.109 C 
ENDBRANCH  11  15
BRANCH   1  25
ATOM     24  N   UNL     1      -2.382  -7.148   1.761  0.00  0.00    -0.312 N 
ATOM     25  C   UNL     1      -2.569  -7.121   0.427  0.00  0.00    +0.218 C 
ATOM     26  O   UNL     1      -1.619  -7.209  -0.321  0.00  0.00    -0.275 OA
ATOM     27  H   UNL     1      -3.142  -7.078   2.359  0.00  0.00    +0.149 HD
BRANCH  24  28
ATOM     28  C   UNL     1      -1.030  -7.285   2.308  0.00  0.00    +0.148 C 
BRANCH  28  29
ATOM     29  C   UNL     1      -1.096  -7.289   3.837  0.00  0.00    +0.187 C 
ATOM     30  C   UNL     1       0.316  -7.431   4.408  0.00  0.00    +0.053 C 
BRANCH  29  31
ATOM     31  O   UNL     1      -1.673  -6.063   4.292  0.00  0.00    -0.488 OA
BRANCH  31  36
ATOM     32  C   UNL     1      -4.111  -6.114   9.369  0.00  0.00    +0.044 C 
ATOM     33  C   UNL     1      -3.459  -6.100   8.010  0.00  0.00    -0.050 A 
ATOM     34  C   UNL     1      -2.963  -7.273   7.471  0.00  0.00    +0.007 A 
ATOM     35  C   UNL     1      -2.364  -7.263   6.226  0.00  0.00    +0.046 A 
ATOM     36  C   UNL     1      -2.262  -6.075   5.517  0.00  0.00    +0.121 A 
ATOM     37  C   UNL     1      -2.761  -4.900   6.059  0.00  0.00    +0.046 A 
ATOM     38  C   UNL     1      -3.363  -4.916   7.303  0.00  0.00    +0.007 A 
ENDBRANCH  31  36
ENDBRANCH  29  31
ENDBRANCH  28  29
ENDBRANCH  24  28
ENDBRANCH   1  25
TORSDOF 6
