REMARK  Name = ZINC31079232
REMARK  11 active torsions:
REMARK  status: ('A' for Active; 'I' for Inactive)
REMARK    1  A    between atoms: C_1  and  N_2
REMARK    2  A    between atoms: N_2  and  C_3
REMARK    3  A    between atoms: N_2  and  C_4
REMARK    4  A    between atoms: C_4  and  C_5
REMARK    5  A    between atoms: C_8  and  C_11
REMARK    6  A    between atoms: C_16  and  C_17
REMARK    7  A    between atoms: C_17  and  N_18
REMARK    8  A    between atoms: C_19  and  C_21
REMARK    9  A    between atoms: C_21  and  C_22
REMARK   10  A    between atoms: C_22  and  C_23
REMARK   11  A    between atoms: C_25  and  C_28
REMARK                            x       y       z     vdW  Elec       q    Type
REMARK                         _______ _______ _______ _____ _____    ______ ____
ROOT
ATOM      1  C   UNL     1      -3.675  -6.969  -2.560  0.00  0.00    +0.140 C 
ENDROOT
BRANCH   1   7
ATOM      2  C   UNL     1      -3.111  -7.892  -4.828  0.00  0.00    -0.013 A 
ATOM      3  C   UNL     1      -3.446  -8.154  -6.155  0.00  0.00    +0.009 A 
ATOM      4  C   UNL     1      -4.679  -7.771  -6.642  0.00  0.00    +0.001 A 
ATOM      5  C   UNL     1      -5.584  -7.131  -5.813  0.00  0.00    +0.000 A 
ATOM      6  C   UNL     1      -5.258  -6.872  -4.494  0.00  0.00    +0.006 A 
ATOM      7  C   UNL     1      -4.028  -7.252  -3.997  0.00  0.00    -0.023 A 
BRANCH   2  11
ATOM      8  C   UNL     1       0.691  -9.053  -3.317  0.00  0.00    -0.064 A 
ATOM      9  C   UNL     1      -0.463  -9.500  -2.698  0.00  0.00    +0.002 A 
ATOM     10  C   UNL     1      -1.699  -9.126  -3.184  0.00  0.00    +0.009 A 
ATOM     11  C   UNL     1      -1.784  -8.297  -4.301  0.00  0.00    -0.018 A 
ATOM     12  C   UNL     1      -0.619  -7.854  -4.924  0.00  0.00    +0.009 A 
ATOM     13  C   UNL     1       0.612  -8.229  -4.425  0.00  0.00    +0.002 A 
BRANCH   8  14
ATOM     14  C   UNL     1       2.038  -9.465  -2.782  0.00  0.00    -0.044 C 
BRANCH  14  16
ATOM     15  C   UNL     1       2.707 -10.499  -4.867  0.00  0.00    -0.096 C 
ATOM     16  N   UNL     1       2.463 -10.711  -3.433  0.00  0.00    +0.379 N 
ATOM     17  C   UNL     1       3.651 -11.270  -2.775  0.00  0.00    -0.096 C 
ATOM     18  H   UNL     1       1.647 -11.441  -3.333  0.00  0.00    -0.082 HD
ENDBRANCH  14  16
ENDBRANCH   8  14
ENDBRANCH   2  11
ENDBRANCH   1   7
BRANCH   1  19
ATOM     19  N   UNL     1      -2.728  -5.853  -2.500  0.00  0.00    -0.311 N 
ATOM     20  C   UNL     1      -2.184  -5.492  -1.320  0.00  0.00    +0.214 C 
ATOM     21  O   UNL     1      -2.479  -6.093  -0.308  0.00  0.00    -0.276 OA
ATOM     22  H   UNL     1      -2.461  -5.308  -3.417  0.00  0.00    +0.149 HD
BRANCH  20  23
ATOM     23  C   UNL     1      -1.211  -4.344  -1.259  0.00  0.00    +0.105 C 
BRANCH  23  24
ATOM     24  C   UNL     1      -0.748  -4.145   0.186  0.00  0.00    +0.108 C 
BRANCH  24  25
ATOM     25  C   UNL     1       0.226  -2.996   0.247  0.00  0.00    +0.228 A 
ATOM     26  N   UNL     1      -0.069  -1.736   0.449  0.00  0.00    -0.191 NA
ATOM     27  C   UNL     1       1.112  -1.078   0.421  0.00  0.00    +0.202 A 
ATOM     28  N   UNL     1       2.046  -1.969   0.214  0.00  0.00    -0.056 NA
ATOM     29  O   UNL     1       1.554  -3.073   0.113  0.00  0.00    -0.338 OA
BRANCH  27  30
ATOM     30  C   UNL     1       1.311   0.383   0.598  0.00  0.00    +0.025 A 
ATOM     31  C   UNL     1       0.224   1.235   0.808  0.00  0.00    +0.031 A 
ATOM     32  C   UNL     1       0.454   2.586   0.972  0.00  0.00    +0.111 A 
ATOM     33  N   UNL     1       1.677   3.075   0.923  0.00  0.00    -0.263 NA
ATOM     34  C   UNL     1       2.730   2.306   0.722  0.00  0.00    +0.111 A 
ATOM     35  C   UNL     1       2.590   0.943   0.553  0.00  0.00    +0.031 A 
ENDBRANCH  27  30
ENDBRANCH  24  25
ENDBRANCH  23  24
ENDBRANCH  20  23
ENDBRANCH   1  19
TORSDOF 9
