REMARK  Name = ZINC41940070
REMARK  7 active torsions:
REMARK  status: ('A' for Active; 'I' for Inactive)
REMARK    1  A    between atoms: C_1  and  C_2
REMARK    2  A    between atoms: C_2  and  C_3
REMARK    3  A    between atoms: C_3  and  C_4
REMARK    4  A    between atoms: C_3  and  C_6
REMARK    5  A    between atoms: C_3  and  O_9
REMARK    6  A    between atoms: C_4  and  C_5
REMARK    7  A    between atoms: O_9  and  C_10
REMARK                            x       y       z     vdW  Elec       q    Type
REMARK                         _______ _______ _______ _____ _____    ______ ____
ROOT
ATOM      1  C   UNL     1      -3.523  -0.409  -1.185  0.00  0.00    +0.122 A 
ATOM      2  C   UNL     1      -4.145  -0.909  -0.050  0.00  0.00    +0.047 A 
ATOM      3  C   UNL     1      -5.501  -1.166  -0.062  0.00  0.00    +0.027 A 
ATOM      4  C   UNL     1      -6.244  -0.923  -1.210  0.00  0.00    +0.037 A 
ATOM      5  C   UNL     1      -5.621  -0.422  -2.345  0.00  0.00    -0.022 A 
ATOM      6  C   UNL     1      -4.265  -0.160  -2.331  0.00  0.00    +0.051 A 
ATOM      7  C   UNL     1      -6.429  -0.158  -3.589  0.00  0.00    +0.046 C 
ATOM      8  C   UNL     1      -7.545  -1.197  -3.704  0.00  0.00    +0.101 C 
ATOM      9  C   UNL     1      -8.276  -1.310  -2.393  0.00  0.00    +0.218 C 
ATOM     10  O   UNL     1      -9.471  -1.520  -2.389  0.00  0.00    -0.275 OA
ATOM     11  N   UNL     1      -7.620  -1.182  -1.225  0.00  0.00    -0.285 N 
ATOM     12  H   UNL     1      -8.103  -1.270  -0.389  0.00  0.00    +0.155 HD
ENDROOT
BRANCH   1  13
ATOM     13  O   UNL     1      -2.187  -0.156  -1.173  0.00  0.00    -0.474 OA
BRANCH  13  14
ATOM     14  C   UNL     1      -1.464  -0.546  -0.004  0.00  0.00    +0.210 C 
BRANCH  14  15
ATOM     15  C   UNL     1      -2.013   0.186   1.194  0.00  0.00    +0.399 C 
ATOM     16  O   UNL     1      -2.937   0.969   1.058  0.00  0.00    -0.242 OA
ATOM     17  O   UNL     1      -1.532  -0.005   2.298  0.00  0.00    -0.242 OA
ENDBRANCH  14  15
BRANCH  14  19
ATOM     18  C   UNL     1       0.176   1.320  -0.267  0.00  0.00    +0.008 C 
ATOM     19  C   UNL     1       0.016  -0.199  -0.180  0.00  0.00    +0.056 C 
ENDBRANCH  14  19
BRANCH  14  20
ATOM     20  C   UNL     1      -1.612  -2.054   0.208  0.00  0.00    +0.056 C 
ATOM     21  C   UNL     1      -0.961  -2.800  -0.958  0.00  0.00    +0.008 C 
ENDBRANCH  14  20
ENDBRANCH  13  14
ENDBRANCH   1  13
TORSDOF 5
