REMARK  Name = ZINC13625549
REMARK  15 active torsions:
REMARK  status: ('A' for Active; 'I' for Inactive)
REMARK    1  A    between atoms: C_1  and  C_2
REMARK    2  A    between atoms: C_2  and  C_3
REMARK    3  A    between atoms: C_3  and  C_5
REMARK    4  A    between atoms: C_3  and  C_6
REMARK    5  A    between atoms: C_6  and  C_8
REMARK    6  A    between atoms: C_6  and  N_16
REMARK    7  A    between atoms: N_10  and  C_11
REMARK    8  A    between atoms: C_11  and  C_12
REMARK    9  A    between atoms: C_12  and  C_13
REMARK   10  A    between atoms: C_13  and  N_67
REMARK   11  A    between atoms: C_14  and  N_67
REMARK   12  A    between atoms: C_15  and  N_67
REMARK   13  A    between atoms: C_17  and  C_19
REMARK   14  A    between atoms: N_21  and  C_33
REMARK   15  A    between atoms: C_33  and  C_34
REMARK                            x       y       z     vdW  Elec       q    Type
REMARK                         _______ _______ _______ _____ _____    ______ ____
ROOT
ATOM      1  N   UNL     1      -6.191   1.678  -0.467  0.00  0.00    -0.300 N 
ATOM      2  C   UNL     1      -5.214   0.756  -0.577  0.00  0.00    +0.250 C 
ATOM      3  O   UNL     1      -5.408  -0.384  -0.200  0.00  0.00    -0.270 OA
ATOM      4  H   UNL     1      -6.036   2.587  -0.768  0.00  0.00    +0.150 HD
ENDROOT
BRANCH   2   5
ATOM      5  C   UNL     1      -3.913   1.129  -1.154  0.00  0.00    +0.100 A 
ATOM      6  C   UNL     1      -3.680   2.418  -1.585  0.00  0.00    +0.103 A 
ATOM      7  N   UNL     1      -2.505   2.795  -2.106  0.00  0.00    -0.346 N 
ATOM      8  C   UNL     1      -1.446   1.926  -2.267  0.00  0.00    +0.056 A 
ATOM      9  C   UNL     1      -0.253   2.366  -2.830  0.00  0.00    +0.076 A 
ATOM     10  C   UNL     1       0.804   1.489  -2.989  0.00  0.00    +0.168 A 
ATOM     11  C   UNL     1       0.684   0.154  -2.586  0.00  0.00    +0.167 A 
ATOM     12  C   UNL     1      -0.492  -0.297  -2.026  0.00  0.00    +0.063 A 
ATOM     13  C   UNL     1      -1.565   0.583  -1.868  0.00  0.00    +0.050 A 
ATOM     14  C   UNL     1      -2.838   0.131  -1.280  0.00  0.00    +0.202 A 
ATOM     15  O   UNL     1      -2.994  -1.020  -0.913  0.00  0.00    -0.286 OA
ATOM     16  O   UNL     1       1.860  -0.487  -2.853  0.00  0.00    -0.453 OA
ATOM     17  C   UNL     1       2.552   0.355  -3.793  0.00  0.00    +0.466 C 
ATOM     18  O   UNL     1       2.054   1.675  -3.505  0.00  0.00    -0.453 OA
BRANCH   7  19
ATOM     19  C   UNL     1      -2.343   4.186  -2.538  0.00  0.00    +0.118 C 
ATOM     20  C   UNL     1      -2.655   4.295  -4.032  0.00  0.00    +0.027 C 
ENDBRANCH   7  19
ENDBRANCH   2   5
BRANCH   1  21
ATOM     21  C   UNL     1      -7.487   1.308   0.107  0.00  0.00    +0.162 C 
BRANCH  21  22
ATOM     22  C   UNL     1      -8.551   2.239  -0.413  0.00  0.00    +0.234 C 
ATOM     23  O   UNL     1      -8.241   3.317  -0.875  0.00  0.00    -0.274 OA
ATOM     24  N   UNL     1      -9.848   1.875  -0.364  0.00  0.00    -0.314 N 
ATOM     25  H   UNL     1     -10.091   0.985  -0.062  0.00  0.00    +0.149 HD
BRANCH  24  26
ATOM     26  C   UNL     1     -10.890   2.821  -0.767  0.00  0.00    +0.102 C 
BRANCH  26  27
ATOM     27  C   UNL     1     -12.263   2.162  -0.618  0.00  0.00    +0.000 C 
BRANCH  27  28
ATOM     28  C   UNL     1     -13.352   3.151  -1.039  0.00  0.00    -0.078 C 
BRANCH  28  31
ATOM     29  C   UNL     1     -15.748   3.503  -1.061  0.00  0.00    -0.097 C 
ATOM     30  C   UNL     1     -14.825   1.405  -1.841  0.00  0.00    -0.097 C 
ATOM     31  N   UNL     1     -14.672   2.508  -0.869  0.00  0.00    +0.376 N 
ATOM     32  H   UNL     1     -14.737   2.126   0.082  0.00  0.00    -0.083 HD
ENDBRANCH  28  31
ENDBRANCH  27  28
ENDBRANCH  26  27
ENDBRANCH  24  26
ENDBRANCH  21  22
BRANCH  21  33
ATOM     33  C   UNL     1      -7.418   1.412   1.632  0.00  0.00    +0.015 C 
ATOM     34  C   UNL     1      -6.966   2.820   2.027  0.00  0.00    +0.010 C 
BRANCH  33  36
ATOM     35  C   UNL     1      -6.439   0.405   3.698  0.00  0.00    +0.004 C 
ATOM     36  C   UNL     1      -6.417   0.387   2.168  0.00  0.00    +0.002 C 
ENDBRANCH  33  36
ENDBRANCH  21  33
ENDBRANCH   1  21
TORSDOF 10
