REMARK  Name = ZINC48939738
REMARK  6 active torsions:
REMARK  status: ('A' for Active; 'I' for Inactive)
REMARK    1  A    between atoms: C_1  and  C_2
REMARK    2  A    between atoms: C_4  and  N_8
REMARK    3  A    between atoms: N_5  and  C_7
REMARK    4  A    between atoms: C_9  and  C_11
REMARK    5  A    between atoms: C_11  and  N_17
REMARK    6  A    between atoms: C_18  and  C_20
REMARK                            x       y       z     vdW  Elec       q    Type
REMARK                         _______ _______ _______ _____ _____    ______ ____
ROOT
ATOM      1  N   UNL     1       0.964  -2.878  -1.993  0.00  0.00    -0.269 N 
ATOM      2  C   UNL     1      -0.048  -3.135  -2.845  0.00  0.00    +0.242 C 
ATOM      3  O   UNL     1      -1.062  -2.470  -2.800  0.00  0.00    -0.273 OA
ATOM      4  H   UNL     1       1.745  -3.453  -1.981  0.00  0.00    +0.156 HD
ENDROOT
BRANCH   1   8
ATOM      5  C   UNL     1      -0.677   1.196   0.378  0.00  0.00    +0.067 C 
ATOM      6  C   UNL     1       0.181   0.034  -0.052  0.00  0.00    +0.062 A 
ATOM      7  C   UNL     1      -0.143  -0.902  -1.039  0.00  0.00    +0.068 A 
ATOM      8  C   UNL     1       0.888  -1.786  -1.129  0.00  0.00    +0.123 A 
ATOM      9  N   UNL     1       1.825  -1.415  -0.227  0.00  0.00    -0.253 N 
ATOM     10  N   UNL     1       1.359  -0.269   0.431  0.00  0.00    -0.175 NA
ATOM     11  C   UNL     1       3.103  -2.088   0.016  0.00  0.00    +0.174 C 
ENDBRANCH   1   8
BRANCH   2  12
ATOM     12  C   UNL     1       0.080  -4.246  -3.855  0.00  0.00    +0.111 C 
ATOM     13  C   UNL     1      -1.313  -4.748  -4.240  0.00  0.00    +0.035 C 
ATOM     14  C   UNL     1      -1.183  -5.877  -5.265  0.00  0.00    +0.003 C 
ATOM     15  C   UNL     1      -0.467  -5.354  -6.512  0.00  0.00    +0.000 C 
ATOM     16  C   UNL     1       0.926  -4.852  -6.126  0.00  0.00    +0.003 C 
ATOM     17  C   UNL     1       0.796  -3.723  -5.101  0.00  0.00    +0.035 C 
BRANCH  12  18
ATOM     18  N   UNL     1       0.852  -5.347  -3.273  0.00  0.00    -0.302 N 
ATOM     19  C   UNL     1       0.399  -5.981  -2.174  0.00  0.00    +0.211 C 
ATOM     20  O   UNL     1      -0.601  -5.583  -1.613  0.00  0.00    -0.276 OA
ATOM     21  C   UNL     1       1.134  -7.183  -1.640  0.00  0.00    +0.109 C 
ATOM     22  H   UNL     1       1.689  -5.620  -3.680  0.00  0.00    +0.150 HD
ENDBRANCH  12  18
ENDBRANCH   2  12
TORSDOF 3
