REMARK  Name = ZINC39696382
REMARK  13 active torsions:
REMARK  status: ('A' for Active; 'I' for Inactive)
REMARK    1  A    between atoms: C_1  and  C_2
REMARK    2  A    between atoms: C_2  and  C_3
REMARK    3  A    between atoms: C_2  and  C_4
REMARK    4  A    between atoms: C_2  and  S_5
REMARK    5  A    between atoms: S_5  and  C_6
REMARK    6  A    between atoms: C_6  and  C_7
REMARK    7  A    between atoms: C_7  and  N_8
REMARK    8  A    between atoms: C_9  and  C_11
REMARK    9  A    between atoms: C_22  and  C_24
REMARK   10  A    between atoms: C_27  and  O_32
REMARK   11  A    between atoms: C_28  and  O_30
REMARK   12  A    between atoms: O_30  and  C_31
REMARK   13  A    between atoms: O_32  and  C_33
REMARK                            x       y       z     vdW  Elec       q    Type
REMARK                         _______ _______ _______ _____ _____    ______ ____
ROOT
ATOM      1  C   UNL     1       6.536   0.895  -3.732  0.00  0.00    +0.100 C 
ATOM      2  C   UNL     1       6.738   2.423  -3.628  0.00  0.00    +0.121 C 
ATOM      3  N   UNL     1       8.001   2.684  -4.359  0.00  0.00    -0.296 N 
ATOM      4  C   UNL     1       7.942   1.778  -5.531  0.00  0.00    +0.115 C 
ATOM      5  C   UNL     1       7.327   0.476  -4.982  0.00  0.00    -0.004 C 
ATOM      6  C   UNL     1       6.391  -0.142  -6.017  0.00  0.00    -0.010 C 
ATOM      7  C   UNL     1       7.208  -0.604  -7.227  0.00  0.00    -0.082 C 
ATOM      8  N   UNL     1       8.211  -1.586  -6.796  0.00  0.00    +0.379 N 
ATOM      9  C   UNL     1       9.163  -0.957  -5.872  0.00  0.00    -0.082 C 
ATOM     10  C   UNL     1       8.428  -0.510  -4.605  0.00  0.00    -0.010 C 
ATOM     11  C   UNL     1       8.981   3.550  -4.032  0.00  0.00    +0.247 C 
ATOM     12  O   UNL     1       8.945   4.134  -2.967  0.00  0.00    -0.270 OA
ATOM     13  H   UNL     1       7.750  -2.354  -6.331  0.00  0.00    -0.086 HD
ATOM     14  H   UNL     1       8.707  -1.934  -7.603  0.00  0.00    -0.086 HD
ENDROOT
BRANCH  11  15
ATOM     15  C   UNL     1      10.098   3.787  -4.967  0.00  0.00    +0.041 A 
ATOM     16  C   UNL     1       9.950   3.490  -6.324  0.00  0.00    +0.017 A 
ATOM     17  C   UNL     1      10.994   3.712  -7.196  0.00  0.00    +0.050 A 
ATOM     18  C   UNL     1      12.193   4.232  -6.729  0.00  0.00    +0.162 A 
ATOM     19  C   UNL     1      12.347   4.532  -5.376  0.00  0.00    +0.162 A 
ATOM     20  C   UNL     1      11.303   4.316  -4.498  0.00  0.00    +0.062 A 
BRANCH  19  21
ATOM     21  O   UNL     1      13.524   5.040  -4.922  0.00  0.00    -0.491 OA
ATOM     22  C   UNL     1      13.612   5.323  -3.524  0.00  0.00    +0.277 C 
ENDBRANCH  19  21
BRANCH  18  23
ATOM     23  O   UNL     1      13.219   4.450  -7.592  0.00  0.00    -0.491 OA
ATOM     24  C   UNL     1      12.993   4.121  -8.964  0.00  0.00    +0.277 C 
ENDBRANCH  18  23
ENDBRANCH  11  15
BRANCH   1  26
ATOM     25  N   UNL     1       4.584  -0.593  -3.428  0.00  0.00    -0.314 N 
ATOM     26  C   UNL     1       5.074   0.569  -3.901  0.00  0.00    +0.218 C 
ATOM     27  O   UNL     1       4.340   1.353  -4.464  0.00  0.00    -0.275 OA
ATOM     28  H   UNL     1       5.171  -1.220  -2.978  0.00  0.00    +0.149 HD
BRANCH  25  29
ATOM     29  C   UNL     1       3.163  -0.910  -3.593  0.00  0.00    +0.115 C 
BRANCH  29  30
ATOM     30  C   UNL     1       2.869  -2.277  -2.971  0.00  0.00    +0.088 C 
BRANCH  30  31
ATOM     31  S   UNL     1       1.110  -2.669  -3.176  0.00  0.00    -0.153 S 
BRANCH  31  33
ATOM     32  C   UNL     1       1.333  -4.205  -0.923  0.00  0.00    +0.022 C 
ATOM     33  C   UNL     1       0.930  -4.297  -2.397  0.00  0.00    +0.008 C 
ATOM     34  C   UNL     1       1.832  -5.306  -3.110  0.00  0.00    +0.022 C 
ATOM     35  C   UNL     1      -0.527  -4.753  -2.499  0.00  0.00    +0.022 C 
ENDBRANCH  31  33
ENDBRANCH  30  31
ENDBRANCH  29  30
ENDBRANCH  25  29
ENDBRANCH   1  26
TORSDOF 8
