REMARK  Name = ZINC59006590
REMARK  10 active torsions:
REMARK  status: ('A' for Active; 'I' for Inactive)
REMARK    1  A    between atoms: C_1  and  C_2
REMARK    2  A    between atoms: C_2  and  O_3
REMARK    3  A    between atoms: O_3  and  C_4
REMARK    4  A    between atoms: C_4  and  C_6
REMARK    5  A    between atoms: C_10  and  N_11
REMARK    6  A    between atoms: C_12  and  C_14
REMARK    7  A    between atoms: C_14  and  S_15
REMARK    8  A    between atoms: S_15  and  C_16
REMARK    9  A    between atoms: N_21  and  N_22
REMARK   10  A    between atoms: C_23  and  C_24
REMARK                            x       y       z     vdW  Elec       q    Type
REMARK                         _______ _______ _______ _____ _____    ______ ____
ROOT
ATOM      1  C   UNL     1       8.663  -2.706  -0.514  0.00  0.00    +0.211 A 
ATOM      2  N   UNL     1       9.977  -2.936  -0.610  0.00  0.00    -0.186 NA
ATOM      3  C   UNL     1      10.402  -2.586  -1.807  0.00  0.00    +0.232 A 
ATOM      4  N   UNL     1       9.344  -2.119  -2.504  0.00  0.00    -0.245 N 
ATOM      5  N   UNL     1       8.233  -2.212  -1.650  0.00  0.00    -0.144 NA
ATOM      6  N   UNL     1      11.701  -2.679  -2.267  0.00  0.00    -0.205 N 
ATOM      7  H   UNL     1      11.918  -2.395  -3.169  0.00  0.00    +0.177 HD
ATOM      8  H   UNL     1       9.350  -1.788  -3.416  0.00  0.00    +0.192 HD
ENDROOT
BRANCH   6   9
ATOM      9  N   UNL     1      12.706  -3.186  -1.432  0.00  0.00    -0.187 NA
ATOM     10  C   UNL     1      13.927  -3.273  -1.865  0.00  0.00    +0.140 C 
BRANCH  10  11
ATOM     11  C   UNL     1      14.983  -3.805  -0.987  0.00  0.00    +0.020 A 
ATOM     12  C   UNL     1      16.299  -3.951  -1.296  0.00  0.00    +0.093 A 
ATOM     13  N   UNL     1      16.966  -4.477  -0.228  0.00  0.00    -0.360 N 
ATOM     14  H   UNL     1      17.916  -4.671  -0.208  0.00  0.00    +0.165 HD
ATOM     15  C   UNL     1      16.096  -4.691   0.820  0.00  0.00    +0.047 A 
ATOM     16  C   UNL     1      14.821  -4.278   0.399  0.00  0.00    +0.008 A 
ATOM     17  C   UNL     1      13.734  -4.375   1.266  0.00  0.00    +0.010 A 
ATOM     18  C   UNL     1      13.918  -4.875   2.536  0.00  0.00    +0.001 A 
ATOM     19  C   UNL     1      15.178  -5.280   2.954  0.00  0.00    +0.002 A 
ATOM     20  C   UNL     1      16.260  -5.198   2.105  0.00  0.00    +0.026 A 
ENDBRANCH  10  11
ENDBRANCH   6   9
BRANCH   1  21
ATOM     21  S   UNL     1       7.670  -3.023   0.906  0.00  0.00    -0.075 S 
BRANCH  21  22
ATOM     22  C   UNL     1       6.005  -2.513   0.400  0.00  0.00    +0.173 C 
BRANCH  22  24
ATOM     23  N   UNL     1       3.740  -2.424   1.391  0.00  0.00    -0.279 N 
ATOM     24  C   UNL     1       5.043  -2.734   1.539  0.00  0.00    +0.228 C 
ATOM     25  O   UNL     1       5.442  -3.192   2.589  0.00  0.00    -0.275 OA
ATOM     26  H   UNL     1       3.421  -2.058   0.551  0.00  0.00    +0.155 HD
BRANCH  23  31
ATOM     27  C   UNL     1       1.496  -2.371   2.467  0.00  0.00    +0.091 A 
ATOM     28  C   UNL     1       0.782  -2.684   3.704  0.00  0.00    -0.021 A 
ATOM     29  C   UNL     1       1.563  -3.186   4.676  0.00  0.00    -0.004 A 
ATOM     30  S   UNL     1       3.187  -3.241   3.964  0.00  0.00    -0.077 S 
ATOM     31  C   UNL     1       2.856  -2.628   2.438  0.00  0.00    +0.086 A 
ATOM     32  C   UNL     1       0.780  -3.486   5.926  0.00  0.00    +0.043 C 
ATOM     33  C   UNL     1      -0.540  -2.701   5.757  0.00  0.00    +0.010 C 
ATOM     34  C   UNL     1      -0.652  -2.601   4.222  0.00  0.00    +0.037 C 
BRANCH  27  35
ATOM     35  C   UNL     1       0.801  -1.814   1.305  0.00  0.00    +0.342 C 
ATOM     36  O   UNL     1       0.321  -2.557   0.470  0.00  0.00    -0.245 OA
BRANCH  35  37
ATOM     37  O   UNL     1       0.693  -0.477   1.160  0.00  0.00    -0.461 OA
BRANCH  37  39
ATOM     38  C   UNL     1      -0.019   1.526   0.010  0.00  0.00    +0.048 C 
ATOM     39  C   UNL     1       0.002  -0.004   0.002  0.00  0.00    +0.229 C 
ENDBRANCH  37  39
ENDBRANCH  35  37
ENDBRANCH  27  35
ENDBRANCH  23  31
ENDBRANCH  22  24
ENDBRANCH  21  22
ENDBRANCH   1  21
TORSDOF 9
