REMARK  Name = ZINC12376666
REMARK  4 active torsions:
REMARK  status: ('A' for Active; 'I' for Inactive)
REMARK    1  A    between atoms: C_4  and  N_7
REMARK    2  A    between atoms: C_10  and  C_14
REMARK    3  A    between atoms: C_10  and  N_18
REMARK    4  A    between atoms: C_19  and  C_21
REMARK                            x       y       z     vdW  Elec       q    Type
REMARK                         _______ _______ _______ _____ _____    ______ ____
ROOT
ATOM      1  N   UNL     1       4.584   6.878  -1.909  0.00  0.00    -0.191 N 
ATOM      2  C   UNL     1       4.443   5.712  -1.248  0.00  0.00    +0.279 C 
ATOM      3  O   UNL     1       4.870   4.627  -1.579  0.00  0.00    -0.270 OA
ATOM      4  C   UNL     1       3.639   6.040  -0.005  0.00  0.00    +0.278 C 
ATOM      5  N   UNL     1       3.399   7.489  -0.121  0.00  0.00    -0.263 N 
ATOM      6  C   UNL     1       3.988   7.887  -1.263  0.00  0.00    +0.315 C 
ATOM      7  O   UNL     1       3.980   9.035  -1.663  0.00  0.00    -0.252 OA
ATOM      8  H   UNL     1       2.910   8.047   0.504  0.00  0.00    +0.153 HD
ENDROOT
BRANCH   1  12
ATOM      9  C   UNL     1       6.629   7.291  -5.518  0.00  0.00    +0.000 A 
ATOM     10  C   UNL     1       6.644   6.080  -4.851  0.00  0.00    +0.002 A 
ATOM     11  C   UNL     1       5.968   5.940  -3.655  0.00  0.00    +0.024 A 
ATOM     12  C   UNL     1       5.272   7.017  -3.123  0.00  0.00    +0.046 A 
ATOM     13  C   UNL     1       5.254   8.230  -3.797  0.00  0.00    +0.024 A 
ATOM     14  C   UNL     1       5.937   8.366  -4.990  0.00  0.00    +0.002 A 
ENDBRANCH   1  12
BRANCH   4  15
ATOM     15  C   UNL     1       4.445   5.724   1.256  0.00  0.00    +0.436 C 
ATOM     16  F   UNL     1       4.729   4.355   1.297  0.00  0.00    -0.166 F 
ATOM     17  F   UNL     1       5.642   6.448   1.238  0.00  0.00    -0.166 F 
ATOM     18  F   UNL     1       3.702   6.080   2.386  0.00  0.00    -0.166 F 
ENDBRANCH   4  15
BRANCH   4  19
ATOM     19  N   UNL     1       2.372   5.306  -0.003  0.00  0.00    -0.276 N 
ATOM     20  C   UNL     1       2.373   3.958  -0.023  0.00  0.00    +0.248 C 
ATOM     21  O   UNL     1       3.427   3.352  -0.043  0.00  0.00    -0.270 OA
ATOM     22  H   UNL     1       1.531   5.790   0.014  0.00  0.00    +0.152 HD
BRANCH  20  23
ATOM     23  C   UNL     1       1.095   3.218  -0.020  0.00  0.00    +0.055 A 
ATOM     24  C   UNL     1      -0.117   3.912   0.004  0.00  0.00    +0.016 A 
ATOM     25  C   UNL     1      -1.307   3.216   0.007  0.00  0.00    +0.021 A 
ATOM     26  C   UNL     1      -1.303   1.830  -0.020  0.00  0.00    +0.042 A 
ATOM     27  C   UNL     1      -0.105   1.135  -0.038  0.00  0.00    +0.040 A 
ATOM     28  C   UNL     1       1.093   1.821  -0.041  0.00  0.00    +0.054 A 
ATOM     29 CL   UNL     1       2.594   0.949  -0.072  0.00  0.00    -0.083 Cl
ATOM     30 CL   UNL     1      -2.806   0.961  -0.023  0.00  0.00    -0.083 Cl
ENDBRANCH  20  23
ENDBRANCH   4  19
TORSDOF 4
