REMARK  Name = ZINC21790645
REMARK  9 active torsions:
REMARK  status: ('A' for Active; 'I' for Inactive)
REMARK    1  A    between atoms: C_1  and  C_2
REMARK    2  A    between atoms: C_2  and  C_3
REMARK    3  A    between atoms: C_3  and  C_5
REMARK    4  A    between atoms: C_3  and  N_16
REMARK    5  A    between atoms: N_7  and  C_8
REMARK    6  A    between atoms: C_24  and  C_27
REMARK    7  A    between atoms: C_29  and  C_37
REMARK    8  A    between atoms: C_32  and  N_33
REMARK    9  A    between atoms: C_34  and  C_36
REMARK                            x       y       z     vdW  Elec       q    Type
REMARK                         _______ _______ _______ _____ _____    ______ ____
ROOT
ATOM      1  N   UNL     1       3.265   7.497  -0.405  0.00  0.00    -0.293 N 
ATOM      2  C   UNL     1       3.683   8.246  -1.489  0.00  0.00    +0.071 A 
ATOM      3  C   UNL     1       4.275   7.624  -2.584  0.00  0.00    +0.028 A 
ATOM      4  C   UNL     1       4.689   8.378  -3.660  0.00  0.00    +0.002 A 
ATOM      5  C   UNL     1       4.519   9.757  -3.663  0.00  0.00    +0.002 A 
ATOM      6  C   UNL     1       3.940  10.388  -2.601  0.00  0.00    +0.030 A 
ATOM      7  C   UNL     1       3.511   9.643  -1.491  0.00  0.00    +0.088 A 
ATOM      8  N   UNL     1       2.940  10.267  -0.444  0.00  0.00    -0.240 NA
ATOM      9  C   UNL     1       2.531   9.591   0.604  0.00  0.00    +0.138 A 
ATOM     10  C   UNL     1       2.687   8.124   0.643  0.00  0.00    +0.279 A 
ATOM     11  O   UNL     1       2.305   7.489   1.608  0.00  0.00    -0.265 OA
ENDROOT
BRANCH   9  12
ATOM     12  C   UNL     1       1.907  10.297   1.742  0.00  0.00    +0.027 A 
ATOM     13  C   UNL     1       0.682  10.947   1.579  0.00  0.00    +0.015 A 
ATOM     14  C   UNL     1       0.102  11.599   2.646  0.00  0.00    -0.050 A 
ATOM     15  C   UNL     1       0.735  11.625   3.877  0.00  0.00    +0.005 A 
ATOM     16  C   UNL     1       1.950  10.991   4.052  0.00  0.00    +0.024 A 
ATOM     17  C   UNL     1       2.545  10.325   2.990  0.00  0.00    +0.043 A 
ATOM     18  C   UNL     1      -1.224  12.294   2.469  0.00  0.00    +0.044 C 
BRANCH  17  19
ATOM     19  N   UNL     1       3.772   9.684   3.164  0.00  0.00    -0.285 N 
ATOM     20  C   UNL     1       4.073   9.115   4.349  0.00  0.00    +0.214 C 
ATOM     21  O   UNL     1       3.242   9.075   5.231  0.00  0.00    -0.276 OA
ATOM     22  C   UNL     1       5.443   8.530   4.577  0.00  0.00    +0.109 C 
ATOM     23  H   UNL     1       4.493   9.642   2.335  0.00  0.00    +0.155 HD
ENDBRANCH  17  19
ENDBRANCH   9  12
BRANCH   1  24
ATOM     24  C   UNL     1       3.441   6.043  -0.396  0.00  0.00    +0.176 C 
BRANCH  24  25
ATOM     25  C   UNL     1       2.090   5.374  -0.373  0.00  0.00    +0.240 C 
ATOM     26  O   UNL     1       1.081   6.046  -0.366  0.00  0.00    -0.273 OA
ATOM     27  N   UNL     1       2.005   4.029  -0.362  0.00  0.00    -0.281 N 
ATOM     28  H   UNL     1       2.918   3.420  -0.283  0.00  0.00    +0.155 HD
BRANCH  27  29
ATOM     29  C   UNL     1       0.754   3.406  -0.449  0.00  0.00    +0.072 A 
ATOM     30  C   UNL     1      -0.315   4.072  -1.033  0.00  0.00    +0.064 A 
ATOM     31  C   UNL     1      -1.550   3.454  -1.117  0.00  0.00    +0.125 A 
ATOM     32  C   UNL     1      -1.719   2.171  -0.626  0.00  0.00    +0.041 A 
ATOM     33  C   UNL     1      -0.657   1.507  -0.040  0.00  0.00    +0.043 A 
ATOM     34  C   UNL     1       0.580   2.119   0.048  0.00  0.00    +0.145 A 
ATOM     35  F   UNL     1       1.618   1.468   0.617  0.00  0.00    -0.204 F 
ATOM     36  F   UNL     1      -2.591   4.102  -1.685  0.00  0.00    -0.205 F 
ENDBRANCH  27  29
ENDBRANCH  24  25
BRANCH  24  38
ATOM     37  C   UNL     1       5.647   6.211   0.764  0.00  0.00    +0.006 C 
ATOM     38  C   UNL     1       4.233   5.633   0.847  0.00  0.00    +0.031 C 
ENDBRANCH  24  38
ENDBRANCH   1  24
TORSDOF 6
