REMARK  Name = ZINC64774246
REMARK  9 active torsions:
REMARK  status: ('A' for Active; 'I' for Inactive)
REMARK    1  A    between atoms: C_1  and  O_2
REMARK    2  A    between atoms: O_2  and  C_3
REMARK    3  A    between atoms: C_7  and  C_13
REMARK    4  A    between atoms: C_8  and  O_9
REMARK    5  A    between atoms: O_9  and  C_10
REMARK    6  A    between atoms: C_10  and  C_11
REMARK    7  A    between atoms: C_21  and  S_27
REMARK    8  A    between atoms: S_27  and  C_28
REMARK    9  A    between atoms: C_28  and  C_29
REMARK                            x       y       z     vdW  Elec       q    Type
REMARK                         _______ _______ _______ _____ _____    ______ ____
ROOT
ATOM      1  C   UNL     1       1.394  -4.134   2.219  0.00  0.00    +0.050 C 
ATOM      2  C   UNL     1       2.853  -4.588   2.117  0.00  0.00    +0.105 C 
ATOM      3  C   UNL     1       3.602  -4.275   3.379  0.00  0.00    +0.219 C 
ATOM      4  O   UNL     1       4.813  -4.233   3.330  0.00  0.00    -0.275 OA
ATOM      5  N   UNL     1       3.007  -4.039   4.556  0.00  0.00    -0.273 N 
ATOM      6  C   UNL     1       1.645  -3.996   4.658  0.00  0.00    +0.117 C 
ATOM      7  N   UNL     1       1.072  -3.421   5.676  0.00  0.00    -0.212 NA
ATOM      8  C   UNL     1      -0.255  -3.259   5.751  0.00  0.00    +0.182 C 
ATOM      9  N   UNL     1      -1.067  -3.636   4.774  0.00  0.00    -0.154 NA
ATOM     10  C   UNL     1      -0.617  -4.265   3.697  0.00  0.00    +0.249 C 
ATOM     11  O   UNL     1      -1.393  -4.556   2.808  0.00  0.00    -0.273 OA
ATOM     12  C   UNL     1       0.829  -4.622   3.556  0.00  0.00    +0.148 C 
ATOM     13  H   UNL     1       3.551  -3.898   5.347  0.00  0.00    +0.156 HD
ENDROOT
BRANCH   1  18
ATOM     14  C   UNL     1       0.418  -0.622   1.197  0.00  0.00    +0.162 A 
ATOM     15  C   UNL     1       1.203   0.137   2.050  0.00  0.00    +0.049 A 
ATOM     16  C   UNL     1       2.044  -0.486   2.953  0.00  0.00    +0.004 A 
ATOM     17  C   UNL     1       2.105  -1.867   3.006  0.00  0.00    +0.008 A 
ATOM     18  C   UNL     1       1.325  -2.630   2.158  0.00  0.00    +0.003 A 
ATOM     19  C   UNL     1       0.475  -2.011   1.255  0.00  0.00    +0.166 A 
BRANCH  14  21
ATOM     20  C   UNL     1      -0.416   1.418   0.305  0.00  0.00    +0.277 C 
ATOM     21  O   UNL     1      -0.410  -0.011   0.308  0.00  0.00    -0.491 OA
ENDBRANCH  14  21
BRANCH  19  22
ATOM     22  O   UNL     1      -0.297  -2.760   0.423  0.00  0.00    -0.484 OA
BRANCH  22  23
ATOM     23  C   UNL     1       0.266  -3.116  -0.841  0.00  0.00    +0.256 C 
BRANCH  23  24
ATOM     24  C   UNL     1      -0.727  -3.939  -1.620  0.00  0.00    +0.006 C 
ATOM     25  C   UNL     1      -0.939  -3.684  -2.887  0.00  0.00    +0.007 C 
ENDBRANCH  23  24
ENDBRANCH  22  23
ENDBRANCH  19  22
ENDBRANCH   1  18
BRANCH   8  26
ATOM     26  S   UNL     1      -0.944  -2.521   7.195  0.00  0.00    -0.084 S 
BRANCH  26  27
ATOM     27  C   UNL     1      -2.728  -2.502   6.869  0.00  0.00    +0.112 C 
BRANCH  27  28
ATOM     28  C   UNL     1      -3.446  -1.887   8.043  0.00  0.00    -0.037 A 
ATOM     29  C   UNL     1      -3.874  -2.687   9.087  0.00  0.00    +0.007 A 
ATOM     30  C   UNL     1      -4.532  -2.124  10.164  0.00  0.00    +0.038 A 
ATOM     31  C   UNL     1      -4.763  -0.759  10.197  0.00  0.00    +0.123 A 
ATOM     32  C   UNL     1      -4.335   0.040   9.151  0.00  0.00    +0.038 A 
ATOM     33  C   UNL     1      -3.672  -0.524   8.078  0.00  0.00    +0.007 A 
ATOM     34  F   UNL     1      -5.407  -0.208  11.249  0.00  0.00    -0.205 F 
ENDBRANCH  27  28
ENDBRANCH  26  27
ENDBRANCH   8  26
TORSDOF 8
