REMARK  Name = ZINC35593191
REMARK  13 active torsions:
REMARK  status: ('A' for Active; 'I' for Inactive)
REMARK    1  A    between atoms: C_1  and  C_2
REMARK    2  A    between atoms: C_2  and  C_3
REMARK    3  A    between atoms: C_2  and  C_4
REMARK    4  A    between atoms: C_2  and  N_5
REMARK    5  A    between atoms: C_8  and  C_10
REMARK    6  A    between atoms: C_16  and  C_32
REMARK    7  A    between atoms: N_22  and  C_23
REMARK    8  A    between atoms: C_23  and  C_24
REMARK    9  A    between atoms: N_26  and  C_27
REMARK   10  A    between atoms: C_27  and  C_28
REMARK   11  A    between atoms: C_28  and  N_29
REMARK   12  A    between atoms: N_29  and  C_30
REMARK   13  A    between atoms: N_29  and  C_31
REMARK                            x       y       z     vdW  Elec       q    Type
REMARK                         _______ _______ _______ _____ _____    ______ ____
ROOT
ATOM      1  N   UNL     1       0.144  -0.646  -1.550  0.00  0.00    -0.244 N 
ATOM      2  C   UNL     1      -0.034  -1.949  -1.867  0.00  0.00    +0.132 A 
ATOM      3  C   UNL     1       0.353  -2.131  -3.149  0.00  0.00    +0.037 A 
ATOM      4  C   UNL     1       0.795  -0.893  -3.644  0.00  0.00    +0.099 A 
ATOM      5  N   UNL     1       0.662  -0.000  -2.683  0.00  0.00    -0.169 NA
ATOM      6  C   UNL     1       0.301  -3.444  -3.887  0.00  0.00    +0.115 C 
ATOM      7  S   UNL     1       1.639  -4.520  -3.257  0.00  0.00    -0.138 S 
ATOM      8  C   UNL     1       1.573  -4.191  -1.464  0.00  0.00    +0.166 C 
ATOM      9  C   UNL     1       0.152  -4.127  -0.989  0.00  0.00    +0.231 C 
ATOM     10  O   UNL     1      -0.383  -5.122  -0.549  0.00  0.00    -0.274 OA
ATOM     11  N   UNL     1      -0.527  -2.977  -1.048  0.00  0.00    -0.246 N 
ENDROOT
BRANCH   6  12
ATOM     12  C   UNL     1       0.492  -3.203  -5.362  0.00  0.00    +0.005 A 
ATOM     13  C   UNL     1       1.688  -3.539  -5.968  0.00  0.00    +0.008 A 
ATOM     14  C   UNL     1       1.864  -3.318  -7.321  0.00  0.00    +0.000 A 
ATOM     15  C   UNL     1       0.844  -2.761  -8.070  0.00  0.00    +0.003 A 
ATOM     16  C   UNL     1      -0.352  -2.425  -7.467  0.00  0.00    +0.038 A 
ATOM     17  C   UNL     1      -0.531  -2.650  -6.112  0.00  0.00    +0.128 A 
ATOM     18  F   UNL     1      -1.703  -2.326  -5.522  0.00  0.00    -0.205 F 
ENDBRANCH   6  12
BRANCH   4  19
ATOM     19  C   UNL     1       1.315  -0.634  -5.011  0.00  0.00    +0.002 A 
ATOM     20  C   UNL     1       0.641   0.241  -5.861  0.00  0.00    +0.010 A 
ATOM     21  C   UNL     1       1.129   0.478  -7.130  0.00  0.00    +0.001 A 
ATOM     22  C   UNL     1       2.284  -0.151  -7.558  0.00  0.00    +0.000 A 
ATOM     23  C   UNL     1       2.957  -1.020  -6.719  0.00  0.00    +0.001 A 
ATOM     24  C   UNL     1       2.481  -1.261  -5.446  0.00  0.00    +0.010 A 
ENDBRANCH   4  19
BRANCH   1  26
ATOM     25  C   UNL     1      -1.644   0.325  -0.193  0.00  0.00    +0.036 C 
ATOM     26  C   UNL     1      -0.155  -0.022  -0.259  0.00  0.00    +0.057 C 
ATOM     27  C   UNL     1       0.674   1.255  -0.106  0.00  0.00    +0.036 C 
ATOM     28  C   UNL     1       0.193  -0.994   0.871  0.00  0.00    +0.036 C 
ENDBRANCH   1  26
BRANCH  11  29
ATOM     29  C   UNL     1      -1.757  -2.793  -0.275  0.00  0.00    +0.210 C 
BRANCH  29  30
ATOM     30  C   UNL     1      -2.949  -3.071  -1.153  0.00  0.00    +0.231 C 
ATOM     31  O   UNL     1      -2.787  -3.392  -2.312  0.00  0.00    -0.274 OA
ATOM     32  N   UNL     1      -4.196  -2.965  -0.652  0.00  0.00    -0.316 N 
ATOM     33  H   UNL     1      -4.326  -2.709   0.274  0.00  0.00    +0.149 HD
BRANCH  32  34
ATOM     34  C   UNL     1      -5.355  -3.235  -1.507  0.00  0.00    +0.085 C 
BRANCH  34  35
ATOM     35  C   UNL     1      -6.640  -3.043  -0.699  0.00  0.00    -0.061 C 
BRANCH  35  36
ATOM     36  N   UNL     1      -7.802  -3.315  -1.556  0.00  0.00    +0.377 N 
ATOM     37  C   UNL     1      -9.030  -3.248  -0.752  0.00  0.00    -0.097 C 
ATOM     38  C   UNL     1      -7.864  -2.313  -2.628  0.00  0.00    -0.097 C 
ATOM     39  H   UNL     1      -7.714  -4.235  -1.960  0.00  0.00    -0.083 HD
ENDBRANCH  35  36
ENDBRANCH  34  35
ENDBRANCH  32  34
ENDBRANCH  29  30
ENDBRANCH  11  29
TORSDOF 8
