REMARK  Name = ZINC35528203
REMARK  9 active torsions:
REMARK  status: ('A' for Active; 'I' for Inactive)
REMARK    1  A    between atoms: C_1  and  C_2
REMARK    2  A    between atoms: C_8  and  N_10
REMARK    3  A    between atoms: C_11  and  C_13
REMARK    4  A    between atoms: C_13  and  C_36
REMARK    5  A    between atoms: N_25  and  C_26
REMARK    6  A    between atoms: C_29  and  O_34
REMARK    7  A    between atoms: C_30  and  O_32
REMARK    8  A    between atoms: O_32  and  C_33
REMARK    9  A    between atoms: O_34  and  C_35
REMARK                            x       y       z     vdW  Elec       q    Type
REMARK                         _______ _______ _______ _____ _____    ______ ____
ROOT
ATOM      1  C   UNL     1       0.114   0.427   4.516  0.00  0.00    +0.133 C 
ATOM      2  C   UNL     1       0.883   0.142   5.807  0.00  0.00    +0.158 C 
ATOM      3  N   UNL     1       0.530  -1.195   6.290  0.00  0.00    -0.333 N 
ATOM      4  C   UNL     1       1.292  -2.078   7.034  0.00  0.00    +0.057 A 
ATOM      5  C   UNL     1       2.572  -2.153   7.600  0.00  0.00    +0.034 A 
ATOM      6  C   UNL     1       2.946  -3.249   8.291  0.00  0.00    +0.048 A 
ATOM      7  S   UNL     1       1.496  -4.285   8.196  0.00  0.00    -0.095 S 
ATOM      8  C   UNL     1       0.472  -3.199   7.239  0.00  0.00    +0.038 A 
ATOM      9  C   UNL     1      -0.758  -2.993   6.624  0.00  0.00    +0.048 A 
ATOM     10  C   UNL     1      -0.713  -1.763   6.037  0.00  0.00    +0.107 A 
ATOM     11  C   UNL     1      -1.717  -1.049   5.240  0.00  0.00    +0.268 C 
ATOM     12  O   UNL     1      -2.864  -1.446   5.146  0.00  0.00    -0.268 OA
ATOM     13  N   UNL     1      -1.298   0.077   4.615  0.00  0.00    -0.250 N 
ATOM     14  C   UNL     1       0.233   1.917   4.191  0.00  0.00    +0.044 C 
ENDROOT
BRANCH  13  15
ATOM     15  C   UNL     1      -2.249   0.932   4.047  0.00  0.00    +0.041 A 
ATOM     16  C   UNL     1      -2.933   0.546   2.901  0.00  0.00    +0.027 A 
ATOM     17  C   UNL     1      -3.872   1.389   2.338  0.00  0.00    +0.051 A 
ATOM     18  C   UNL     1      -4.135   2.620   2.917  0.00  0.00    +0.162 A 
ATOM     19  C   UNL     1      -3.453   3.009   4.065  0.00  0.00    +0.163 A 
ATOM     20  C   UNL     1      -2.514   2.163   4.632  0.00  0.00    +0.073 A 
BRANCH  19  21
ATOM     21  O   UNL     1      -3.710   4.218   4.633  0.00  0.00    -0.491 OA
ATOM     22  C   UNL     1      -2.972   4.552   5.811  0.00  0.00    +0.277 C 
ENDBRANCH  19  21
BRANCH  18  23
ATOM     23  O   UNL     1      -5.060   3.449   2.361  0.00  0.00    -0.491 OA
ATOM     24  C   UNL     1      -5.723   2.986   1.183  0.00  0.00    +0.277 C 
ENDBRANCH  18  23
ENDBRANCH  13  15
BRANCH   1  26
ATOM     25  N   UNL     1       0.017  -0.645   2.289  0.00  0.00    -0.310 N 
ATOM     26  C   UNL     1       0.735  -0.366   3.395  0.00  0.00    +0.239 C 
ATOM     27  O   UNL     1       1.881  -0.754   3.488  0.00  0.00    -0.273 OA
ATOM     28  H   UNL     1      -0.899  -0.335   2.215  0.00  0.00    +0.149 HD
BRANCH  25  35
ATOM     29  C   UNL     1       0.055   0.412  -0.407  0.00  0.00    +0.009 C 
ATOM     30  C   UNL     1      -0.089  -1.083  -0.115  0.00  0.00    +0.006 C 
ATOM     31  C   UNL     1      -1.572  -1.439   0.002  0.00  0.00    +0.005 C 
ATOM     32  C   UNL     1      -1.716  -2.934   0.294  0.00  0.00    +0.000 C 
ATOM     33  C   UNL     1      -1.007  -3.267   1.608  0.00  0.00    +0.002 C 
ATOM     34  C   UNL     1       0.477  -2.911   1.492  0.00  0.00    +0.022 C 
ATOM     35  C   UNL     1       0.621  -1.416   1.199  0.00  0.00    +0.076 C 
ENDBRANCH  25  35
ENDBRANCH   1  26
TORSDOF 5
