REMARK  Name = ZINC16070660
REMARK  10 active torsions:
REMARK  status: ('A' for Active; 'I' for Inactive)
REMARK    1  A    between atoms: C_1  and  C_2
REMARK    2  A    between atoms: C_6  and  O_9
REMARK    3  A    between atoms: C_7  and  C_8
REMARK    4  A    between atoms: O_9  and  C_10
REMARK    5  A    between atoms: C_10  and  C_12
REMARK    6  A    between atoms: C_10  and  C_13
REMARK    7  A    between atoms: N_15  and  N_16
REMARK    8  A    between atoms: C_17  and  C_19
REMARK    9  A    between atoms: C_23  and  N_26
REMARK   10  A    between atoms: C_24  and  C_25
REMARK                            x       y       z     vdW  Elec       q    Type
REMARK                         _______ _______ _______ _____ _____    ______ ____
ROOT
ATOM      1  C   UNL     1      -0.652   0.982  -1.155  0.00  0.00    +0.270 C 
ATOM      2  O   UNL     1      -0.031   1.802  -1.797  0.00  0.00    -0.270 OA
ATOM      3  N   UNL     1      -1.924   0.687  -1.488  0.00  0.00    -0.231 N 
ATOM      4  H   UNL     1      -2.420   0.030  -0.975  0.00  0.00    +0.173 HD
ENDROOT
BRANCH   3   5
ATOM      5  N   UNL     1      -2.530   1.329  -2.575  0.00  0.00    -0.230 N 
ATOM      6  C   UNL     1      -3.803   1.035  -2.908  0.00  0.00    +0.260 C 
ATOM      7  O   UNL     1      -4.424   0.212  -2.265  0.00  0.00    -0.269 OA
ATOM      8  H   UNL     1      -2.034   1.986  -3.089  0.00  0.00    +0.173 HD
BRANCH   6   9
ATOM      9  C   UNL     1      -4.442   1.713  -4.056  0.00  0.00    +0.043 A 
ATOM     10  C   UNL     1      -3.786   2.758  -4.707  0.00  0.00    +0.013 A 
ATOM     11  C   UNL     1      -4.388   3.386  -5.778  0.00  0.00    +0.003 A 
ATOM     12  C   UNL     1      -5.641   2.981  -6.206  0.00  0.00    +0.033 A 
ATOM     13  C   UNL     1      -6.296   1.946  -5.565  0.00  0.00    +0.130 A 
ATOM     14  C   UNL     1      -5.703   1.306  -4.496  0.00  0.00    -0.008 A 
ATOM     15  C   UNL     1      -6.416   0.174  -3.803  0.00  0.00    +0.047 C 
BRANCH  13  16
ATOM     16  N   UNL     1      -7.635   1.520  -6.030  0.00  0.00    +0.057 N 
ATOM     17  O   UNL     1      -8.104   1.990  -7.051  0.00  0.00    -0.126 OA
ATOM     18  O   UNL     1      -8.269   0.698  -5.391  0.00  0.00    -0.126 OA
ENDBRANCH  13  16
ENDBRANCH   6   9
ENDBRANCH   3   5
BRANCH   1  19
ATOM     19  C   UNL     1       0.001   0.291   0.015  0.00  0.00    +0.257 C 
ATOM     20  C   UNL     1      -0.793   0.587   1.289  0.00  0.00    +0.062 C 
BRANCH  19  21
ATOM     21  O   UNL     1       1.339   0.769   0.164  0.00  0.00    -0.480 OA
BRANCH  21  27
ATOM     22  C   UNL     1       5.842  -0.022   1.872  0.00  0.00    +0.044 C 
ATOM     23  C   UNL     1       4.414  -0.460   1.671  0.00  0.00    -0.044 A 
ATOM     24  C   UNL     1       3.993  -1.686   2.152  0.00  0.00    +0.004 A 
ATOM     25  C   UNL     1       2.684  -2.090   1.968  0.00  0.00    +0.004 A 
ATOM     26  C   UNL     1       1.792  -1.267   1.308  0.00  0.00    +0.046 A 
ATOM     27  C   UNL     1       2.213  -0.040   0.819  0.00  0.00    +0.125 A 
ATOM     28  C   UNL     1       3.528   0.364   1.005  0.00  0.00    -0.006 A 
ATOM     29  C   UNL     1       3.988   1.700   0.480  0.00  0.00    +0.048 C 
ENDBRANCH  21  27
ENDBRANCH  19  21
ENDBRANCH   1  19
TORSDOF 6
