REMARK  Name = ZINC08972285
REMARK  8 active torsions:
REMARK  status: ('A' for Active; 'I' for Inactive)
REMARK    1  A    between atoms: C_1  and  C_2
REMARK    2  A    between atoms: C_4  and  C_33
REMARK    3  A    between atoms: C_9  and  C_17
REMARK    4  A    between atoms: N_19  and  C_20
REMARK    5  A    between atoms: C_22  and  O_28
REMARK    6  A    between atoms: C_25  and  O_26
REMARK    7  A    between atoms: O_26  and  C_27
REMARK    8  A    between atoms: O_28  and  C_29
REMARK                            x       y       z     vdW  Elec       q    Type
REMARK                         _______ _______ _______ _____ _____    ______ ____
ROOT
ATOM      1  C   UNL     1      -0.152   1.395  -0.320  0.00  0.00    +0.044 C 
ATOM      2  C   UNL     1      -0.811   1.876   0.947  0.00  0.00    -0.050 A 
ATOM      3  C   UNL     1      -0.040   2.211   2.045  0.00  0.00    +0.008 A 
ATOM      4  C   UNL     1      -0.637   2.651   3.208  0.00  0.00    -0.029 A 
ATOM      5  C   UNL     1      -2.023   2.763   3.285  0.00  0.00    +0.039 A 
ATOM      6  C   UNL     1      -2.788   2.423   2.174  0.00  0.00    -0.027 A 
ATOM      7  C   UNL     1      -2.188   1.989   1.013  0.00  0.00    +0.008 A 
ATOM      8  C   UNL     1      -4.222   2.648   2.573  0.00  0.00    +0.052 C 
ATOM      9  C   UNL     1      -5.021   1.338   2.490  0.00  0.00    +0.076 C 
ATOM     10  C   UNL     1      -6.412   1.812   1.987  0.00  0.00    -0.003 C 
ATOM     11  C   UNL     1      -6.025   2.971   1.037  0.00  0.00    -0.066 C 
ATOM     12  C   UNL     1      -5.445   4.731   2.516  0.00  0.00    -0.077 C 
ATOM     13  C   UNL     1      -6.601   5.274   1.641  0.00  0.00    -0.020 C 
ATOM     14  C   UNL     1      -7.172   3.993   0.992  0.00  0.00    -0.017 C 
ATOM     15  C   UNL     1      -4.152   3.141   3.995  0.00  0.00    +0.212 C 
ATOM     16  O   UNL     1      -5.090   3.445   4.702  0.00  0.00    -0.277 OA
ATOM     17  N   UNL     1      -2.849   3.178   4.331  0.00  0.00    -0.286 N 
ATOM     18  C   UNL     1       0.213   3.012   4.399  0.00  0.00    +0.045 C 
ATOM     19  H   UNL     1      -2.522   3.461   5.199  0.00  0.00    +0.155 HD
ATOM     20  N   UNL     1      -4.905   3.627   1.702  0.00  0.00    +0.394 N 
ATOM     21  H   UNL     1      -4.245   3.994   1.007  0.00  0.00    -0.079 HD
ENDROOT
BRANCH   9  22
ATOM     22  C   UNL     1      -4.391   0.390   1.503  0.00  0.00    +0.220 C 
ATOM     23  O   UNL     1      -4.671   0.467   0.325  0.00  0.00    -0.275 OA
ATOM     24  N   UNL     1      -3.517  -0.543   1.929  0.00  0.00    -0.282 N 
ATOM     25  H   UNL     1      -3.342  -0.647   2.877  0.00  0.00    +0.155 HD
BRANCH  24  26
ATOM     26  C   UNL     1      -2.862  -1.364   1.001  0.00  0.00    +0.079 A 
ATOM     27  C   UNL     1      -3.460  -1.651  -0.217  0.00  0.00    +0.072 A 
ATOM     28  C   UNL     1      -2.809  -2.463  -1.133  0.00  0.00    +0.122 A 
ATOM     29  C   UNL     1      -1.560  -2.988  -0.831  0.00  0.00    +0.049 A 
ATOM     30  C   UNL     1      -0.962  -2.703   0.382  0.00  0.00    +0.051 A 
ATOM     31  C   UNL     1      -1.606  -1.888   1.299  0.00  0.00    +0.141 A 
BRANCH  31  32
ATOM     32  O   UNL     1      -1.014  -1.604   2.490  0.00  0.00    -0.493 OA
ATOM     33  C   UNL     1       0.274  -2.175   2.728  0.00  0.00    +0.277 C 
ENDBRANCH  31  32
BRANCH  28  34
ATOM     34  O   UNL     1      -3.394  -2.745  -2.327  0.00  0.00    -0.495 OA
ATOM     35  C   UNL     1      -2.667  -3.588  -3.223  0.00  0.00    +0.277 C 
ENDBRANCH  28  34
ENDBRANCH  24  26
ENDBRANCH   9  22
TORSDOF 4
