REMARK  Name = ZINC29802408
REMARK  12 active torsions:
REMARK  status: ('A' for Active; 'I' for Inactive)
REMARK    1  A    between atoms: C_1  and  C_2
REMARK    2  A    between atoms: C_2  and  C_3
REMARK    3  A    between atoms: C_3  and  C_4
REMARK    4  A    between atoms: C_4  and  C_6
REMARK    5  A    between atoms: C_4  and  N_7
REMARK    6  A    between atoms: C_8  and  C_10
REMARK    7  A    between atoms: C_10  and  C_12
REMARK    8  A    between atoms: C_10  and  N_13
REMARK    9  A    between atoms: N_13  and  C_14
REMARK   10  A    between atoms: C_17  and  N_20
REMARK   11  A    between atoms: N_23  and  C_24
REMARK   12  A    between atoms: C_24  and  C_25
REMARK                            x       y       z     vdW  Elec       q    Type
REMARK                         _______ _______ _______ _____ _____    ______ ____
ROOT
ATOM      1  C   UNL     1      -1.096   6.161   0.317  0.00  0.00    +0.028 A 
ATOM      2  C   UNL     1      -2.313   5.492   0.327  0.00  0.00    +0.025 A 
ATOM      3  C   UNL     1      -2.345   4.115   0.228  0.00  0.00    +0.025 A 
ATOM      4  C   UNL     1      -1.160   3.400   0.119  0.00  0.00    +0.035 A 
ATOM      5  C   UNL     1       0.057   4.068   0.115  0.00  0.00    +0.025 A 
ATOM      6  C   UNL     1       0.089   5.445   0.208  0.00  0.00    +0.025 A 
ENDROOT
BRANCH   4   7
ATOM      7  N   UNL     1      -1.192   2.002   0.019  0.00  0.00    -0.269 N 
ATOM      8  C   UNL     1      -0.262   1.357  -0.713  0.00  0.00    +0.304 C 
ATOM      9  O   UNL     1       0.544   1.990  -1.366  0.00  0.00    -0.253 OA
ATOM     10  N   UNL     1      -0.229   0.009  -0.725  0.00  0.00    -0.296 N 
ATOM     11  H   UNL     1      -1.977   1.431   0.537  0.00  0.00    +0.156 HD
ATOM     12  H   UNL     1      -0.959  -0.564  -0.134  0.00  0.00    +0.151 HD
BRANCH  10  13
ATOM     13  C   UNL     1       0.778  -0.692  -1.525  0.00  0.00    +0.132 C 
BRANCH  13  14
ATOM     14  C   UNL     1       0.599  -2.180  -1.366  0.00  0.00    -0.016 C 
ATOM     15  C   UNL     1       0.442  -2.937  -2.423  0.00  0.00    +0.005 C 
ENDBRANCH  13  14
ENDBRANCH  10  13
ENDBRANCH   4   7
BRANCH   1  16
ATOM     16  N   UNL     1      -1.064   7.556   0.416  0.00  0.00    -0.333 N 
ATOM     17  H   UNL     1      -2.002   8.123   0.503  0.00  0.00    +0.147 HD
BRANCH  16  18
ATOM     18  C   UNL     1       0.220   8.262   0.406  0.00  0.00    +0.154 C 
ATOM     19  C   UNL     1       0.658   8.502  -1.040  0.00  0.00    +0.038 C 
BRANCH  18  21
ATOM     20  N   UNL     1       1.131  10.411   1.225  0.00  0.00    -0.311 N 
ATOM     21  C   UNL     1       0.072   9.585   1.112  0.00  0.00    +0.233 C 
ATOM     22  O   UNL     1      -1.001   9.907   1.578  0.00  0.00    -0.274 OA
ATOM     23  H   UNL     1       2.104  10.119   0.803  0.00  0.00    +0.149 HD
BRANCH  20  24
ATOM     24  C   UNL     1       0.987  11.697   1.911  0.00  0.00    +0.070 C 
ATOM     25  C   UNL     1       1.169  11.495   3.417  0.00  0.00    +0.028 C 
BRANCH  24  26
ATOM     26  C   UNL     1       2.047  12.672   1.395  0.00  0.00    +0.022 C 
BRANCH  26  28
ATOM     27  C   UNL     1       2.850  13.945  -0.599  0.00  0.00    +0.004 C 
ATOM     28  C   UNL     1       1.790  12.970  -0.083  0.00  0.00    -0.002 C 
ENDBRANCH  26  28
ENDBRANCH  24  26
ENDBRANCH  20  24
ENDBRANCH  18  21
ENDBRANCH  16  18
ENDBRANCH   1  16
TORSDOF 9
