REMARK  Name = ZINC01183331
REMARK  7 active torsions:
REMARK  status: ('A' for Active; 'I' for Inactive)
REMARK    1  A    between atoms: C_3  and  S_22
REMARK    2  A    between atoms: C_6  and  C_7
REMARK    3  A    between atoms: C_7  and  C_8
REMARK    4  A    between atoms: C_8  and  N_9
REMARK    5  A    between atoms: C_10  and  C_12
REMARK    6  A    between atoms: C_16  and  N_18
REMARK    7  A    between atoms: S_22  and  N_25
REMARK                            x       y       z     vdW  Elec       q    Type
REMARK                         _______ _______ _______ _____ _____    ______ ____
ROOT
ATOM      1  C   UNL     1      -2.364   2.662   6.162  0.00  0.00    +0.109 C 
ENDROOT
BRANCH   1   2
ATOM      2  N   UNL     1      -3.121   3.064   7.350  0.00  0.00    -0.311 N 
ATOM      3  C   UNL     1      -2.634   2.804   8.580  0.00  0.00    +0.244 C 
ATOM      4  O   UNL     1      -1.566   2.235   8.703  0.00  0.00    -0.270 OA
ATOM      5  H   UNL     1      -3.972   3.518   7.252  0.00  0.00    +0.149 HD
BRANCH   3   6
ATOM      6  C   UNL     1      -3.397   3.210   9.778  0.00  0.00    +0.039 A 
ATOM      7  C   UNL     1      -4.621   3.868   9.640  0.00  0.00    +0.014 A 
ATOM      8  C   UNL     1      -5.331   4.240  10.762  0.00  0.00    +0.023 A 
ATOM      9  C   UNL     1      -4.828   3.971  12.024  0.00  0.00    +0.071 A 
ATOM     10  C   UNL     1      -3.612   3.323  12.168  0.00  0.00    +0.145 A 
ATOM     11  C   UNL     1      -2.896   2.942  11.053  0.00  0.00    +0.047 A 
ATOM     12 CL   UNL     1      -5.725   4.449  13.432  0.00  0.00    -0.081 Cl
BRANCH  10  13
ATOM     13  N   UNL     1      -3.082   3.039  13.520  0.00  0.00    +0.058 N 
ATOM     14  O   UNL     1      -2.013   2.469  13.648  0.00  0.00    -0.126 OA
ATOM     15  O   UNL     1      -3.714   3.376  14.505  0.00  0.00    -0.126 OA
ENDBRANCH  10  13
ENDBRANCH   3   6
ENDBRANCH   1   2
BRANCH   1  16
ATOM     16  C   UNL     1      -3.132   3.072   4.905  0.00  0.00    +0.054 C 
BRANCH  16  22
ATOM     17  C   UNL     1      -2.559   1.412   3.121  0.00  0.00    +0.005 A 
ATOM     18  C   UNL     1      -1.846   1.033   2.000  0.00  0.00    +0.029 A 
ATOM     19  C   UNL     1      -0.927   1.900   1.439  0.00  0.00    +0.105 A 
ATOM     20  C   UNL     1      -0.717   3.145   2.004  0.00  0.00    +0.029 A 
ATOM     21  C   UNL     1      -1.434   3.526   3.123  0.00  0.00    +0.005 A 
ATOM     22  C   UNL     1      -2.354   2.659   3.683  0.00  0.00    -0.046 A 
BRANCH  19  23
ATOM     23  S   UNL     1      -0.017   1.417   0.010  0.00  0.00    +0.056 S 
ATOM     24  O   UNL     1       0.002  -0.004   0.002  0.00  0.00    -0.153 OA
ATOM     25  O   UNL     1       1.172   2.195   0.003  0.00  0.00    -0.153 OA
BRANCH  23  26
ATOM     26  N   UNL     1      -0.897   1.885  -1.312  0.00  0.00    -0.204 NA
ATOM     27  H   UNL     1      -1.201   1.223  -1.952  0.00  0.00    +0.144 HD
ATOM     28  H   UNL     1      -1.110   2.822  -1.446  0.00  0.00    +0.144 HD
ENDBRANCH  23  26
ENDBRANCH  19  23
ENDBRANCH  16  22
ENDBRANCH   1  16
TORSDOF 7
