REMARK  Name = ZINC27385673
REMARK  7 active torsions:
REMARK  status: ('A' for Active; 'I' for Inactive)
REMARK    1  A    between atoms: C_1  and  C_2
REMARK    2  A    between atoms: C_6  and  N_8
REMARK    3  A    between atoms: N_11  and  C_14
REMARK    4  A    between atoms: C_14  and  C_16
REMARK    5  A    between atoms: C_14  and  C_17
REMARK    6  A    between atoms: N_19  and  C_20
REMARK    7  A    between atoms: C_25  and  C_26
REMARK                            x       y       z     vdW  Elec       q    Type
REMARK                         _______ _______ _______ _____ _____    ______ ____
ROOT
ATOM      1  C   UNL     1      -5.620  -1.513   1.107  0.00  0.00    +0.017 C 
ATOM      2  C   UNL     1      -6.490  -1.011   2.262  0.00  0.00    -0.004 C 
ENDROOT
BRANCH   1   6
ATOM      3  N   UNL     1      -2.457   1.061   0.005  0.00  0.00    -0.333 N 
ATOM      4  C   UNL     1      -3.264   1.425   1.179  0.00  0.00    +0.086 C 
ATOM      5  C   UNL     1      -4.602   0.685   1.123  0.00  0.00    -0.059 C 
ATOM      6  N   UNL     1      -4.357  -0.764   1.085  0.00  0.00    +0.389 N 
ATOM      7  C   UNL     1      -3.550  -1.127  -0.088  0.00  0.00    -0.059 C 
ATOM      8  C   UNL     1      -2.212  -0.387  -0.033  0.00  0.00    +0.086 C 
ATOM      9  H   UNL     1      -3.788  -1.036   1.986  0.00  0.00    -0.081 HD
BRANCH   3  15
ATOM     10  C   UNL     1      -0.093   5.370   0.023  0.00  0.00    +0.044 C 
ATOM     11  C   UNL     1      -0.079   3.863  -0.008  0.00  0.00    -0.049 A 
ATOM     12  C   UNL     1       1.124   3.184  -0.064  0.00  0.00    +0.003 A 
ATOM     13  C   UNL     1       1.141   1.802  -0.094  0.00  0.00    +0.002 A 
ATOM     14  C   UNL     1      -0.045   1.095  -0.067  0.00  0.00    +0.023 A 
ATOM     15  C   UNL     1      -1.256   1.774  -0.016  0.00  0.00    +0.030 A 
ATOM     16  C   UNL     1      -1.269   3.162   0.019  0.00  0.00    +0.026 A 
ENDBRANCH   3  15
ENDBRANCH   1   6
BRANCH   1  17
ATOM     17  C   UNL     1      -5.332  -2.980   1.296  0.00  0.00    +0.203 C 
ATOM     18  O   UNL     1      -4.197  -3.352   1.509  0.00  0.00    -0.277 OA
ATOM     19  N   UNL     1      -6.334  -3.878   1.228  0.00  0.00    -0.286 N 
ATOM     20  H   UNL     1      -7.345  -3.553   0.940  0.00  0.00    +0.155 HD
BRANCH  19  21
ATOM     21  C   UNL     1      -6.089  -5.224   1.525  0.00  0.00    +0.045 A 
ATOM     22  C   UNL     1      -5.029  -5.572   2.352  0.00  0.00    +0.025 A 
ATOM     23  C   UNL     1      -4.790  -6.900   2.643  0.00  0.00    +0.022 A 
ATOM     24  C   UNL     1      -5.605  -7.885   2.112  0.00  0.00    +0.042 A 
ATOM     25  C   UNL     1      -6.661  -7.540   1.287  0.00  0.00    +0.034 A 
ATOM     26  C   UNL     1      -6.909  -6.213   0.997  0.00  0.00    +0.077 A 
ATOM     27 CL   UNL     1      -5.301  -9.554   2.480  0.00  0.00    -0.084 Cl
BRANCH  26  28
ATOM     28  C   UNL     1      -8.063  -5.838   0.104  0.00  0.00    +0.419 C 
ATOM     29  F   UNL     1      -8.736  -6.996  -0.299  0.00  0.00    -0.166 F 
ATOM     30  F   UNL     1      -8.944  -5.007   0.804  0.00  0.00    -0.166 F 
ATOM     31  F   UNL     1      -7.581  -5.162  -1.022  0.00  0.00    -0.166 F 
ENDBRANCH  26  28
ENDBRANCH  19  21
ENDBRANCH   1  17
TORSDOF 5
