REMARK  Name = ZINC34759748
REMARK  11 active torsions:
REMARK  status: ('A' for Active; 'I' for Inactive)
REMARK    1  A    between atoms: C_1  and  C_2
REMARK    2  A    between atoms: C_2  and  N_3
REMARK    3  A    between atoms: N_3  and  C_4
REMARK    4  A    between atoms: C_4  and  C_5
REMARK    5  A    between atoms: C_6  and  C_8
REMARK    6  A    between atoms: C_8  and  S_9
REMARK    7  A    between atoms: S_9  and  C_10
REMARK    8  A    between atoms: C_14  and  C_20
REMARK    9  A    between atoms: C_15  and  C_19
REMARK   10  A    between atoms: N_24  and  C_27
REMARK   11  A    between atoms: C_27  and  C_28
REMARK                            x       y       z     vdW  Elec       q    Type
REMARK                         _______ _______ _______ _____ _____    ______ ____
ROOT
ATOM      1  C   UNL     1      -3.877  -0.943  -3.774  0.00  0.00    +0.191 A 
ATOM      2  N   UNL     1      -4.662  -1.186  -4.818  0.00  0.00    -0.206 NA
ATOM      3  C   UNL     1      -5.971  -1.012  -4.769  0.00  0.00    +0.134 A 
ATOM      4  C   UNL     1      -6.567  -0.549  -3.563  0.00  0.00    +0.051 A 
ATOM      5  C   UNL     1      -7.964  -0.283  -3.261  0.00  0.00    -0.028 A 
ATOM      6  C   UNL     1      -8.298   0.154  -2.038  0.00  0.00    -0.008 A 
ATOM      7  S   UNL     1      -6.735   0.242  -1.186  0.00  0.00    -0.073 S 
ATOM      8  C   UNL     1      -5.675  -0.311  -2.496  0.00  0.00    +0.115 A 
ATOM      9  N   UNL     1      -4.378  -0.514  -2.623  0.00  0.00    -0.214 NA
ATOM     10  C   UNL     1      -9.669   0.491  -1.511  0.00  0.00    +0.052 C 
ATOM     11  C   UNL     1      -9.024  -0.494  -4.311  0.00  0.00    +0.045 C 
ATOM     12  N   UNL     1      -6.753  -1.276  -5.878  0.00  0.00    -0.318 N 
ATOM     13  C   UNL     1      -6.910  -0.280  -6.949  0.00  0.00    +0.088 C 
ATOM     14  C   UNL     1      -6.621  -0.960  -8.291  0.00  0.00    -0.059 C 
ATOM     15  N   UNL     1      -7.479  -2.142  -8.434  0.00  0.00    +0.387 N 
ATOM     16  C   UNL     1      -7.138  -3.135  -7.407  0.00  0.00    -0.059 C 
ATOM     17  C   UNL     1      -7.448  -2.565  -6.024  0.00  0.00    +0.088 C 
ATOM     18  H   UNL     1      -8.445  -1.870  -8.330  0.00  0.00    -0.081 HD
ENDROOT
BRANCH   1  19
ATOM     19  S   UNL     1      -2.140  -1.200  -3.920  0.00  0.00    -0.077 S 
BRANCH  19  20
ATOM     20  C   UNL     1      -1.493  -0.756  -2.284  0.00  0.00    +0.173 C 
BRANCH  20  22
ATOM     21  N   UNL     1       0.705  -0.662  -1.153  0.00  0.00    -0.301 N 
ATOM     22  C   UNL     1       0.004  -0.934  -2.271  0.00  0.00    +0.226 C 
ATOM     23  O   UNL     1       0.577  -1.321  -3.267  0.00  0.00    -0.275 OA
BRANCH  21  25
ATOM     24  C   UNL     1      -0.063   1.334   0.034  0.00  0.00    +0.024 C 
ATOM     25  C   UNL     1       0.012  -0.194   0.051  0.00  0.00    +0.104 C 
ENDBRANCH  21  25
BRANCH  21  26
ATOM     26  C   UNL     1       2.159  -0.834  -1.140  0.00  0.00    +0.104 C 
ATOM     27  C   UNL     1       2.500  -2.260  -0.700  0.00  0.00    +0.024 C 
ENDBRANCH  21  26
ENDBRANCH  20  22
ENDBRANCH  19  20
ENDBRANCH   1  19
BRANCH  15  28
ATOM     28  C   UNL     1      -7.281  -2.730  -9.766  0.00  0.00    +0.018 C 
BRANCH  28  29
ATOM     29  C   UNL     1      -8.249  -3.869  -9.961  0.00  0.00    +0.194 C 
ATOM     30  O   UNL     1      -9.026  -4.163  -9.078  0.00  0.00    -0.278 OA
ATOM     31  N   UNL     1      -8.250  -4.562 -11.117  0.00  0.00    -0.331 N 
ATOM     32  H   UNL     1      -7.628  -4.328 -11.823  0.00  0.00    +0.145 HD
ATOM     33  H   UNL     1      -8.872  -5.295 -11.242  0.00  0.00    +0.145 HD
ENDBRANCH  28  29
ENDBRANCH  15  28
TORSDOF 7
