REMARK  Name = ZINC39440636
REMARK  7 active torsions:
REMARK  status: ('A' for Active; 'I' for Inactive)
REMARK    1  A    between atoms: C_10  and  C_11
REMARK    2  A    between atoms: C_11  and  C_12
REMARK    3  A    between atoms: C_15  and  S_24
REMARK    4  A    between atoms: N_17  and  C_18
REMARK    5  A    between atoms: S_24  and  C_25
REMARK    6  A    between atoms: C_25  and  C_26
REMARK    7  A    between atoms: C_26  and  C_28
REMARK                            x       y       z     vdW  Elec       q    Type
REMARK                         _______ _______ _______ _____ _____    ______ ____
ROOT
ATOM      1  C   UNL     1       5.341   0.519   1.367  0.00  0.00    +0.122 C 
ATOM      2  N   UNL     1       4.654   0.193   2.400  0.00  0.00    -0.174 NA
ATOM      3  N   UNL     1       5.245   0.658   3.581  0.00  0.00    -0.238 N 
ATOM      4  C   UNL     1       6.471   1.366   3.173  0.00  0.00    +0.237 C 
ATOM      5  N   UNL     1       6.480   1.233   1.706  0.00  0.00    -0.286 N 
ATOM      6  H   UNL     1       4.914   0.538   4.485  0.00  0.00    +0.171 HD
ENDROOT
BRANCH   5   7
ATOM      7  C   UNL     1       7.493   1.756   0.785  0.00  0.00    +0.077 C 
ATOM      8  C   UNL     1       8.118   0.599   0.004  0.00  0.00    +0.022 C 
ATOM      9  C   UNL     1       9.176   1.145  -0.957  0.00  0.00    +0.002 C 
ATOM     10  C   UNL     1       8.520   2.124  -1.934  0.00  0.00    +0.000 C 
ATOM     11  C   UNL     1       7.894   3.281  -1.153  0.00  0.00    +0.002 C 
ATOM     12  C   UNL     1       6.837   2.735  -0.192  0.00  0.00    +0.022 C 
ENDBRANCH   5   7
BRANCH   1  13
ATOM     13  C   UNL     1       4.960   0.161  -0.046  0.00  0.00    +0.109 C 
BRANCH  13  23
ATOM     14  C   UNL     1      -0.016   1.357   0.009  0.00  0.00    +0.001 A 
ATOM     15  C   UNL     1       1.169   2.091   0.002  0.00  0.00    +0.001 A 
ATOM     16  C   UNL     1       2.378   1.468  -0.013  0.00  0.00    +0.009 A 
ATOM     17  C   UNL     1       2.438   0.064  -0.021  0.00  0.00    -0.014 A 
ATOM     18  C   UNL     1       1.233  -0.683  -0.013  0.00  0.00    -0.018 A 
ATOM     19  C   UNL     1       0.002  -0.004   0.002  0.00  0.00    +0.008 A 
ATOM     20  C   UNL     1       1.292  -2.087  -0.021  0.00  0.00    +0.008 A 
ATOM     21  C   UNL     1       2.502  -2.709  -0.036  0.00  0.00    +0.001 A 
ATOM     22  C   UNL     1       3.687  -1.976  -0.043  0.00  0.00    +0.004 A 
ATOM     23  C   UNL     1       3.668  -0.615  -0.037  0.00  0.00    -0.033 A 
ENDBRANCH  13  23
ENDBRANCH   1  13
BRANCH   4  24
ATOM     24  S   UNL     1       7.935   0.572   3.892  0.00  0.00    -0.110 S 
BRANCH  24  25
ATOM     25  C   UNL     1       7.862  -1.130   3.268  0.00  0.00    +0.153 C 
BRANCH  25  26
ATOM     26  C   UNL     1       9.037  -1.910   3.797  0.00  0.00    +0.187 C 
ATOM     27  O   UNL     1       9.845  -1.371   4.524  0.00  0.00    -0.290 OA
BRANCH  26  28
ATOM     28  C   UNL     1       9.204  -3.318   3.434  0.00  0.00    +0.088 C 
ATOM     29  N   UNL     1       8.427  -4.026   2.663  0.00  0.00    -0.256 NA
ATOM     30  C   UNL     1       8.832  -5.289   2.512  0.00  0.00    +0.107 C 
ATOM     31  C   UNL     1       9.955  -5.553   3.190  0.00  0.00    -0.001 C 
ATOM     32  C   UNL     1      10.320  -4.247   3.873  0.00  0.00    +0.087 C 
ENDBRANCH  26  28
ENDBRANCH  25  26
ENDBRANCH  24  25
ENDBRANCH   4  24
TORSDOF 7
