REMARK  Name = ZINC02406356
REMARK  4 active torsions:
REMARK  status: ('A' for Active; 'I' for Inactive)
REMARK    1  A    between atoms: C_4  and  C_7
REMARK    2  A    between atoms: C_11  and  C_12
REMARK    3  A    between atoms: N_14  and  C_15
REMARK    4  A    between atoms: C_22  and  C_28
REMARK                            x       y       z     vdW  Elec       q    Type
REMARK                         _______ _______ _______ _____ _____    ______ ____
ROOT
ATOM      1  C   UNL     1       2.840   3.278   0.230  0.00  0.00    +0.018 A 
ATOM      2  C   UNL     1       1.685   3.898   0.656  0.00  0.00    +0.004 A 
ATOM      3  C   UNL     1       0.651   3.066   0.272  0.00  0.00    +0.123 A 
ATOM      4  N   UNL     1       1.089   1.911  -0.242  0.00  0.00    -0.295 N 
ATOM      5  C   UNL     1       2.462   2.050  -0.361  0.00  0.00    +0.118 A 
ATOM      6  C   UNL     1      -0.044   1.128  -0.369  0.00  0.00    +0.119 A 
ATOM      7  C   UNL     1      -1.132   1.847   0.017  0.00  0.00    +0.067 A 
ATOM      8  N   UNL     1      -0.709   3.112   0.357  0.00  0.00    -0.325 N 
ATOM      9  C   UNL     1      -1.432   4.374   0.603  0.00  0.00    +0.124 C 
ATOM     10  C   UNL     1      -0.688   5.448  -0.203  0.00  0.00    +0.022 C 
ATOM     11  C   UNL     1       0.534   6.086   0.473  0.00  0.00    +0.006 C 
ATOM     12  C   UNL     1       1.331   5.167   1.385  0.00  0.00    +0.039 C 
ENDROOT
BRANCH   7  13
ATOM     13  C   UNL     1      -2.527   1.355   0.066  0.00  0.00    +0.000 A 
ATOM     14  C   UNL     1      -3.497   2.070   0.770  0.00  0.00    +0.013 A 
ATOM     15  C   UNL     1      -4.796   1.609   0.809  0.00  0.00    +0.039 A 
ATOM     16  C   UNL     1      -5.137   0.434   0.160  0.00  0.00    +0.123 A 
ATOM     17  C   UNL     1      -4.177  -0.282  -0.537  0.00  0.00    +0.039 A 
ATOM     18  C   UNL     1      -2.876   0.172  -0.586  0.00  0.00    +0.013 A 
ATOM     19  F   UNL     1      -6.410  -0.016   0.206  0.00  0.00    -0.205 F 
ENDBRANCH   7  13
BRANCH   1  23
ATOM     20  C   UNL     1       6.798   4.775   0.620  0.00  0.00    +0.000 A 
ATOM     21  C   UNL     1       6.428   3.625   1.293  0.00  0.00    +0.001 A 
ATOM     22  C   UNL     1       5.144   3.134   1.170  0.00  0.00    +0.008 A 
ATOM     23  C   UNL     1       4.220   3.800   0.366  0.00  0.00    -0.015 A 
ATOM     24  C   UNL     1       4.601   4.956  -0.314  0.00  0.00    +0.008 A 
ATOM     25  C   UNL     1       5.886   5.441  -0.179  0.00  0.00    +0.001 A 
ENDBRANCH   1  23
BRANCH   5  26
ATOM     26  C   UNL     1       3.337   1.123  -0.968  0.00  0.00    +0.262 C 
ATOM     27  O   UNL     1       4.532   1.353  -1.014  0.00  0.00    -0.269 OA
ATOM     28  N   UNL     1       2.849  -0.016  -1.497  0.00  0.00    -0.307 N 
ATOM     29  H   UNL     1       1.769  -0.224  -1.456  0.00  0.00    +0.149 HD
BRANCH  28  30
ATOM     30  C   UNL     1       3.756  -0.978  -2.128  0.00  0.00    +0.073 C 
ATOM     31  C   UNL     1       3.993  -0.576  -3.585  0.00  0.00    +0.022 C 
ATOM     32  C   UNL     1       4.941  -1.581  -4.243  0.00  0.00    +0.002 C 
ATOM     33  C   UNL     1       4.318  -2.977  -4.195  0.00  0.00    +0.000 C 
ATOM     34  C   UNL     1       4.080  -3.379  -2.738  0.00  0.00    +0.002 C 
ATOM     35  C   UNL     1       3.133  -2.375  -2.079  0.00  0.00    +0.022 C 
ENDBRANCH  28  30
ENDBRANCH   5  26
TORSDOF 4
