REMARK  Name = ZINC63557747
REMARK  11 active torsions:
REMARK  status: ('A' for Active; 'I' for Inactive)
REMARK    1  A    between atoms: C_1  and  C_2
REMARK    2  A    between atoms: C_2  and  C_3
REMARK    3  A    between atoms: C_2  and  C_4
REMARK    4  A    between atoms: C_2  and  C_5
REMARK    5  A    between atoms: C_9  and  N_12
REMARK    6  A    between atoms: C_13  and  C_15
REMARK    7  A    between atoms: N_20  and  C_22
REMARK    8  A    between atoms: C_22  and  C_23
REMARK    9  A    between atoms: C_23  and  C_24
REMARK   10  A    between atoms: C_27  and  O_33
REMARK   11  A    between atoms: O_33  and  C_34
REMARK                            x       y       z     vdW  Elec       q    Type
REMARK                         _______ _______ _______ _____ _____    ______ ____
ROOT
ATOM      1  C   UNL     1       3.998  -4.309  -4.913  0.00  0.00    +0.101 C 
ATOM      2  C   UNL     1       3.433  -5.731  -4.694  0.00  0.00    +0.110 C 
ATOM      3  C   UNL     1       4.329  -6.619  -5.529  0.00  0.00    +0.216 C 
ATOM      4  O   UNL     1       4.068  -7.757  -5.858  0.00  0.00    -0.276 OA
ATOM      5  N   UNL     1       5.457  -5.963  -5.854  0.00  0.00    -0.300 N 
ATOM      6  C   UNL     1       5.466  -4.607  -5.292  0.00  0.00    +0.121 C 
ENDROOT
BRANCH   1   8
ATOM      7  N   UNL     1       2.724  -3.187  -3.114  0.00  0.00    -0.290 N 
ATOM      8  C   UNL     1       3.923  -3.497  -3.645  0.00  0.00    +0.220 C 
ATOM      9  O   UNL     1       4.941  -3.124  -3.103  0.00  0.00    -0.275 OA
ATOM     10  H   UNL     1       1.909  -3.486  -3.548  0.00  0.00    +0.151 HD
BRANCH   7  14
ATOM     11  C   UNL     1       0.718  -0.497  -1.257  0.00  0.00    +0.135 C 
ATOM     12  N   UNL     1       2.158  -0.089  -1.262  0.00  0.00    -0.241 NA
ATOM     13  N   UNL     1       2.920  -0.959  -2.151  0.00  0.00    -0.227 NA
ATOM     14  C   UNL     1       2.650  -2.399  -1.882  0.00  0.00    +0.216 C 
ATOM     15  S   UNL     1       0.923  -2.332  -1.240  0.00  0.00    -0.101 S 
ATOM     16  H   UNL     1       2.259   0.878  -1.528  0.00  0.00    +0.142 HD
ATOM     17  H   UNL     1       2.741  -0.732  -3.118  0.00  0.00    +0.143 HD
BRANCH  11  19
ATOM     18  C   UNL     1      -0.019   1.526   0.010  0.00  0.00    +0.013 C 
ATOM     19  C   UNL     1       0.002  -0.004   0.002  0.00  0.00    -0.012 C 
ATOM     20  C   UNL     1       0.742  -0.511   1.242  0.00  0.00    +0.013 C 
ATOM     21  C   UNL     1      -1.433  -0.534   0.013  0.00  0.00    +0.013 C 
ENDBRANCH  11  19
ENDBRANCH   7  14
ENDBRANCH   1   8
BRANCH   5  22
ATOM     22  C   UNL     1       6.538  -6.529  -6.665  0.00  0.00    +0.112 C 
BRANCH  22  23
ATOM     23  C   UNL     1       6.280  -6.225  -8.142  0.00  0.00    +0.052 C 
BRANCH  23  24
ATOM     24  C   UNL     1       7.392  -6.807  -8.976  0.00  0.00    -0.040 C 
ATOM     25  C   UNL     1       7.397  -8.006  -9.601  0.00  0.00    +0.002 A 
ATOM     26  C   UNL     1       6.409  -9.087  -9.689  0.00  0.00    +0.055 A 
ATOM     27  C   UNL     1       6.700 -10.200 -10.405  0.00  0.00    +0.121 A 
ATOM     28  C   UNL     1       7.925 -10.362 -11.076  0.00  0.00    +0.047 A 
ATOM     29  C   UNL     1       8.896  -9.424 -11.053  0.00  0.00    +0.029 A 
ATOM     30  C   UNL     1       8.687  -8.179 -10.308  0.00  0.00    +0.043 A 
ATOM     31  N   UNL     1       9.449  -7.129 -10.127  0.00  0.00    -0.380 N 
ATOM     32  C   UNL     1       8.725  -6.166  -9.289  0.00  0.00    +0.144 C 
ATOM     33  H   UNL     1      10.340  -7.006 -10.489  0.00  0.00    +0.160 HD
BRANCH  27  34
ATOM     34  O   UNL     1       5.775 -11.194 -10.478  0.00  0.00    -0.495 OA
ATOM     35  C   UNL     1       6.123 -12.349 -11.243  0.00  0.00    +0.277 C 
ENDBRANCH  27  34
ENDBRANCH  23  24
ENDBRANCH  22  23
ENDBRANCH   5  22
TORSDOF 7
