REMARK  Name = ZINC63855260
REMARK  5 active torsions:
REMARK  status: ('A' for Active; 'I' for Inactive)
REMARK    1  A    between atoms: N_12  and  C_16
REMARK    2  A    between atoms: C_16  and  C_17
REMARK    3  A    between atoms: N_19  and  C_20
REMARK    4  A    between atoms: C_20  and  C_21
REMARK    5  A    between atoms: C_21  and  C_22
REMARK                            x       y       z     vdW  Elec       q    Type
REMARK                         _______ _______ _______ _____ _____    ______ ____
ROOT
ATOM      1  C   UNL     1       6.538  -0.625   2.123  0.00  0.00    +0.213 C 
ENDROOT
BRANCH   1  13
ATOM      2  C   UNL     1      -0.017   1.377   0.010  0.00  0.00    +0.000 A 
ATOM      3  C   UNL     1       1.173   2.082   0.002  0.00  0.00    +0.000 A 
ATOM      4  C   UNL     1       2.376   1.405  -0.014  0.00  0.00    +0.006 A 
ATOM      5  C   UNL     1       2.398   0.019  -0.021  0.00  0.00    -0.012 A 
ATOM      6  C   UNL     1       1.207  -0.686  -0.012  0.00  0.00    -0.042 A 
ATOM      7  C   UNL     1       0.002  -0.004   0.002  0.00  0.00    +0.004 A 
ATOM      8  C   UNL     1       1.492  -2.174  -0.016  0.00  0.00    +0.038 C 
ATOM      9  C   UNL     1       2.966  -2.303  -0.460  0.00  0.00    +0.045 C 
ATOM     10  C   UNL     1       3.550  -0.948  -0.040  0.00  0.00    +0.138 C 
ATOM     11  C   UNL     1       4.224  -1.037   1.304  0.00  0.00    +0.251 C 
ATOM     12  O   UNL     1       3.721  -1.359   2.359  0.00  0.00    -0.272 OA
ATOM     13  N   UNL     1       5.508  -0.681   1.083  0.00  0.00    -0.215 N 
ATOM     14  C   UNL     1       5.722  -0.386  -0.206  0.00  0.00    +0.310 C 
ATOM     15  O   UNL     1       6.799  -0.038  -0.651  0.00  0.00    -0.252 OA
ATOM     16  N   UNL     1       4.608  -0.517  -0.955  0.00  0.00    -0.281 N 
ATOM     17  H   UNL     1       4.525  -0.357  -1.908  0.00  0.00    +0.152 HD
ENDBRANCH   1  13
BRANCH   1  18
ATOM     18  C   UNL     1       7.224  -1.963   2.223  0.00  0.00    +0.231 C 
ATOM     19  O   UNL     1       6.885  -2.874   1.498  0.00  0.00    -0.274 OA
ATOM     20  N   UNL     1       8.213  -2.148   3.119  0.00  0.00    -0.314 N 
ATOM     21  H   UNL     1       8.485  -1.419   3.700  0.00  0.00    +0.149 HD
BRANCH  20  22
ATOM     22  C   UNL     1       8.880  -3.449   3.217  0.00  0.00    +0.108 C 
BRANCH  22  23
ATOM     23  C   UNL     1       9.956  -3.391   4.303  0.00  0.00    +0.052 C 
BRANCH  23  24
ATOM     24  C   UNL     1      10.641  -4.729   4.404  0.00  0.00    -0.040 C 
ATOM     25  C   UNL     1      11.792  -5.101   3.798  0.00  0.00    -0.001 A 
ATOM     26  C   UNL     1      12.714  -4.398   2.897  0.00  0.00    +0.010 A 
ATOM     27  C   UNL     1      13.809  -5.048   2.442  0.00  0.00    +0.001 A 
ATOM     28  C   UNL     1      14.085  -6.372   2.808  0.00  0.00    +0.002 A 
ATOM     29  C   UNL     1      13.286  -7.084   3.630  0.00  0.00    +0.026 A 
ATOM     30  C   UNL     1      12.106  -6.499   4.169  0.00  0.00    +0.043 A 
ATOM     31  N   UNL     1      11.186  -6.973   4.973  0.00  0.00    -0.380 N 
ATOM     32  C   UNL     1      10.185  -5.926   5.208  0.00  0.00    +0.144 C 
ATOM     33  H   UNL     1      11.171  -7.866   5.352  0.00  0.00    +0.160 HD
ENDBRANCH  23  24
ENDBRANCH  22  23
ENDBRANCH  20  22
ENDBRANCH   1  18
TORSDOF 5
