REMARK  Name = ZINC37376362
REMARK  6 active torsions:
REMARK  status: ('A' for Active; 'I' for Inactive)
REMARK    1  A    between atoms: C_1  and  C_2
REMARK    2  A    between atoms: C_2  and  C_3
REMARK    3  A    between atoms: C_2  and  N_4
REMARK    4  A    between atoms: C_12  and  C_28
REMARK    5  A    between atoms: C_14  and  N_27
REMARK    6  A    between atoms: N_15  and  C_19
REMARK                            x       y       z     vdW  Elec       q    Type
REMARK                         _______ _______ _______ _____ _____    ______ ____
ROOT
ATOM      1  N   UNL     1      -2.631  -0.202   0.806  0.00  0.00    +0.383 N 
ATOM      2  C   UNL     1      -3.059   0.203  -0.539  0.00  0.00    -0.059 C 
ATOM      3  C   UNL     1      -4.522  -0.199  -0.751  0.00  0.00    +0.089 C 
ATOM      4  N   UNL     1      -4.654  -1.639  -0.479  0.00  0.00    -0.303 N 
ATOM      5  C   UNL     1      -4.103  -2.160   0.781  0.00  0.00    +0.089 C 
ATOM      6  C   UNL     1      -2.659  -1.666   0.920  0.00  0.00    -0.059 C 
ATOM      7  C   UNL     1      -5.279  -2.478  -1.384  0.00  0.00    +0.220 A 
ATOM      8  N   UNL     1      -5.374  -3.769  -1.081  0.00  0.00    -0.214 NA
ATOM      9  C   UNL     1      -5.957  -4.644  -1.891  0.00  0.00    +0.089 A 
ATOM     10  C   UNL     1      -6.491  -4.173  -3.111  0.00  0.00    +0.086 A 
ATOM     11  C   UNL     1      -7.154  -4.740  -4.192  0.00  0.00    +0.131 A 
ATOM     12  N   UNL     1      -7.414  -3.753  -5.072  0.00  0.00    -0.213 N 
ATOM     13  N   UNL     1      -6.927  -2.537  -4.580  0.00  0.00    -0.144 NA
ATOM     14  C   UNL     1      -6.365  -2.734  -3.408  0.00  0.00    +0.189 A 
ATOM     15  N   UNL     1      -5.754  -1.954  -2.495  0.00  0.00    -0.193 NA
ATOM     16  H   UNL     1      -3.254   0.200   1.490  0.00  0.00    -0.081 HD
ENDROOT
BRANCH  12  17
ATOM     17  C   UNL     1      -8.073  -3.920  -6.296  0.00  0.00    +0.105 A 
ATOM     18  C   UNL     1      -8.664  -5.136  -6.608  0.00  0.00    +0.069 A 
ATOM     19  C   UNL     1      -9.315  -5.298  -7.818  0.00  0.00    +0.126 A 
ATOM     20  C   UNL     1      -9.376  -4.247  -8.719  0.00  0.00    +0.041 A 
ATOM     21  C   UNL     1      -8.789  -3.034  -8.411  0.00  0.00    +0.043 A 
ATOM     22  C   UNL     1      -8.142  -2.865  -7.200  0.00  0.00    +0.149 A 
ATOM     23  F   UNL     1      -7.573  -1.677  -6.898  0.00  0.00    -0.203 F 
ATOM     24  F   UNL     1      -9.890  -6.482  -8.123  0.00  0.00    -0.205 F 
ENDBRANCH  12  17
BRANCH   9  25
ATOM     25  C   UNL     1      -6.046  -6.076  -1.525  0.00  0.00    +0.004 A 
ATOM     26  C   UNL     1      -5.763  -7.059  -2.474  0.00  0.00    +0.010 A 
ATOM     27  C   UNL     1      -5.847  -8.392  -2.128  0.00  0.00    +0.003 A 
ATOM     28  C   UNL     1      -6.211  -8.756  -0.844  0.00  0.00    +0.038 A 
ATOM     29  C   UNL     1      -6.493  -7.785   0.103  0.00  0.00    +0.124 A 
ATOM     30  C   UNL     1      -6.407  -6.447  -0.230  0.00  0.00    +0.048 A 
ATOM     31  F   UNL     1      -6.848  -8.147   1.355  0.00  0.00    -0.205 F 
ENDBRANCH   9  25
BRANCH   1  33
ATOM     32  C   UNL     1      -1.233   1.805   0.930  0.00  0.00    -0.014 C 
ATOM     33  C   UNL     1      -1.264   0.280   1.049  0.00  0.00    -0.075 C 
ATOM     34  C   UNL     1      -0.821  -0.132   2.454  0.00  0.00    -0.014 C 
ENDBRANCH   1  33
BRANCH  11  35
ATOM     35  N   UNL     1      -7.486  -6.074  -4.339  0.00  0.00    -0.342 N 
ATOM     36  H   UNL     1      -7.840  -6.571  -3.586  0.00  0.00    +0.144 HD
ATOM     37  H   UNL     1      -7.365  -6.512  -5.196  0.00  0.00    +0.144 HD
ENDBRANCH  11  35
TORSDOF 4
