REMARK  Name = ZINC08709514
REMARK  9 active torsions:
REMARK  status: ('A' for Active; 'I' for Inactive)
REMARK    1  A    between atoms: C_1  and  C_2
REMARK    2  A    between atoms: C_2  and  C_4
REMARK    3  A    between atoms: C_8  and  S_10
REMARK    4  A    between atoms: S_10  and  N_13
REMARK    5  A    between atoms: C_16  and  C_19
REMARK    6  A    between atoms: N_21  and  C_22
REMARK    7  A    between atoms: C_22  and  C_23
REMARK    8  A    between atoms: C_23  and  C_25
REMARK    9  A    between atoms: C_23  and  N_67
REMARK                            x       y       z     vdW  Elec       q    Type
REMARK                         _______ _______ _______ _____ _____    ______ ____
ROOT
ATOM      1  N   UNL     1      -2.389   1.159   2.803  0.00  0.00    -0.177 NA
ATOM      2  C   UNL     1      -2.099  -0.225   3.203  0.00  0.00    +0.110 C 
ATOM      3  C   UNL     1      -3.409  -0.923   3.565  0.00  0.00    +0.030 C 
ATOM      4  C   UNL     1      -4.146  -0.102   4.626  0.00  0.00    +0.077 C 
ATOM      5  C   UNL     1      -4.474   1.283   4.065  0.00  0.00    +0.030 C 
ATOM      6  C   UNL     1      -3.171   2.008   3.711  0.00  0.00    +0.110 C 
ENDROOT
BRANCH   4   7
ATOM      7  C   UNL     1      -5.424  -0.805   5.006  0.00  0.00    +0.216 C 
ATOM      8  O   UNL     1      -6.491  -0.253   4.844  0.00  0.00    -0.276 OA
ATOM      9  N   UNL     1      -5.380  -2.048   5.526  0.00  0.00    -0.316 N 
ATOM     10  H   UNL     1      -4.527  -2.490   5.655  0.00  0.00    +0.149 HD
BRANCH   9  11
ATOM     11  C   UNL     1      -6.622  -2.731   5.895  0.00  0.00    +0.096 C 
BRANCH  11  12
ATOM     12  C   UNL     1      -6.290  -4.062   6.573  0.00  0.00    +0.016 C 
BRANCH  12  18
ATOM     13  C   UNL     1      -6.042  -5.103   4.402  0.00  0.00    -0.078 C 
ATOM     14  C   UNL     1      -5.044  -5.796   3.472  0.00  0.00    -0.019 C 
ATOM     15  C   UNL     1      -4.591  -7.114   4.107  0.00  0.00    -0.004 C 
ATOM     16  C   UNL     1      -3.978  -6.826   5.480  0.00  0.00    -0.019 C 
ATOM     17  C   UNL     1      -5.008  -6.103   6.352  0.00  0.00    -0.078 C 
ATOM     18  N   UNL     1      -5.383  -4.832   5.697  0.00  0.00    +0.387 N 
ATOM     19  H   UNL     1      -4.534  -4.280   5.530  0.00  0.00    -0.081 HD
ENDBRANCH  12  18
BRANCH  12  20
ATOM     20  C   UNL     1      -5.596  -3.798   7.885  0.00  0.00    +0.093 A 
ATOM     21  C   UNL     1      -6.172  -3.824   9.100  0.00  0.00    +0.043 A 
ATOM     22  C   UNL     1      -5.160  -3.523  10.040  0.00  0.00    +0.041 A 
ATOM     23  C   UNL     1      -4.027  -3.324   9.343  0.00  0.00    +0.195 A 
ATOM     24  O   UNL     1      -4.297  -3.491   8.038  0.00  0.00    -0.469 OA
ENDBRANCH  12  20
ENDBRANCH  11  12
ENDBRANCH   9  11
ENDBRANCH   4   7
BRANCH   1  25
ATOM     25  S   UNL     1      -1.850   1.748   1.352  0.00  0.00    +0.061 S 
ATOM     26  O   UNL     1      -2.713   2.821   1.004  0.00  0.00    -0.153 OA
ATOM     27  O   UNL     1      -1.652   0.624   0.506  0.00  0.00    -0.153 OA
BRANCH  25  32
ATOM     28  C   UNL     1       1.115   4.338   2.206  0.00  0.00    +0.019 A 
ATOM     29  C   UNL     1       2.257   3.542   2.068  0.00  0.00    +0.011 A 
ATOM     30  C   UNL     1       2.129   2.215   1.719  0.00  0.00    +0.003 A 
ATOM     31  C   UNL     1       0.875   1.669   1.505  0.00  0.00    +0.028 A 
ATOM     32  C   UNL     1      -0.259   2.452   1.634  0.00  0.00    +0.106 A 
ATOM     33  C   UNL     1      -0.148   3.780   1.988  0.00  0.00    +0.040 A 
BRANCH  28  35
ATOM     34  C   UNL     1       2.606   6.354   2.813  0.00  0.00    +0.091 C 
ATOM     35  C   UNL     1       1.243   5.756   2.579  0.00  0.00    +0.160 C 
ATOM     36  O   UNL     1       0.251   6.444   2.697  0.00  0.00    -0.292 OA
ENDBRANCH  28  35
ENDBRANCH  25  32
ENDBRANCH   1  25
TORSDOF 8
