REMARK  Name = ZINC39596577
REMARK  8 active torsions:
REMARK  status: ('A' for Active; 'I' for Inactive)
REMARK    1  A    between atoms: C_1  and  C_2
REMARK    2  A    between atoms: C_2  and  C_4
REMARK    3  A    between atoms: C_2  and  O_27
REMARK    4  A    between atoms: C_4  and  N_5
REMARK    5  A    between atoms: C_6  and  C_8
REMARK    6  A    between atoms: C_19  and  C_21
REMARK    7  A    between atoms: N_25  and  C_26
REMARK    8  A    between atoms: O_27  and  C_28
REMARK                            x       y       z     vdW  Elec       q    Type
REMARK                         _______ _______ _______ _____ _____    ______ ____
ROOT
ATOM      1  C   UNL     1       1.434  -3.526  -2.740  0.00  0.00    +0.100 C 
ATOM      2  C   UNL     1      -0.053  -3.937  -2.821  0.00  0.00    +0.121 C 
ATOM      3  N   UNL     1      -0.248  -4.365  -4.226  0.00  0.00    -0.295 N 
ATOM      4  C   UNL     1       0.994  -5.102  -4.562  0.00  0.00    +0.115 C 
ATOM      5  C   UNL     1       2.119  -4.296  -3.882  0.00  0.00    -0.004 C 
ATOM      6  C   UNL     1       3.180  -5.239  -3.322  0.00  0.00    -0.010 C 
ATOM      7  C   UNL     1       3.887  -5.949  -4.480  0.00  0.00    -0.082 C 
ATOM      8  N   UNL     1       4.505  -4.954  -5.364  0.00  0.00    +0.379 N 
ATOM      9  C   UNL     1       3.468  -4.110  -5.971  0.00  0.00    -0.082 C 
ATOM     10  C   UNL     1       2.743  -3.322  -4.876  0.00  0.00    -0.010 C 
ATOM     11  C   UNL     1      -1.313  -4.137  -5.019  0.00  0.00    +0.265 C 
ATOM     12  O   UNL     1      -1.321  -4.554  -6.162  0.00  0.00    -0.268 OA
ATOM     13  H   UNL     1       5.136  -4.376  -4.828  0.00  0.00    -0.086 HD
ATOM     14  H   UNL     1       5.021  -5.426  -6.091  0.00  0.00    -0.086 HD
ENDROOT
BRANCH  11  15
ATOM     15  C   UNL     1      -2.464  -3.385  -4.504  0.00  0.00    +0.124 A 
ATOM     16  C   UNL     1      -2.708  -3.051  -3.202  0.00  0.00    +0.143 A 
ATOM     17  N   UNL     1      -3.854  -2.371  -3.164  0.00  0.00    -0.243 NA
ATOM     18  C   UNL     1      -4.342  -2.261  -4.373  0.00  0.00    +0.199 A 
ATOM     19  N   UNL     1      -3.513  -2.870  -5.240  0.00  0.00    -0.330 N 
ATOM     20  C   UNL     1      -3.691  -2.970  -6.691  0.00  0.00    +0.150 C 
ENDBRANCH  11  15
BRANCH   1  22
ATOM     21  N   UNL     1       2.684  -1.404  -2.506  0.00  0.00    -0.312 N 
ATOM     22  C   UNL     1       1.581  -2.041  -2.947  0.00  0.00    +0.218 C 
ATOM     23  O   UNL     1       0.706  -1.418  -3.511  0.00  0.00    -0.275 OA
ATOM     24  H   UNL     1       3.383  -1.902  -2.055  0.00  0.00    +0.149 HD
BRANCH  21  25
ATOM     25  C   UNL     1       2.826   0.040  -2.707  0.00  0.00    +0.148 C 
BRANCH  25  27
ATOM     26  C   UNL     1       4.252   2.032  -2.216  0.00  0.00    +0.053 C 
ATOM     27  C   UNL     1       4.158   0.508  -2.118  0.00  0.00    +0.187 C 
BRANCH  27  28
ATOM     28  O   UNL     1       5.236  -0.083  -2.846  0.00  0.00    -0.488 OA
BRANCH  28  29
ATOM     29  C   UNL     1       6.431  -0.183  -2.207  0.00  0.00    +0.121 A 
ATOM     30  C   UNL     1       6.542   0.199  -0.878  0.00  0.00    +0.048 A 
ATOM     31  C   UNL     1       7.758   0.096  -0.230  0.00  0.00    +0.042 A 
ATOM     32  C   UNL     1       8.865  -0.387  -0.906  0.00  0.00    +0.124 A 
ATOM     33  C   UNL     1       8.756  -0.768  -2.233  0.00  0.00    +0.042 A 
ATOM     34  C   UNL     1       7.540  -0.673  -2.882  0.00  0.00    +0.048 A 
ATOM     35  F   UNL     1      10.054  -0.486  -0.271  0.00  0.00    -0.205 F 
ENDBRANCH  28  29
ENDBRANCH  27  28
ENDBRANCH  25  27
ENDBRANCH  21  25
ENDBRANCH   1  22
TORSDOF 6
