REMARK  Name = ZINC02214167
REMARK  8 active torsions:
REMARK  status: ('A' for Active; 'I' for Inactive)
REMARK    1  A    between atoms: C_1  and  C_2
REMARK    2  A    between atoms: C_5  and  O_8
REMARK    3  A    between atoms: O_8  and  C_9
REMARK    4  A    between atoms: C_9  and  C_10
REMARK    5  A    between atoms: C_10  and  N_11
REMARK    6  A    between atoms: C_13  and  C_20
REMARK    7  A    between atoms: N_27  and  C_30
REMARK    8  A    between atoms: C_33  and  C_37
REMARK                            x       y       z     vdW  Elec       q    Type
REMARK                         _______ _______ _______ _____ _____    ______ ____
ROOT
ATOM      1  N   UNL     1       0.135   6.870  -0.716  0.00  0.00    -0.343 N 
ATOM      2  C   UNL     1       0.113   5.557  -0.425  0.00  0.00    +0.095 A 
ATOM      3  C   UNL     1       1.399   5.047  -0.490  0.00  0.00    +0.001 A 
ATOM      4  C   UNL     1       2.272   6.182  -0.852  0.00  0.00    +0.007 A 
ATOM      5  C   UNL     1       1.422   7.292  -0.984  0.00  0.00    +0.050 A 
ATOM      6  C   UNL     1       1.963   8.526  -1.328  0.00  0.00    +0.026 A 
ATOM      7  C   UNL     1       3.320   8.648  -1.541  0.00  0.00    +0.002 A 
ATOM      8  C   UNL     1       4.156   7.549  -1.414  0.00  0.00    +0.001 A 
ATOM      9  C   UNL     1       3.638   6.317  -1.073  0.00  0.00    +0.010 A 
ENDROOT
BRANCH   3  10
ATOM     10  C   UNL     1       1.795   3.715  -0.252  0.00  0.00    +0.028 C 
ATOM     11  C   UNL     1       1.275   3.019   0.832  0.00  0.00    +0.100 C 
ATOM     12  C   UNL     1       1.513   1.575   1.004  0.00  0.00    +0.257 C 
ATOM     13  O   UNL     1       2.177   0.951   0.197  0.00  0.00    -0.270 OA
ATOM     14  N   UNL     1       0.977   0.964   2.080  0.00  0.00    -0.235 N 
ATOM     15  C   UNL     1       0.240   1.639   2.974  0.00  0.00    +0.320 C 
ATOM     16  O   UNL     1      -0.219   1.029   3.919  0.00  0.00    -0.251 OA
ATOM     17  N   UNL     1      -0.012   2.952   2.883  0.00  0.00    -0.190 N 
ATOM     18  C   UNL     1       0.461   3.692   1.858  0.00  0.00    +0.263 C 
ATOM     19  O   UNL     1       0.221   4.882   1.784  0.00  0.00    -0.269 OA
ATOM     20  H   UNL     1       1.124   0.014   2.208  0.00  0.00    +0.159 HD
BRANCH  17  21
ATOM     21  C   UNL     1      -0.789   3.570   3.872  0.00  0.00    +0.047 A 
ATOM     22  C   UNL     1      -0.207   4.473   4.751  0.00  0.00    +0.024 A 
ATOM     23  C   UNL     1      -0.975   5.081   5.724  0.00  0.00    +0.006 A 
ATOM     24  C   UNL     1      -2.324   4.792   5.824  0.00  0.00    -0.032 A 
ATOM     25  C   UNL     1      -2.908   3.893   4.949  0.00  0.00    +0.046 A 
ATOM     26  C   UNL     1      -2.144   3.285   3.970  0.00  0.00    +0.044 A 
ATOM     27 CL   UNL     1      -4.601   3.533   5.077  0.00  0.00    -0.083 Cl
ATOM     28  C   UNL     1      -3.159   5.457   6.888  0.00  0.00    +0.045 C 
ENDBRANCH  17  21
ENDBRANCH   3  10
BRANCH   1  29
ATOM     29  C   UNL     1      -1.047   7.736  -0.743  0.00  0.00    +0.163 C 
BRANCH  29  30
ATOM     30  C   UNL     1      -1.577   7.831  -2.175  0.00  0.00    +0.250 C 
BRANCH  30  31
ATOM     31  O   UNL     1      -2.729   8.675  -2.202  0.00  0.00    -0.490 OA
BRANCH  31  36
ATOM     32  C   UNL     1      -5.204   9.469  -7.199  0.00  0.00    +0.044 C 
ATOM     33  C   UNL     1      -4.542   9.256  -5.862  0.00  0.00    -0.050 A 
ATOM     34  C   UNL     1      -5.055   9.868  -4.733  0.00  0.00    +0.007 A 
ATOM     35  C   UNL     1      -4.449   9.675  -3.506  0.00  0.00    +0.046 A 
ATOM     36  C   UNL     1      -3.326   8.867  -3.407  0.00  0.00    +0.121 A 
ATOM     37  C   UNL     1      -2.810   8.259  -4.543  0.00  0.00    +0.046 A 
ATOM     38  C   UNL     1      -3.422   8.451  -5.766  0.00  0.00    +0.007 A 
ENDBRANCH  31  36
ENDBRANCH  30  31
ENDBRANCH  29  30
ENDBRANCH   1  29
TORSDOF 6
