REMARK  Name = ZINC09448374
REMARK  6 active torsions:
REMARK  status: ('A' for Active; 'I' for Inactive)
REMARK    1  A    between atoms: C_4  and  N_7
REMARK    2  A    between atoms: C_8  and  C_29
REMARK    3  A    between atoms: C_10  and  S_12
REMARK    4  A    between atoms: S_12  and  C_13
REMARK    5  A    between atoms: C_13  and  C_14
REMARK    6  A    between atoms: N_20  and  C_21
REMARK                            x       y       z     vdW  Elec       q    Type
REMARK                         _______ _______ _______ _____ _____    ______ ____
ROOT
ATOM      1  C   UNL     1      -6.630   1.237  -2.308  0.00  0.00    +0.146 A 
ATOM      2  N   UNL     1      -7.606   0.758  -1.556  0.00  0.00    -0.199 NA
ATOM      3  C   UNL     1      -8.841   0.671  -2.043  0.00  0.00    +0.217 A 
ATOM      4  N   UNL     1      -9.091   1.056  -3.290  0.00  0.00    -0.181 NA
ATOM      5  C   UNL     1      -8.106   1.532  -4.044  0.00  0.00    +0.224 A 
ATOM      6  N   UNL     1      -6.874   1.621  -3.549  0.00  0.00    -0.198 NA
ATOM      7  N   UNL     1      -8.360   1.933  -5.341  0.00  0.00    -0.284 N 
ATOM      8  N   UNL     1      -9.861   0.176  -1.256  0.00  0.00    -0.327 N 
ATOM      9  H   UNL     1      -7.661   2.354  -5.864  0.00  0.00    +0.155 HD
ATOM     10  H   UNL     1     -10.760   0.109  -1.613  0.00  0.00    +0.145 HD
ATOM     11  H   UNL     1      -9.678  -0.104  -0.345  0.00  0.00    +0.145 HD
ENDROOT
BRANCH   7  12
ATOM     12  C   UNL     1      -9.628   1.733  -5.900  0.00  0.00    +0.034 A 
ATOM     13  C   UNL     1     -10.377   0.619  -5.543  0.00  0.00    +0.026 A 
ATOM     14  C   UNL     1     -11.630   0.426  -6.091  0.00  0.00    +0.040 A 
ATOM     15  C   UNL     1     -12.134   1.336  -7.006  0.00  0.00    +0.124 A 
ATOM     16  C   UNL     1     -11.386   2.443  -7.368  0.00  0.00    +0.040 A 
ATOM     17  C   UNL     1     -10.136   2.644  -6.817  0.00  0.00    +0.026 A 
ATOM     18  F   UNL     1     -13.357   1.142  -7.545  0.00  0.00    -0.205 F 
ENDBRANCH   7  12
BRANCH   1  19
ATOM     19  C   UNL     1      -5.233   1.340  -1.751  0.00  0.00    +0.153 C 
BRANCH  19  20
ATOM     20  S   UNL     1      -5.011   2.963  -0.971  0.00  0.00    -0.077 S 
BRANCH  20  24
ATOM     21  N   UNL     1      -1.316   2.316   0.108  0.00  0.00    -0.216 N 
ATOM     22  C   UNL     1      -1.516   3.562   0.578  0.00  0.00    +0.137 A 
ATOM     23  N   UNL     1      -2.739   3.920   0.276  0.00  0.00    -0.205 NA
ATOM     24  C   UNL     1      -3.353   2.928  -0.377  0.00  0.00    +0.210 A 
ATOM     25  N   UNL     1      -2.518   1.923  -0.503  0.00  0.00    -0.138 NA
BRANCH  21  29
ATOM     26  C   UNL     1       2.178   0.062   0.410  0.00  0.00    +0.000 A 
ATOM     27  C   UNL     1       0.946  -0.561   0.484  0.00  0.00    +0.002 A 
ATOM     28  C   UNL     1      -0.214   0.183   0.386  0.00  0.00    +0.028 A 
ATOM     29  C   UNL     1      -0.141   1.559   0.214  0.00  0.00    +0.067 A 
ATOM     30  C   UNL     1       1.097   2.182   0.140  0.00  0.00    +0.028 A 
ATOM     31  C   UNL     1       2.253   1.432   0.239  0.00  0.00    +0.002 A 
ENDBRANCH  21  29
BRANCH  22  32
ATOM     32  C   UNL     1      -0.507   4.401   1.319  0.00  0.00    +0.057 C 
ATOM     33  C   UNL     1      -0.998   5.707   1.945  0.00  0.00    +0.012 C 
ATOM     34  C   UNL     1      -0.111   5.742   0.698  0.00  0.00    +0.012 C 
ENDBRANCH  22  32
ENDBRANCH  20  24
ENDBRANCH  19  20
ENDBRANCH   1  19
TORSDOF 6
