REMARK  Name = ZINC63362287
REMARK  12 active torsions:
REMARK  status: ('A' for Active; 'I' for Inactive)
REMARK    1  A    between atoms: C_1  and  C_2
REMARK    2  A    between atoms: C_2  and  C_3
REMARK    3  A    between atoms: C_3  and  C_4
REMARK    4  A    between atoms: C_4  and  C_5
REMARK    5  A    between atoms: C_5  and  C_6
REMARK    6  A    between atoms: C_6  and  C_8
REMARK    7  A    between atoms: C_6  and  N_9
REMARK    8  A    between atoms: C_10  and  C_12
REMARK    9  A    between atoms: C_15  and  N_18
REMARK   10  A    between atoms: C_21  and  C_39
REMARK   11  A    between atoms: C_27  and  O_32
REMARK   12  A    between atoms: O_32  and  C_33
REMARK                            x       y       z     vdW  Elec       q    Type
REMARK                         _______ _______ _______ _____ _____    ______ ____
ROOT
ATOM      1  N   UNL     1       0.563  -7.635  -6.168  0.00  0.00    -0.192 N 
ATOM      2  C   UNL     1       1.241  -8.794  -6.302  0.00  0.00    +0.253 C 
ATOM      3  O   UNL     1       1.506  -9.593  -5.430  0.00  0.00    -0.272 OA
ATOM      4  C   UNL     1       1.600  -8.888  -7.768  0.00  0.00    +0.137 C 
ATOM      5  C   UNL     1       3.116  -8.969  -7.947  0.00  0.00    +0.139 C 
ATOM      6  C   UNL     1       3.568  -7.662  -8.582  0.00  0.00    -0.034 C 
ATOM      7  C   UNL     1       4.491  -7.154  -7.770  0.00  0.00    +0.003 A 
ATOM      8  C   UNL     1       5.333  -5.953  -7.874  0.00  0.00    +0.055 A 
ATOM      9  C   UNL     1       6.186  -5.714  -6.840  0.00  0.00    +0.121 A 
ATOM     10  C   UNL     1       6.296  -6.536  -5.709  0.00  0.00    +0.047 A 
ATOM     11  C   UNL     1       5.572  -7.668  -5.513  0.00  0.00    +0.029 A 
ATOM     12  C   UNL     1       4.617  -8.034  -6.568  0.00  0.00    +0.043 A 
ATOM     13  N   UNL     1       3.811  -9.068  -6.662  0.00  0.00    -0.375 N 
ATOM     14  C   UNL     1       2.971  -7.097  -9.848  0.00  0.00    +0.052 C 
ATOM     15  C   UNL     1       1.441  -7.089  -9.659  0.00  0.00    +0.115 C 
ATOM     16  N   UNL     1       1.151  -7.590  -8.313  0.00  0.00    -0.268 N 
ATOM     17  C   UNL     1       0.480  -6.973  -7.330  0.00  0.00    +0.316 C 
ATOM     18  O   UNL     1      -0.129  -5.932  -7.475  0.00  0.00    -0.252 OA
ATOM     19  C   UNL     1       0.881 -10.057  -8.445  0.00  0.00    +0.044 C 
ATOM     20  H   UNL     1       3.690  -9.769  -6.003  0.00  0.00    +0.160 HD
ENDROOT
BRANCH   1  24
ATOM     21  C   UNL     1      -1.083  -6.288  -2.583  0.00  0.00    +0.037 A 
ATOM     22  C   UNL     1      -1.108  -5.470  -3.715  0.00  0.00    +0.015 A 
ATOM     23  C   UNL     1      -0.563  -5.918  -4.898  0.00  0.00    +0.025 A 
ATOM     24  C   UNL     1       0.011  -7.183  -4.965  0.00  0.00    +0.045 A 
ATOM     25  C   UNL     1       0.037  -8.000  -3.840  0.00  0.00    +0.025 A 
ATOM     26  C   UNL     1      -0.501  -7.556  -2.653  0.00  0.00    +0.015 A 
BRANCH  21  28
ATOM     27  N   UNL     1      -2.228  -4.587  -1.247  0.00  0.00    -0.309 N 
ATOM     28  C   UNL     1      -1.666  -5.810  -1.313  0.00  0.00    +0.244 C 
ATOM     29  O   UNL     1      -1.640  -6.521  -0.327  0.00  0.00    -0.270 OA
ATOM     30  H   UNL     1      -2.249  -4.020  -2.034  0.00  0.00    +0.149 HD
BRANCH  27  31
ATOM     31  C   UNL     1      -2.806  -4.113   0.013  0.00  0.00    +0.070 C 
ATOM     32  C   UNL     1      -4.245  -4.619   0.136  0.00  0.00    +0.028 C 
BRANCH  31  33
ATOM     33  C   UNL     1      -2.800  -2.583   0.034  0.00  0.00    +0.022 C 
BRANCH  33  34
ATOM     34  C   UNL     1      -1.356  -2.079   0.036  0.00  0.00    +0.002 C 
BRANCH  34  35
ATOM     35  C   UNL     1      -1.350  -0.549   0.057  0.00  0.00    -0.000 C 
BRANCH  35  37
ATOM     36  C   UNL     1       0.101   1.485   0.081  0.00  0.00    +0.004 C 
ATOM     37  C   UNL     1       0.095  -0.045   0.060  0.00  0.00    -0.003 C 
ENDBRANCH  35  37
ENDBRANCH  34  35
ENDBRANCH  33  34
ENDBRANCH  31  33
ENDBRANCH  27  31
ENDBRANCH  21  28
ENDBRANCH   1  24
BRANCH   9  38
ATOM     38  O   UNL     1       6.978  -4.611  -6.907  0.00  0.00    -0.495 OA
ATOM     39  C   UNL     1       7.864  -4.381  -5.810  0.00  0.00    +0.277 C 
ENDBRANCH   9  38
TORSDOF 8
