REMARK  Name = ZINC40305398
REMARK  2 active torsions:
REMARK  status: ('A' for Active; 'I' for Inactive)
REMARK    1  A    between atoms: C_2  and  C_10
REMARK    2  A    between atoms: C_6  and  N_7
REMARK                            x       y       z     vdW  Elec       q    Type
REMARK                         _______ _______ _______ _____ _____    ______ ____
ROOT
ATOM      1  C   UNL     1       1.172   3.570   0.010  0.00  0.00    +0.247 C 
ATOM      2  O   UNL     1       0.118   4.169  -0.085  0.00  0.00    -0.270 OA
ATOM      3  N   UNL     1       2.330   4.253   0.104  0.00  0.00    -0.297 N 
ATOM      4  C   UNL     1       3.619   3.549   0.084  0.00  0.00    +0.108 C 
ATOM      5  C   UNL     1       4.498   4.162  -1.011  0.00  0.00    +0.023 C 
ATOM      6  C   UNL     1       4.613   5.671  -0.784  0.00  0.00    -0.005 C 
ATOM      7  C   UNL     1       5.508   6.277  -1.869  0.00  0.00    +0.004 C 
ATOM      8  C   UNL     1       4.900   5.994  -3.244  0.00  0.00    +0.000 C 
ATOM      9  C   UNL     1       3.506   6.620  -3.326  0.00  0.00    +0.000 C 
ATOM     10  C   UNL     1       2.612   6.022  -2.237  0.00  0.00    +0.005 C 
ATOM     11  C   UNL     1       3.222   6.306  -0.856  0.00  0.00    +0.010 C 
ATOM     12  C   UNL     1       2.328   5.717   0.223  0.00  0.00    +0.112 C 
ENDROOT
BRANCH   1  14
ATOM     13  C   UNL     1       2.026   1.405   0.896  0.00  0.00    +0.037 A 
ATOM     14  C   UNL     1       1.183   2.092   0.021  0.00  0.00    +0.040 A 
ATOM     15  C   UNL     1       0.350   1.379  -0.844  0.00  0.00    +0.034 A 
ATOM     16  C   UNL     1       0.362  -0.002  -0.831  0.00  0.00    +0.062 A 
ATOM     17  C   UNL     1       1.198  -0.683   0.037  0.00  0.00    +0.080 A 
ATOM     18  C   UNL     1       2.031   0.019   0.901  0.00  0.00    +0.045 A 
ATOM     19 CL   UNL     1       1.206  -2.419   0.047  0.00  0.00    -0.080 Cl
ATOM     20 CL   UNL     1      -0.674  -0.886  -1.907  0.00  0.00    -0.082 Cl
BRANCH  18  21
ATOM     21  N   UNL     1       2.874  -0.673   1.776  0.00  0.00    -0.357 N 
ATOM     22  H   UNL     1       3.455  -0.183   2.379  0.00  0.00    +0.142 HD
ATOM     23  H   UNL     1       2.878  -1.643   1.780  0.00  0.00    +0.142 HD
ENDBRANCH  18  21
ENDBRANCH   1  14
TORSDOF 2
