REMARK  Name = ZINC11854489
REMARK  7 active torsions:
REMARK  status: ('A' for Active; 'I' for Inactive)
REMARK    1  A    between atoms: C_1  and  C_2
REMARK    2  A    between atoms: C_2  and  S_3
REMARK    3  A    between atoms: S_3  and  C_4
REMARK    4  A    between atoms: C_9  and  C_10
REMARK    5  A    between atoms: N_12  and  C_13
REMARK    6  A    between atoms: C_15  and  C_27
REMARK    7  A    between atoms: C_24  and  C_26
REMARK                            x       y       z     vdW  Elec       q    Type
REMARK                         _______ _______ _______ _____ _____    ______ ____
ROOT
ATOM      1  C   UNL     1       2.358   1.222  -0.014  0.00  0.00    +0.132 A 
ATOM      2  C   UNL     1       2.522  -0.125  -0.017  0.00  0.00    +0.074 A 
ATOM      3  C   UNL     1       3.908  -0.391  -0.037  0.00  0.00    +0.102 A 
ATOM      4  N   UNL     1       4.548   0.760  -0.037  0.00  0.00    -0.162 NA
ATOM      5  N   UNL     1       3.600   1.791  -0.023  0.00  0.00    -0.185 N 
ATOM      6  C   UNL     1       3.873   3.145  -0.017  0.00  0.00    +0.234 A 
ATOM      7  N   UNL     1       5.166   3.565  -0.022  0.00  0.00    -0.291 N 
ATOM      8  H   UNL     1       5.889   2.918  -0.029  0.00  0.00    +0.172 HD
ATOM      9  C   UNL     1       5.442   4.887  -0.021  0.00  0.00    +0.253 A 
ATOM     10  O   UNL     1       6.596   5.282  -0.030  0.00  0.00    -0.268 OA
ATOM     11  C   UNL     1       4.371   5.801  -0.005  0.00  0.00    +0.093 A 
ATOM     12  C   UNL     1       3.095   5.319   0.004  0.00  0.00    +0.047 A 
ATOM     13  N   UNL     1       2.878   4.005  -0.003  0.00  0.00    -0.217 NA
ATOM     14  C   UNL     1       1.930   6.274   0.021  0.00  0.00    +0.066 C 
ENDROOT
BRANCH   3  15
ATOM     15  C   UNL     1       4.533  -1.731  -0.051  0.00  0.00    +0.039 A 
ATOM     16  C   UNL     1       5.861  -2.063  -0.066  0.00  0.00    +0.018 A 
ATOM     17  C   UNL     1       6.211  -3.396  -0.075  0.00  0.00    +0.008 A 
ATOM     18  C   UNL     1       5.232  -4.336  -0.070  0.00  0.00    +0.046 A 
ATOM     19  S   UNL     1       3.753  -3.337  -0.043  0.00  0.00    -0.095 S 
ENDBRANCH   3  15
BRANCH   1  22
ATOM     20  C   UNL     1      -0.014   1.212   0.009  0.00  0.00    +0.250 C 
ATOM     21  O   UNL     1       0.002  -0.004   0.002  0.00  0.00    -0.270 OA
ATOM     22  N   UNL     1       1.143   1.902   0.001  0.00  0.00    -0.266 N 
ATOM     23  H   UNL     1       1.130   2.872   0.007  0.00  0.00    +0.157 HD
BRANCH  20  29
ATOM     24  C   UNL     1      -2.510   1.217   0.021  0.00  0.00    +0.020 A 
ATOM     25  C   UNL     1      -3.716   1.908   0.030  0.00  0.00    +0.015 A 
ATOM     26  C   UNL     1      -3.722   3.287   0.039  0.00  0.00    +0.001 A 
ATOM     27  C   UNL     1      -2.530   3.995   0.038  0.00  0.00    +0.001 A 
ATOM     28  C   UNL     1      -1.325   3.329   0.032  0.00  0.00    +0.014 A 
ATOM     29  C   UNL     1      -1.300   1.931   0.019  0.00  0.00    +0.050 A 
BRANCH  24  30
ATOM     30  S   UNL     1      -2.498  -0.545   0.011  0.00  0.00    -0.125 S 
BRANCH  30  32
ATOM     31  C   UNL     1      -4.391  -2.519   0.009  0.00  0.00    +0.015 C 
ATOM     32  C   UNL     1      -4.255  -0.995   0.017  0.00  0.00    +0.071 C 
ENDBRANCH  30  32
ENDBRANCH  24  30
ENDBRANCH  20  29
ENDBRANCH   1  22
TORSDOF 5
