REMARK  Name = ZINC43769418
REMARK  13 active torsions:
REMARK  status: ('A' for Active; 'I' for Inactive)
REMARK    1  A    between atoms: C_1  and  C_2
REMARK    2  A    between atoms: C_2  and  C_3
REMARK    3  A    between atoms: C_2  and  C_4
REMARK    4  A    between atoms: C_4  and  O_35
REMARK    5  A    between atoms: C_6  and  O_31
REMARK    6  A    between atoms: C_8  and  C_30
REMARK    7  A    between atoms: C_11  and  O_20
REMARK    8  A    between atoms: C_14  and  C_19
REMARK    9  A    between atoms: O_20  and  C_21
REMARK   10  A    between atoms: C_21  and  C_23
REMARK   11  A    between atoms: C_26  and  O_29
REMARK   12  A    between atoms: O_31  and  C_32
REMARK   13  A    between atoms: C_32  and  C_34
REMARK                            x       y       z     vdW  Elec       q    Type
REMARK                         _______ _______ _______ _____ _____    ______ ____
ROOT
ATOM      1  C   UNL     1      -1.184  -0.908  -0.198  0.00  0.00    +0.079 C 
ATOM      2  C   UNL     1      -1.776  -0.071   0.962  0.00  0.00    +0.080 C 
ATOM      3  C   UNL     1      -3.034  -0.873   1.366  0.00  0.00    +0.186 C 
ATOM      4  C   UNL     1      -2.519  -2.349   1.295  0.00  0.00    +0.016 C 
ATOM      5  C   UNL     1      -1.626  -2.363   0.050  0.00  0.00    +0.071 C 
ATOM      6  C   UNL     1      -0.501  -3.331   0.203  0.00  0.00    +0.186 C 
ATOM      7  C   UNL     1      -0.653  -4.786  -0.038  0.00  0.00    +0.082 C 
ATOM      8  C   UNL     1      -1.997  -5.237   0.565  0.00  0.00    +0.097 C 
ATOM      9  C   UNL     1      -3.117  -4.356   0.106  0.00  0.00    +0.151 C 
ATOM     10  C   UNL     1      -3.766  -3.241   0.886  0.00  0.00    +0.045 C 
ATOM     11  O   UNL     1      -3.151  -5.700  -0.092  0.00  0.00    -0.365 OA
ATOM     12  C   UNL     1      -1.904  -5.798   1.984  0.00  0.00    +0.044 C 
ATOM     13  C   UNL     1      -1.915  -2.728   2.648  0.00  0.00    +0.015 C 
ENDROOT
BRANCH   1  15
ATOM     14  C   UNL     1       0.855  -1.121  -1.614  0.00  0.00    +0.010 C 
ATOM     15  C   UNL     1       0.326  -0.718  -0.237  0.00  0.00    +0.015 C 
ATOM     16  C   UNL     1       0.662   0.751   0.028  0.00  0.00    +0.010 C 
ENDBRANCH   1  15
BRANCH   1  17
ATOM     17  O   UNL     1      -1.754  -0.458  -1.436  0.00  0.00    -0.388 OA
ATOM     18  H   UNL     1      -1.579   0.472  -1.635  0.00  0.00    +0.210 HD
ENDBRANCH   1  17
BRANCH   6  19
ATOM     19  O   UNL     1       0.335  -3.113   1.323  0.00  0.00    -0.457 OA
BRANCH  19  20
ATOM     20  C   UNL     1       1.612  -3.533   1.224  0.00  0.00    +0.339 C 
ATOM     21  O   UNL     1       1.997  -4.071   0.205  0.00  0.00    -0.245 OA
BRANCH  20  22
ATOM     22  C   UNL     1       2.541  -3.340   2.352  0.00  0.00    +0.059 A 
ATOM     23  C   UNL     1       2.099  -2.727   3.528  0.00  0.00    +0.018 A 
ATOM     24  C   UNL     1       2.970  -2.549   4.579  0.00  0.00    +0.046 A 
ATOM     25  C   UNL     1       4.288  -2.978   4.473  0.00  0.00    +0.117 A 
ATOM     26  C   UNL     1       4.732  -3.588   3.306  0.00  0.00    +0.046 A 
ATOM     27  C   UNL     1       3.866  -3.775   2.252  0.00  0.00    +0.018 A 
BRANCH  25  28
ATOM     28  O   UNL     1       5.143  -2.800   5.511  0.00  0.00    -0.507 OA
ATOM     29  H   UNL     1       5.161  -3.537   6.137  0.00  0.00    +0.292 HD
ENDBRANCH  25  28
ENDBRANCH  20  22
ENDBRANCH  19  20
ENDBRANCH   6  19
BRANCH   3  30
ATOM     30  O   UNL     1      -3.443  -0.563   2.697  0.00  0.00    -0.461 OA
BRANCH  30  31
ATOM     31  C   UNL     1      -4.336   0.429   2.845  0.00  0.00    +0.304 C 
ATOM     32  O   UNL     1      -4.755   1.014   1.875  0.00  0.00    -0.251 OA
ATOM     33  C   UNL     1      -4.814   0.813   4.221  0.00  0.00    +0.136 C 
ENDBRANCH  30  31
ENDBRANCH   3  30
TORSDOF 8
