REMARK  Name = ZINC14882016
REMARK  8 active torsions:
REMARK  status: ('A' for Active; 'I' for Inactive)
REMARK    1  A    between atoms: C_1  and  C_2
REMARK    2  A    between atoms: C_5  and  C_7
REMARK    3  A    between atoms: C_7  and  N_61
REMARK    4  A    between atoms: C_8  and  N_61
REMARK    5  A    between atoms: N_11  and  C_14
REMARK    6  A    between atoms: C_17  and  C_20
REMARK    7  A    between atoms: N_22  and  C_23
REMARK    8  A    between atoms: C_23  and  C_24
REMARK                            x       y       z     vdW  Elec       q    Type
REMARK                         _______ _______ _______ _____ _____    ______ ____
ROOT
ATOM      1  C   UNL     1       1.150   6.796   5.657  0.00  0.00    +0.030 A 
ATOM      2  C   UNL     1       1.126   7.707   4.605  0.00  0.00    +0.024 A 
ATOM      3  C   UNL     1       1.122   7.258   3.304  0.00  0.00    +0.015 A 
ATOM      4  C   UNL     1       1.140   5.886   3.040  0.00  0.00    +0.037 A 
ATOM      5  C   UNL     1       1.158   4.973   4.099  0.00  0.00    +0.015 A 
ATOM      6  C   UNL     1       1.169   5.428   5.398  0.00  0.00    +0.024 A 
ENDROOT
BRANCH   1  10
ATOM      7  C   UNL     1       2.189   7.632   9.640  0.00  0.00    -0.068 C 
ATOM      8  C   UNL     1       1.040   6.664   9.346  0.00  0.00    +0.003 C 
ATOM      9  C   UNL     1       1.181   6.131   7.918  0.00  0.00    +0.103 C 
ATOM     10  N   UNL     1       1.155   7.253   6.971  0.00  0.00    -0.330 N 
ATOM     11  C   UNL     1       2.277   8.171   7.204  0.00  0.00    +0.103 C 
ATOM     12  C   UNL     1       2.168   8.764   8.611  0.00  0.00    +0.003 C 
BRANCH   7  13
ATOM     13  N   UNL     1       2.016   8.192  10.994  0.00  0.00    +0.386 N 
ATOM     14  H   UNL     1       1.385   9.001  10.948  0.00  0.00    -0.085 HD
ATOM     15  H   UNL     1       1.611   7.476  11.608  0.00  0.00    -0.085 HD
BRANCH  13  16
ATOM     16  C   UNL     1       3.318   8.621  11.540  0.00  0.00    -0.007 C 
BRANCH  16  21
ATOM     17  C   UNL     1       2.441  11.905  15.267  0.00  0.00    +0.086 C 
ATOM     18  C   UNL     1       2.730  10.616  14.542  0.00  0.00    +0.102 A 
ATOM     19  C   UNL     1       2.904   9.412  15.116  0.00  0.00    +0.044 A 
ATOM     20  C   UNL     1       3.144   8.490  14.071  0.00  0.00    +0.043 A 
ATOM     21  C   UNL     1       3.111   9.188  12.921  0.00  0.00    +0.088 A 
ATOM     22  O   UNL     1       2.856  10.474  13.212  0.00  0.00    -0.467 OA
ENDBRANCH  16  21
ENDBRANCH  13  16
ENDBRANCH   7  13
ENDBRANCH   1  10
BRANCH   4  23
ATOM     23  C   UNL     1       1.135   5.401   1.647  0.00  0.00    +0.244 C 
ATOM     24  O   UNL     1       1.114   6.196   0.727  0.00  0.00    -0.270 OA
ATOM     25  N   UNL     1       1.153   4.077   1.394  0.00  0.00    -0.307 N 
ATOM     26  H   UNL     1       1.169   3.443   2.128  0.00  0.00    +0.149 HD
BRANCH  25  27
ATOM     27  C   UNL     1       1.147   3.596   0.010  0.00  0.00    +0.140 C 
BRANCH  27  28
ATOM     28  C   UNL     1       1.171   2.089   0.002  0.00  0.00    -0.027 A 
ATOM     29  C   UNL     1       2.379   1.418  -0.011  0.00  0.00    +0.009 A 
ATOM     30  C   UNL     1       2.405   0.036  -0.020  0.00  0.00    +0.050 A 
ATOM     31  C   UNL     1       1.220  -0.680  -0.013  0.00  0.00    +0.166 A 
ATOM     32  C   UNL     1       0.002  -0.004   0.002  0.00  0.00    +0.167 A 
ATOM     33  C   UNL     1      -0.017   1.381   0.010  0.00  0.00    +0.054 A 
ATOM     34  O   UNL     1      -1.007  -0.923   0.006  0.00  0.00    -0.453 OA
ATOM     35  C   UNL     1      -0.404  -2.159  -0.418  0.00  0.00    +0.466 C 
ATOM     36  O   UNL     1       0.973  -2.023  -0.018  0.00  0.00    -0.453 OA
ENDBRANCH  27  28
ENDBRANCH  25  27
ENDBRANCH   4  23
TORSDOF 7
