REMARK  Name = ZINC09406772
REMARK  8 active torsions:
REMARK  status: ('A' for Active; 'I' for Inactive)
REMARK    1  A    between atoms: C_1  and  C_2
REMARK    2  A    between atoms: C_2  and  C_3
REMARK    3  A    between atoms: C_3  and  C_5
REMARK    4  A    between atoms: C_3  and  N_6
REMARK    5  A    between atoms: C_7  and  C_9
REMARK    6  A    between atoms: N_14  and  S_15
REMARK    7  A    between atoms: S_15  and  C_18
REMARK    8  A    between atoms: C_25  and  C_28
REMARK                            x       y       z     vdW  Elec       q    Type
REMARK                         _______ _______ _______ _____ _____    ______ ____
ROOT
ATOM      1  S   UNL     1      -1.672   4.205   1.822  0.00  0.00    +0.062 S 
ATOM      2  O   UNL     1      -0.986   3.965   3.043  0.00  0.00    -0.153 OA
ATOM      3  O   UNL     1      -1.509   5.406   1.080  0.00  0.00    -0.153 OA
ENDROOT
BRANCH   1   4
ATOM      4  C   UNL     1      -3.392   4.061   2.174  0.00  0.00    +0.108 A 
ATOM      5  C   UNL     1      -4.316   4.707   1.364  0.00  0.00    +0.030 A 
ATOM      6  C   UNL     1      -5.666   4.600   1.621  0.00  0.00    +0.030 A 
ATOM      7  C   UNL     1      -6.104   3.850   2.704  0.00  0.00    +0.067 A 
ATOM      8  C   UNL     1      -5.168   3.200   3.528  0.00  0.00    +0.091 A 
ATOM      9  C   UNL     1      -3.803   3.318   3.244  0.00  0.00    +0.058 A 
ATOM     10  N   UNL     1      -5.865   2.553   4.492  0.00  0.00    -0.228 NA
ATOM     11  C   UNL     1      -7.148   2.757   4.320  0.00  0.00    +0.139 A 
ATOM     12  N   UNL     1      -7.348   3.554   3.226  0.00  0.00    -0.338 N 
ATOM     13  H   UNL     1      -8.229   3.865   2.870  0.00  0.00    +0.167 HD
BRANCH  11  14
ATOM     14  C   UNL     1      -8.220   2.208   5.179  0.00  0.00    +0.017 A 
ATOM     15  C   UNL     1      -9.557   2.497   4.903  0.00  0.00    +0.011 A 
ATOM     16  C   UNL     1     -10.552   1.978   5.705  0.00  0.00    +0.001 A 
ATOM     17  C   UNL     1     -10.226   1.181   6.788  0.00  0.00    +0.000 A 
ATOM     18  C   UNL     1      -8.902   0.894   7.070  0.00  0.00    +0.001 A 
ATOM     19  C   UNL     1      -7.898   1.403   6.273  0.00  0.00    +0.011 A 
ENDBRANCH  11  14
ENDBRANCH   1   4
BRANCH   1  24
ATOM     20  C   UNL     1      -1.319   3.009  -0.666  0.00  0.00    +0.165 C 
ATOM     21  C   UNL     1      -0.839   1.637  -1.184  0.00  0.00    +0.031 C 
ATOM     22  C   UNL     1      -0.013   1.086   0.008  0.00  0.00    +0.019 C 
ATOM     23  C   UNL     1      -0.815   1.624   1.219  0.00  0.00    +0.110 C 
ATOM     24  N   UNL     1      -1.274   2.962   0.803  0.00  0.00    -0.165 NA
BRANCH  20  26
ATOM     25  N   UNL     1      -0.286   4.308  -2.500  0.00  0.00    -0.311 N 
ATOM     26  C   UNL     1      -0.408   4.097  -1.175  0.00  0.00    +0.232 C 
ATOM     27  O   UNL     1       0.214   4.782  -0.391  0.00  0.00    -0.274 OA
ATOM     28  H   UNL     1      -0.784   3.760  -3.127  0.00  0.00    +0.149 HD
BRANCH  25  29
ATOM     29  C   UNL     1       0.600   5.365  -2.995  0.00  0.00    +0.070 C 
ATOM     30  C   UNL     1       2.028   4.827  -3.097  0.00  0.00    +0.028 C 
BRANCH  29  32
ATOM     31  C   UNL     1      -1.252   6.473  -4.253  0.00  0.00    +0.005 C 
ATOM     32  C   UNL     1       0.127   5.822  -4.376  0.00  0.00    +0.018 C 
ENDBRANCH  29  32
ENDBRANCH  25  29
ENDBRANCH  20  26
ENDBRANCH   1  24
TORSDOF 6
