REMARK  Name = ZINC27837559
REMARK  2 active torsions:
REMARK  status: ('A' for Active; 'I' for Inactive)
REMARK    1  A    between atoms: C_7  and  C_11
REMARK    2  A    between atoms: C_16  and  C_17
REMARK                            x       y       z     vdW  Elec       q    Type
REMARK                         _______ _______ _______ _____ _____    ______ ____
ROOT
ATOM      1  C   UNL     1       4.378   3.135  -2.280  0.00  0.00    +0.009 C 
ATOM      2  C   UNL     1       3.767   2.842  -1.139  0.00  0.00    -0.061 C 
ATOM      3  C   UNL     1       3.036   3.902  -0.341  0.00  0.00    +0.036 C 
ATOM      4  C   UNL     1       1.557   3.518  -0.280  0.00  0.00    +0.043 C 
ATOM      5  C   UNL     1       1.397   2.070   0.074  0.00  0.00    -0.004 C 
ATOM      6  C   UNL     1       0.196   1.667   0.572  0.00  0.00    +0.017 C 
ATOM      7  C   UNL     1       2.393   1.113  -0.067  0.00  0.00    +0.163 C 
ATOM      8  O   UNL     1       2.141  -0.037   0.235  0.00  0.00    -0.292 OA
ATOM      9  C   UNL     1       3.770   1.435  -0.582  0.00  0.00    +0.110 C 
ENDROOT
BRANCH   1  16
ATOM     10  C   UNL     1       5.568   2.394  -6.741  0.00  0.00    +0.001 A 
ATOM     11  C   UNL     1       6.410   1.302  -6.895  0.00  0.00    +0.002 A 
ATOM     12  C   UNL     1       6.809   0.564  -5.802  0.00  0.00    +0.026 A 
ATOM     13  C   UNL     1       6.365   0.915  -4.531  0.00  0.00    +0.047 A 
ATOM     14  C   UNL     1       5.513   2.022  -4.383  0.00  0.00    +0.007 A 
ATOM     15  C   UNL     1       5.121   2.756  -5.501  0.00  0.00    +0.010 A 
ATOM     16  C   UNL     1       5.230   2.126  -2.941  0.00  0.00    -0.000 A 
ATOM     17  C   UNL     1       5.909   1.117  -2.338  0.00  0.00    +0.091 A 
ATOM     18  N   UNL     1       6.581   0.389  -3.276  0.00  0.00    -0.360 N 
ATOM     19  H   UNL     1       7.223  -0.496  -3.153  0.00  0.00    +0.165 HD
ENDBRANCH   1  16
BRANCH   6  20
ATOM     20  C   UNL     1      -0.899   2.567   0.597  0.00  0.00    +0.000 A 
ATOM     21  C   UNL     1      -1.050   3.709  -0.163  0.00  0.00    +0.091 A 
ATOM     22  N   UNL     1      -2.229   4.301   0.142  0.00  0.00    -0.360 N 
ATOM     23  H   UNL     1      -2.528   5.227  -0.373  0.00  0.00    +0.165 HD
ATOM     24  C   UNL     1      -2.895   3.585   1.116  0.00  0.00    +0.047 A 
ATOM     25  C   UNL     1      -2.103   2.475   1.446  0.00  0.00    +0.007 A 
ATOM     26  C   UNL     1      -2.535   1.570   2.412  0.00  0.00    +0.010 A 
ATOM     27  C   UNL     1      -3.744   1.771   3.042  0.00  0.00    +0.001 A 
ATOM     28  C   UNL     1      -4.529   2.867   2.717  0.00  0.00    +0.002 A 
ATOM     29  C   UNL     1      -4.113   3.770   1.762  0.00  0.00    +0.026 A 
ENDBRANCH   6  20
TORSDOF 2
