REMARK  Name = ZINC33298076
REMARK  10 active torsions:
REMARK  status: ('A' for Active; 'I' for Inactive)
REMARK    1  A    between atoms: C_1  and  C_2
REMARK    2  A    between atoms: C_5  and  C_22
REMARK    3  A    between atoms: C_7  and  S_8
REMARK    4  A    between atoms: S_8  and  N_11
REMARK    5  A    between atoms: N_11  and  C_12
REMARK    6  A    between atoms: C_12  and  C_13
REMARK    7  A    between atoms: C_13  and  N_14
REMARK    8  A    between atoms: C_19  and  C_21
REMARK    9  A    between atoms: C_28  and  C_32
REMARK   10  A    between atoms: C_30  and  C_31
REMARK                            x       y       z     vdW  Elec       q    Type
REMARK                         _______ _______ _______ _____ _____    ______ ____
ROOT
ATOM      1  C   UNL     1      -6.219   3.902  -3.142  0.00  0.00    +0.046 C 
ATOM      2  C   UNL     1      -7.339   4.909  -3.166  0.00  0.00    -0.024 A 
ATOM      3  C   UNL     1      -8.538   4.592  -3.780  0.00  0.00    +0.006 A 
ATOM      4  C   UNL     1      -9.566   5.512  -3.811  0.00  0.00    +0.009 A 
ATOM      5  C   UNL     1      -9.396   6.762  -3.216  0.00  0.00    -0.011 A 
ATOM      6  C   UNL     1      -8.188   7.074  -2.595  0.00  0.00    +0.037 A 
ATOM      7  C   UNL     1      -7.167   6.146  -2.571  0.00  0.00    +0.109 A 
ENDROOT
BRANCH   5   8
ATOM      8  C   UNL     1     -10.495   7.755  -3.246  0.00  0.00    +0.046 A 
ATOM      9  C   UNL     1     -11.004   8.463  -2.152  0.00  0.00    +0.145 A 
ATOM     10  N   UNL     1     -11.967   9.250  -2.567  0.00  0.00    -0.173 NA
ATOM     11  N   UNL     1     -12.136   9.084  -3.946  0.00  0.00    -0.218 N 
ATOM     12  C   UNL     1     -11.223   8.155  -4.374  0.00  0.00    +0.164 A 
ATOM     13  N   UNL     1     -11.163   7.801  -5.661  0.00  0.00    -0.232 NA
ATOM     14  C   UNL     1     -11.975   8.335  -6.545  0.00  0.00    +0.042 A 
ATOM     15  C   UNL     1     -12.923   9.288  -6.147  0.00  0.00    +0.046 A 
ATOM     16  C   UNL     1     -12.993   9.654  -4.844  0.00  0.00    +0.044 A 
ATOM     17  C   UNL     1     -14.002  10.678  -4.391  0.00  0.00    +0.066 C 
ATOM     18  C   UNL     1     -11.889   7.919  -7.991  0.00  0.00    +0.066 C 
ENDBRANCH   5   8
BRANCH   7  19
ATOM     19  S   UNL     1      -5.639   6.538  -1.786  0.00  0.00    +0.059 S 
ATOM     20  O   UNL     1      -5.329   5.446  -0.932  0.00  0.00    -0.153 OA
ATOM     21  O   UNL     1      -5.760   7.870  -1.305  0.00  0.00    -0.153 OA
BRANCH  19  22
ATOM     22  N   UNL     1      -4.476   6.564  -2.964  0.00  0.00    -0.192 NA
ATOM     23  H   UNL     1      -3.778   5.718  -3.049  0.00  0.00    +0.148 HD
BRANCH  22  24
ATOM     24  C   UNL     1      -4.516   7.588  -4.011  0.00  0.00    +0.087 C 
BRANCH  24  25
ATOM     25  C   UNL     1      -3.174   7.621  -4.745  0.00  0.00    -0.061 C 
BRANCH  25  26
ATOM     26  N   UNL     1      -3.214   8.648  -5.794  0.00  0.00    +0.382 N 
ATOM     27  C   UNL     1      -3.248   9.995  -5.211  0.00  0.00    -0.078 C 
ATOM     28  C   UNL     1      -3.435  11.029  -6.323  0.00  0.00    -0.019 C 
ATOM     29  C   UNL     1      -2.280  10.914  -7.321  0.00  0.00    -0.003 C 
ATOM     30  C   UNL     1      -2.236   9.488  -7.878  0.00  0.00    -0.016 C 
ATOM     31  C   UNL     1      -2.084   8.498  -6.720  0.00  0.00    -0.072 C 
ATOM     32  C   UNL     1      -2.061   7.071  -7.270  0.00  0.00    -0.013 C 
ATOM     33  H   UNL     1      -4.141   8.509  -6.370  0.00  0.00    -0.081 HD
ENDBRANCH  25  26
ENDBRANCH  24  25
ENDBRANCH  22  24
ENDBRANCH  19  22
ENDBRANCH   7  19
TORSDOF 6
