REMARK  Name = ZINC38547804
REMARK  7 active torsions:
REMARK  status: ('A' for Active; 'I' for Inactive)
REMARK    1  A    between atoms: C_1  and  C_2
REMARK    2  A    between atoms: C_2  and  C_3
REMARK    3  A    between atoms: C_5  and  C_16
REMARK    4  A    between atoms: C_6  and  N_8
REMARK    5  A    between atoms: C_9  and  C_11
REMARK    6  A    between atoms: C_16  and  C_18
REMARK    7  A    between atoms: C_16  and  N_24
REMARK                            x       y       z     vdW  Elec       q    Type
REMARK                         _______ _______ _______ _____ _____    ______ ____
ROOT
ATOM      1  C   UNL     1      -1.296  -0.734  -0.065  0.00  0.00    -0.008 A 
ATOM      2  C   UNL     1      -2.147  -0.975  -1.091  0.00  0.00    +0.019 A 
ATOM      3  C   UNL     1      -3.447  -1.353  -0.811  0.00  0.00    +0.007 A 
ATOM      4  C   UNL     1      -3.830  -1.471   0.491  0.00  0.00    +0.078 A 
ATOM      5  S   UNL     1      -2.328  -1.049   1.357  0.00  0.00    -0.078 S 
ENDROOT
BRANCH   4   6
ATOM      6  N   UNL     1      -5.074  -1.835   1.012  0.00  0.00    -0.273 N 
ATOM      7  C   UNL     1      -5.254  -1.894   2.346  0.00  0.00    +0.284 C 
ATOM      8  O   UNL     1      -4.332  -1.631   3.097  0.00  0.00    -0.266 OA
ATOM      9  H   UNL     1      -5.808  -2.044   0.414  0.00  0.00    +0.156 HD
BRANCH   7  10
ATOM     10  C   UNL     1      -6.559  -2.276   2.894  0.00  0.00    +0.189 A 
ATOM     11  C   UNL     1      -6.878  -2.369   4.218  0.00  0.00    +0.054 A 
ATOM     12  C   UNL     1      -8.224  -2.762   4.283  0.00  0.00    +0.042 A 
ATOM     13  C   UNL     1      -8.663  -2.889   3.011  0.00  0.00    +0.196 A 
ATOM     14  O   UNL     1      -7.658  -2.590   2.177  0.00  0.00    -0.458 OA
ENDBRANCH   7  10
ENDBRANCH   4   6
BRANCH   1  16
ATOM     15  C   UNL     1       0.239   1.214  -0.113  0.00  0.00    +0.009 C 
ATOM     16  C   UNL     1       0.151  -0.314  -0.112  0.00  0.00    +0.039 C 
ENDBRANCH   1  16
BRANCH   3  17
ATOM     17  C   UNL     1      -4.422  -1.629  -1.927  0.00  0.00    +0.153 C 
BRANCH  17  18
ATOM     18  N   UNL     1      -4.037  -0.862  -3.113  0.00  0.00    -0.318 N 
ATOM     19  C   UNL     1      -5.001  -0.493  -4.045  0.00  0.00    +0.097 A 
ATOM     20  C   UNL     1      -6.330  -0.852  -3.842  0.00  0.00    +0.041 A 
ATOM     21  C   UNL     1      -7.277  -0.479  -4.778  0.00  0.00    +0.005 A 
ATOM     22  C   UNL     1      -6.864   0.243  -5.889  0.00  0.00    +0.018 A 
ATOM     23  C   UNL     1      -5.529   0.565  -6.027  0.00  0.00    +0.084 A 
ATOM     24  N   UNL     1      -4.646   0.201  -5.116  0.00  0.00    -0.350 N 
ATOM     25  H   UNL     1      -3.111  -0.610  -3.249  0.00  0.00    +0.148 HD
ATOM     26  H   UNL     1      -3.715   0.444  -5.235  0.00  0.00    +0.166 HD
ENDBRANCH  17  18
BRANCH  17  27
ATOM     27  C   UNL     1      -4.408  -3.100  -2.254  0.00  0.00    +0.066 A 
ATOM     28  C   UNL     1      -5.590  -3.816  -2.234  0.00  0.00    +0.025 A 
ATOM     29  C   UNL     1      -5.566  -5.169  -2.537  0.00  0.00    +0.003 A 
ATOM     30  C   UNL     1      -4.348  -5.754  -2.849  0.00  0.00    +0.020 A 
ATOM     31  C   UNL     1      -3.207  -4.974  -2.848  0.00  0.00    +0.111 A 
ATOM     32  N   UNL     1      -3.268  -3.689  -2.561  0.00  0.00    -0.258 NA
ENDBRANCH  17  27
ENDBRANCH   3  17
TORSDOF 6
