REMARK  Name = ZINC60130088
REMARK  11 active torsions:
REMARK  status: ('A' for Active; 'I' for Inactive)
REMARK    1  A    between atoms: C_1  and  C_2
REMARK    2  A    between atoms: C_2  and  C_3
REMARK    3  A    between atoms: C_3  and  C_5
REMARK    4  A    between atoms: C_3  and  C_6
REMARK    5  A    between atoms: C_6  and  C_8
REMARK    6  A    between atoms: C_6  and  N_28
REMARK    7  A    between atoms: N_10  and  C_11
REMARK    8  A    between atoms: C_14  and  C_18
REMARK    9  A    between atoms: C_16  and  C_17
REMARK   10  A    between atoms: C_25  and  C_27
REMARK   11  A    between atoms: C_29  and  C_31
REMARK                            x       y       z     vdW  Elec       q    Type
REMARK                         _______ _______ _______ _____ _____    ______ ____
ROOT
ATOM      1  C   UNL     1      -2.553   2.060   4.238  0.00  0.00    +0.238 C 
ATOM      2  O   UNL     1      -2.766   2.970   5.011  0.00  0.00    -0.273 OA
ATOM      3  N   UNL     1      -2.300   2.322   2.941  0.00  0.00    -0.284 N 
ATOM      4  H   UNL     1      -2.223   1.593   2.305  0.00  0.00    +0.155 HD
ENDROOT
BRANCH   3   5
ATOM      5  C   UNL     1      -2.149   3.640   2.513  0.00  0.00    +0.036 A 
ATOM      6  C   UNL     1      -1.816   4.634   3.428  0.00  0.00    +0.024 A 
ATOM      7  C   UNL     1      -1.666   5.936   3.009  0.00  0.00    +0.015 A 
ATOM      8  C   UNL     1      -1.848   6.260   1.661  0.00  0.00    +0.037 A 
ATOM      9  C   UNL     1      -2.182   5.260   0.745  0.00  0.00    +0.018 A 
ATOM     10  C   UNL     1      -2.326   3.958   1.170  0.00  0.00    -0.029 A 
ATOM     11  C   UNL     1      -2.680   2.878   0.181  0.00  0.00    +0.045 C 
BRANCH   8  12
ATOM     12  C   UNL     1      -1.688   7.656   1.208  0.00  0.00    +0.247 C 
ATOM     13  O   UNL     1      -2.379   8.084   0.304  0.00  0.00    -0.270 OA
ATOM     14  N   UNL     1      -0.776   8.455   1.796  0.00  0.00    -0.295 N 
ATOM     15  C   UNL     1       0.157   7.917   2.795  0.00  0.00    +0.108 C 
ATOM     16  C   UNL     1       0.060   8.766   4.067  0.00  0.00    +0.019 C 
ATOM     17  C   UNL     1       0.296  10.236   3.714  0.00  0.00    +0.003 C 
ATOM     18  C   UNL     1      -0.782  10.707   2.736  0.00  0.00    +0.022 C 
ATOM     19  C   UNL     1      -0.691   9.879   1.444  0.00  0.00    +0.073 C 
ATOM     20  C   UNL     1      -1.848  10.247   0.514  0.00  0.00    +0.028 C 
ENDBRANCH   8  12
ENDBRANCH   3   5
BRANCH   1  21
ATOM     21  C   UNL     1      -2.572   0.635   4.729  0.00  0.00    +0.162 C 
BRANCH  21  22
ATOM     22  N   UNL     1      -2.898   0.615   6.158  0.00  0.00    -0.300 N 
ATOM     23  C   UNL     1      -3.459  -0.481   6.706  0.00  0.00    +0.245 C 
ATOM     24  O   UNL     1      -3.694  -1.453   6.015  0.00  0.00    -0.270 OA
ATOM     25  H   UNL     1      -2.710   1.391   6.709  0.00  0.00    +0.150 HD
BRANCH  23  26
ATOM     26  C   UNL     1      -3.787  -0.501   8.147  0.00  0.00    +0.037 A 
ATOM     27  C   UNL     1      -3.523   0.616   8.942  0.00  0.00    +0.013 A 
ATOM     28  C   UNL     1      -3.833   0.591  10.286  0.00  0.00    +0.001 A 
ATOM     29  C   UNL     1      -4.403  -0.538  10.847  0.00  0.00    +0.000 A 
ATOM     30  C   UNL     1      -4.667  -1.649  10.065  0.00  0.00    +0.001 A 
ATOM     31  C   UNL     1      -4.368  -1.635   8.718  0.00  0.00    +0.013 A 
ENDBRANCH  23  26
ENDBRANCH  21  22
BRANCH  21  32
ATOM     32  C   UNL     1      -1.197   0.002   4.511  0.00  0.00    +0.015 C 
ATOM     33  C   UNL     1      -0.145   0.783   5.301  0.00  0.00    +0.010 C 
BRANCH  32  35
ATOM     34  C   UNL     1      -2.139  -2.273   4.085  0.00  0.00    +0.004 C 
ATOM     35  C   UNL     1      -1.222  -1.450   4.993  0.00  0.00    +0.002 C 
ENDBRANCH  32  35
ENDBRANCH  21  32
ENDBRANCH   1  21
TORSDOF 7
