REMARK  Name = ZINC09885119
REMARK  9 active torsions:
REMARK  status: ('A' for Active; 'I' for Inactive)
REMARK    1  A    between atoms: C_1  and  C_2
REMARK    2  A    between atoms: C_6  and  N_8
REMARK    3  A    between atoms: C_9  and  C_30
REMARK    4  A    between atoms: C_12  and  S_13
REMARK    5  A    between atoms: S_13  and  C_14
REMARK    6  A    between atoms: C_14  and  C_15
REMARK    7  A    between atoms: C_15  and  C_17
REMARK    8  A    between atoms: C_19  and  C_23
REMARK    9  A    between atoms: C_30  and  C_31
REMARK                            x       y       z     vdW  Elec       q    Type
REMARK                         _______ _______ _______ _____ _____    ______ ____
ROOT
ATOM      1  N   UNL     1      -5.788  -2.838  -0.171  0.00  0.00    -0.274 N 
ATOM      2  C   UNL     1      -5.397  -4.146  -0.061  0.00  0.00    +0.143 A 
ATOM      3  N   UNL     1      -4.106  -4.151   0.118  0.00  0.00    -0.133 NA
ATOM      4  N   UNL     1      -3.656  -2.948   0.124  0.00  0.00    -0.122 NA
ATOM      5  C   UNL     1      -4.644  -2.099  -0.044  0.00  0.00    +0.197 A 
ENDROOT
BRANCH   1  11
ATOM      6  C   UNL     1      -9.697  -0.367   1.506  0.00  0.00    +0.044 C 
ATOM      7  C   UNL     1      -9.006  -1.156   0.423  0.00  0.00    -0.048 A 
ATOM      8  C   UNL     1      -9.658  -1.407  -0.771  0.00  0.00    +0.003 A 
ATOM      9  C   UNL     1      -9.028  -2.131  -1.766  0.00  0.00    +0.002 A 
ATOM     10  C   UNL     1      -7.745  -2.607  -1.570  0.00  0.00    +0.026 A 
ATOM     11  C   UNL     1      -7.089  -2.356  -0.373  0.00  0.00    +0.050 A 
ATOM     12  C   UNL     1      -7.726  -1.633   0.626  0.00  0.00    +0.029 A 
ENDBRANCH   1  11
BRANCH   5  13
ATOM     13  S   UNL     1      -4.518  -0.343  -0.101  0.00  0.00    -0.078 S 
BRANCH  13  14
ATOM     14  C   UNL     1      -2.735  -0.147   0.138  0.00  0.00    +0.157 C 
BRANCH  14  15
ATOM     15  C   UNL     1      -2.384   1.319   0.124  0.00  0.00    +0.175 C 
ATOM     16  O   UNL     1      -3.254   2.149  -0.032  0.00  0.00    -0.291 OA
BRANCH  15  17
ATOM     17  C   UNL     1      -0.991   1.741   0.300  0.00  0.00    +0.036 A 
ATOM     18  C   UNL     1      -0.509   3.072   0.313  0.00  0.00    +0.043 A 
ATOM     19  C   UNL     1       0.839   3.005   0.496  0.00  0.00    +0.103 A 
ATOM     20  N   UNL     1       1.199   1.679   0.601  0.00  0.00    -0.356 N 
ATOM     21  H   UNL     1       2.102   1.351   0.736  0.00  0.00    +0.165 HD
ATOM     22  C   UNL     1       0.105   0.912   0.487  0.00  0.00    +0.094 A 
BRANCH  19  23
ATOM     23  C   UNL     1       1.754   4.152   0.570  0.00  0.00    +0.263 C 
ATOM     24  O   UNL     1       1.320   5.284   0.464  0.00  0.00    -0.268 OA
ATOM     25  N   UNL     1       3.074   3.950   0.756  0.00  0.00    -0.296 N 
ATOM     26  C   UNL     1       3.728   2.642   0.906  0.00  0.00    +0.108 C 
ATOM     27  C   UNL     1       5.233   2.905   1.119  0.00  0.00    +0.020 C 
ATOM     28  C   UNL     1       5.258   4.363   1.650  0.00  0.00    +0.020 C 
ATOM     29  C   UNL     1       4.099   5.005   0.848  0.00  0.00    +0.108 C 
ENDBRANCH  19  23
ENDBRANCH  15  17
ENDBRANCH  14  15
ENDBRANCH  13  14
ENDBRANCH   5  13
BRANCH   2  30
ATOM     30  C   UNL     1      -6.293  -5.355  -0.133  0.00  0.00    +0.111 C 
BRANCH  30  31
ATOM     31  C   UNL     1      -6.685  -5.775   1.260  0.00  0.00    -0.040 A 
ATOM     32  C   UNL     1      -5.851  -6.596   1.995  0.00  0.00    +0.004 A 
ATOM     33  C   UNL     1      -6.208  -6.977   3.275  0.00  0.00    +0.000 A 
ATOM     34  C   UNL     1      -7.404  -6.545   3.816  0.00  0.00    +0.000 A 
ATOM     35  C   UNL     1      -8.241  -5.727   3.080  0.00  0.00    +0.000 A 
ATOM     36  C   UNL     1      -7.881  -5.342   1.802  0.00  0.00    +0.004 A 
ENDBRANCH  30  31
ENDBRANCH   2  30
TORSDOF 8
