REMARK  Name = ZINC39012221
REMARK  7 active torsions:
REMARK  status: ('A' for Active; 'I' for Inactive)
REMARK    1  A    between atoms: C_1  and  C_2
REMARK    2  A    between atoms: C_4  and  C_8
REMARK    3  A    between atoms: C_12  and  S_16
REMARK    4  A    between atoms: N_14  and  N_15
REMARK    5  A    between atoms: S_16  and  C_17
REMARK    6  A    between atoms: C_17  and  C_18
REMARK    7  A    between atoms: N_20  and  C_21
REMARK                            x       y       z     vdW  Elec       q    Type
REMARK                         _______ _______ _______ _____ _____    ______ ____
ROOT
ATOM      1  C   UNL     1      -0.949  -2.944  -1.254  0.00  0.00    +0.185 C 
ATOM      2  N   UNL     1      -2.433  -2.994  -1.333  0.00  0.00    -0.234 NA
ATOM      3  N   UNL     1      -2.716  -4.159  -2.176  0.00  0.00    -0.228 NA
ATOM      4  C   UNL     1      -1.541  -5.050  -2.085  0.00  0.00    +0.214 C 
ATOM      5  N   UNL     1      -0.569  -4.380  -1.187  0.00  0.00    -0.197 NA
ATOM      6  H   UNL     1      -2.840  -3.104  -0.416  0.00  0.00    +0.143 HD
ATOM      7  H   UNL     1      -3.553  -4.633  -1.869  0.00  0.00    +0.143 HD
ENDROOT
BRANCH   1  11
ATOM      8  C   UNL     1       0.039   1.485   0.036  0.00  0.00    +0.067 C 
ATOM      9  C   UNL     1       0.049  -0.022   0.023  0.00  0.00    +0.058 C 
ATOM     10  C   UNL     1      -1.044  -0.787   0.022  0.00  0.00    +0.029 C 
ATOM     11  C   UNL     1      -0.498  -2.204   0.007  0.00  0.00    +0.186 C 
ATOM     12  N   UNL     1       0.960  -1.997   0.001  0.00  0.00    -0.177 NA
ATOM     13  N   UNL     1       1.167  -0.781   0.004  0.00  0.00    -0.159 NA
ENDBRANCH   1  11
BRANCH   5  14
ATOM     14  N   UNL     1       0.795  -4.580  -1.647  0.00  0.00    -0.264 NA
ATOM     15  H   UNL     1       1.053  -5.555  -1.601  0.00  0.00    +0.137 HD
ATOM     16  H   UNL     1       0.919  -4.217  -2.580  0.00  0.00    +0.137 HD
ENDBRANCH   5  14
BRANCH   4  17
ATOM     17  S   UNL     1      -2.029  -6.654  -1.395  0.00  0.00    -0.115 S 
BRANCH  17  18
ATOM     18  C   UNL     1      -2.735  -6.239   0.224  0.00  0.00    +0.168 C 
BRANCH  18  19
ATOM     19  C   UNL     1      -3.187  -7.501   0.913  0.00  0.00    +0.227 C 
ATOM     20  O   UNL     1      -3.046  -8.575   0.367  0.00  0.00    -0.275 OA
ATOM     21  N   UNL     1      -3.747  -7.436   2.138  0.00  0.00    -0.285 N 
ATOM     22  H   UNL     1      -3.798  -6.587   2.603  0.00  0.00    +0.155 HD
BRANCH  21  23
ATOM     23  C   UNL     1      -4.254  -8.596   2.737  0.00  0.00    +0.034 A 
ATOM     24  C   UNL     1      -5.392  -8.527   3.531  0.00  0.00    +0.026 A 
ATOM     25  C   UNL     1      -5.891  -9.671   4.121  0.00  0.00    +0.040 A 
ATOM     26  C   UNL     1      -5.257 -10.887   3.923  0.00  0.00    +0.124 A 
ATOM     27  C   UNL     1      -4.122 -10.957   3.133  0.00  0.00    +0.040 A 
ATOM     28  C   UNL     1      -3.624  -9.816   2.535  0.00  0.00    +0.026 A 
ATOM     29  F   UNL     1      -5.746 -12.005   4.503  0.00  0.00    -0.205 F 
ENDBRANCH  21  23
ENDBRANCH  18  19
ENDBRANCH  17  18
ENDBRANCH   4  17
TORSDOF 6
