REMARK  Name = ZINC10462801
REMARK  7 active torsions:
REMARK  status: ('A' for Active; 'I' for Inactive)
REMARK    1  A    between atoms: C_4  and  C_7
REMARK    2  A    between atoms: C_7  and  C_8
REMARK    3  A    between atoms: C_8  and  C_9
REMARK    4  A    between atoms: C_15  and  C_17
REMARK    5  A    between atoms: C_20  and  N_23
REMARK    6  A    between atoms: C_24  and  C_26
REMARK    7  A    between atoms: N_31  and  C_33
REMARK                            x       y       z     vdW  Elec       q    Type
REMARK                         _______ _______ _______ _____ _____    ______ ____
ROOT
ATOM      1  C   UNL     1       4.974   3.963  -0.005  0.00  0.00    +0.037 A 
ATOM      2  C   UNL     1       6.120   3.163  -0.022  0.00  0.00    +0.015 A 
ATOM      3  C   UNL     1       7.366   3.747  -0.036  0.00  0.00    +0.024 A 
ATOM      4  C   UNL     1       7.486   5.133  -0.021  0.00  0.00    +0.033 A 
ATOM      5  C   UNL     1       6.348   5.933   0.002  0.00  0.00    +0.024 A 
ATOM      6  C   UNL     1       5.099   5.355   0.010  0.00  0.00    +0.015 A 
ENDROOT
BRANCH   1  13
ATOM      7  C   UNL     1       0.024  -0.037   0.010  0.00  0.00    +0.104 A 
ATOM      8  N   UNL     1       0.001   1.281   0.026  0.00  0.00    -0.145 NA
ATOM      9  N   UNL     1       1.057   1.971   0.021  0.00  0.00    -0.126 NA
ATOM     10  C   UNL     1       2.259   1.411  -0.001  0.00  0.00    +0.188 A 
ATOM     11  S   UNL     1       1.793  -0.318  -0.016  0.00  0.00    -0.035 S 
ATOM     12  N   UNL     1       3.518   1.998  -0.010  0.00  0.00    -0.259 N 
ATOM     13  C   UNL     1       3.637   3.340   0.004  0.00  0.00    +0.250 C 
ATOM     14  O   UNL     1       2.641   4.038   0.025  0.00  0.00    -0.270 OA
ATOM     15  H   UNL     1       4.313   1.441  -0.026  0.00  0.00    +0.157 HD
BRANCH   7  16
ATOM     16  C   UNL     1      -1.113  -1.026   0.012  0.00  0.00    +0.069 C 
BRANCH  16  17
ATOM     17  C   UNL     1      -1.516  -1.343  -1.430  0.00  0.00    +0.042 C 
BRANCH  17  21
ATOM     18  C   UNL     1      -4.740  -4.145  -1.424  0.00  0.00    +0.000 A 
ATOM     19  C   UNL     1      -5.003  -2.788  -1.405  0.00  0.00    +0.000 A 
ATOM     20  C   UNL     1      -3.960  -1.881  -1.406  0.00  0.00    +0.003 A 
ATOM     21  C   UNL     1      -2.653  -2.331  -1.427  0.00  0.00    -0.047 A 
ATOM     22  C   UNL     1      -2.390  -3.688  -1.453  0.00  0.00    +0.003 A 
ATOM     23  C   UNL     1      -3.433  -4.595  -1.446  0.00  0.00    +0.000 A 
ENDBRANCH  17  21
ENDBRANCH  16  17
ENDBRANCH   7  16
ENDBRANCH   1  13
BRANCH   4  24
ATOM     24  N   UNL     1       8.750   5.722  -0.030  0.00  0.00    -0.285 N 
ATOM     25  C   UNL     1       9.772   5.134   0.624  0.00  0.00    +0.222 C 
ATOM     26  O   UNL     1       9.613   4.054   1.151  0.00  0.00    -0.275 OA
ATOM     27  H   UNL     1       8.895   6.554  -0.506  0.00  0.00    +0.155 HD
BRANCH  25  28
ATOM     28  C   UNL     1      11.112   5.819   0.699  0.00  0.00    +0.102 C 
ATOM     29  C   UNL     1      11.710   6.023  -0.713  0.00  0.00    +0.110 C 
ATOM     30  C   UNL     1      12.582   4.806  -0.925  0.00  0.00    +0.221 C 
ATOM     31  O   UNL     1      13.008   4.436  -1.999  0.00  0.00    -0.275 OA
ATOM     32  N   UNL     1      12.817   4.194   0.248  0.00  0.00    -0.271 N 
ATOM     33  C   UNL     1      12.166   4.901   1.357  0.00  0.00    +0.127 C 
BRANCH  32  34
ATOM     34  C   UNL     1      13.584   3.033   0.394  0.00  0.00    +0.036 A 
ATOM     35  C   UNL     1      14.248   2.496  -0.701  0.00  0.00    +0.023 A 
ATOM     36  C   UNL     1      15.010   1.353  -0.552  0.00  0.00    +0.002 A 
ATOM     37  C   UNL     1      15.101   0.737   0.682  0.00  0.00    +0.000 A 
ATOM     38  C   UNL     1      14.436   1.266   1.773  0.00  0.00    +0.002 A 
ATOM     39  C   UNL     1      13.678   2.412   1.633  0.00  0.00    +0.023 A 
ENDBRANCH  32  34
ENDBRANCH  25  28
ENDBRANCH   4  24
TORSDOF 7
