REMARK  Name = ZINC20929439
REMARK  12 active torsions:
REMARK  status: ('A' for Active; 'I' for Inactive)
REMARK    1  A    between atoms: C_1  and  C_2
REMARK    2  A    between atoms: C_5  and  N_9
REMARK    3  A    between atoms: C_7  and  C_8
REMARK    4  A    between atoms: N_13  and  S_25
REMARK    5  A    between atoms: C_15  and  C_16
REMARK    6  A    between atoms: C_15  and  C_17
REMARK    7  A    between atoms: N_19  and  C_20
REMARK    8  A    between atoms: C_20  and  C_21
REMARK    9  A    between atoms: C_21  and  C_22
REMARK   10  A    between atoms: C_22  and  C_23
REMARK   11  A    between atoms: C_22  and  C_24
REMARK   12  A    between atoms: S_25  and  C_28
REMARK                            x       y       z     vdW  Elec       q    Type
REMARK                         _______ _______ _______ _____ _____    ______ ____
ROOT
ATOM      1  N   UNL     1      -2.491   0.972  -0.104  0.00  0.00    -0.255 N 
ATOM      2  C   UNL     1      -2.514  -0.355  -0.234  0.00  0.00    +0.236 C 
ATOM      3  O   UNL     1      -1.461  -0.942  -0.364  0.00  0.00    -0.274 OA
ATOM      4  C   UNL     1      -3.786  -1.158  -0.224  0.00  0.00    +0.205 C 
ATOM      5  N   UNL     1      -4.888  -0.301   0.238  0.00  0.00    -0.165 NA
ATOM      6  C   UNL     1      -4.940   1.073  -0.290  0.00  0.00    +0.145 C 
ATOM      7  C   UNL     1      -3.665   1.799   0.141  0.00  0.00    +0.129 C 
ATOM      8  C   UNL     1      -3.536   3.103  -0.648  0.00  0.00    +0.043 C 
ENDROOT
BRANCH   1  13
ATOM      9  C   UNL     1       2.522   3.590  -0.555  0.00  0.00    +0.044 C 
ATOM     10  C   UNL     1       1.191   2.892  -0.436  0.00  0.00    -0.047 A 
ATOM     11  C   UNL     1       0.938   2.069   0.645  0.00  0.00    +0.005 A 
ATOM     12  C   UNL     1      -0.281   1.428   0.756  0.00  0.00    +0.024 A 
ATOM     13  C   UNL     1      -1.254   1.616  -0.217  0.00  0.00    +0.038 A 
ATOM     14  C   UNL     1      -0.994   2.438  -1.304  0.00  0.00    +0.027 A 
ATOM     15  C   UNL     1       0.227   3.077  -1.410  0.00  0.00    -0.046 A 
ATOM     16  C   UNL     1       0.507   3.974  -2.587  0.00  0.00    +0.044 C 
ENDBRANCH   1  13
BRANCH   7  17
ATOM     17  C   UNL     1      -3.749   2.117   1.612  0.00  0.00    +0.238 C 
ATOM     18  O   UNL     1      -4.831   2.203   2.153  0.00  0.00    -0.273 OA
ATOM     19  N   UNL     1      -2.621   2.305   2.327  0.00  0.00    -0.313 N 
ATOM     20  H   UNL     1      -1.640   2.226   1.836  0.00  0.00    +0.149 HD
BRANCH  19  21
ATOM     21  C   UNL     1      -2.703   2.613   3.756  0.00  0.00    +0.104 C 
BRANCH  21  22
ATOM     22  C   UNL     1      -1.292   2.777   4.324  0.00  0.00    +0.022 C 
BRANCH  22  23
ATOM     23  C   UNL     1      -1.377   3.099   5.818  0.00  0.00    -0.016 C 
ATOM     24  C   UNL     1       0.032   3.140   6.412  0.00  0.00    +0.007 C 
ATOM     25  C   UNL     1      -2.051   4.460   6.008  0.00  0.00    +0.007 C 
ENDBRANCH  22  23
ENDBRANCH  21  22
ENDBRANCH  19  21
ENDBRANCH   7  17
BRANCH   5  26
ATOM     26  S   UNL     1      -6.023  -0.857   1.307  0.00  0.00    +0.061 S 
ATOM     27  O   UNL     1      -5.419  -1.926   2.022  0.00  0.00    -0.153 OA
ATOM     28  O   UNL     1      -6.563   0.285   1.957  0.00  0.00    -0.153 OA
BRANCH  26  29
ATOM     29  C   UNL     1      -7.331  -1.562   0.359  0.00  0.00    +0.105 A 
ATOM     30  C   UNL     1      -8.396  -0.776  -0.040  0.00  0.00    +0.028 A 
ATOM     31  C   UNL     1      -9.420  -1.328  -0.787  0.00  0.00    +0.002 A 
ATOM     32  C   UNL     1      -9.383  -2.667  -1.129  0.00  0.00    +0.000 A 
ATOM     33  C   UNL     1      -8.319  -3.453  -0.726  0.00  0.00    +0.002 A 
ATOM     34  C   UNL     1      -7.293  -2.901   0.018  0.00  0.00    +0.028 A 
ENDBRANCH  26  29
ENDBRANCH   5  26
TORSDOF 7
