REMARK  Name = ZINC37322581
REMARK  6 active torsions:
REMARK  status: ('A' for Active; 'I' for Inactive)
REMARK    1  A    between atoms: C_1  and  C_2
REMARK    2  A    between atoms: C_2  and  O_3
REMARK    3  A    between atoms: O_3  and  C_4
REMARK    4  A    between atoms: C_9  and  C_10
REMARK    5  A    between atoms: C_13  and  N_16
REMARK    6  A    between atoms: C_18  and  C_21
REMARK                            x       y       z     vdW  Elec       q    Type
REMARK                         _______ _______ _______ _____ _____    ______ ____
ROOT
ATOM      1  C   UNL     1      -1.498  -1.848   0.006  0.00  0.00    +0.132 A 
ATOM      2  C   UNL     1      -0.391  -2.682  -0.003  0.00  0.00    +0.053 A 
ATOM      3  C   UNL     1      -0.556  -4.050  -0.007  0.00  0.00    +0.001 A 
ATOM      4  C   UNL     1      -1.825  -4.619   0.004  0.00  0.00    +0.125 A 
ATOM      5  C   UNL     1      -2.938  -3.788   0.009  0.00  0.00    +0.061 A 
ATOM      6  C   UNL     1      -2.781  -2.405   0.016  0.00  0.00    +0.064 A 
ATOM      7  O   UNL     1      -1.754  -5.980   0.020  0.00  0.00    -0.488 OA
ATOM      8  C   UNL     1      -0.451  -6.391  -0.427  0.00  0.00    +0.175 C 
ATOM      9  C   UNL     1       0.442  -5.192  -0.029  0.00  0.00    +0.083 C 
ATOM     10  C   UNL     1      -0.439  -6.601  -1.942  0.00  0.00    +0.052 C 
ENDROOT
BRANCH   6  11
ATOM     11  C   UNL     1      -3.971  -1.524   0.027  0.00  0.00    +0.163 A 
ATOM     12  N   UNL     1      -3.801  -0.208   0.023  0.00  0.00    -0.234 NA
ATOM     13  C   UNL     1      -4.840   0.608   0.034  0.00  0.00    +0.137 A 
ATOM     14  C   UNL     1      -6.125   0.070   0.049  0.00  0.00    +0.061 A 
ATOM     15  C   UNL     1      -6.264  -1.316   0.052  0.00  0.00    +0.137 A 
ATOM     16  N   UNL     1      -5.180  -2.071   0.036  0.00  0.00    -0.234 NA
BRANCH  14  17
ATOM     17  N   UNL     1      -7.248   0.902   0.060  0.00  0.00    -0.356 N 
ATOM     18  H   UNL     1      -7.138   1.866   0.058  0.00  0.00    +0.142 HD
ATOM     19  H   UNL     1      -8.138   0.515   0.070  0.00  0.00    +0.142 HD
ENDBRANCH  14  17
ENDBRANCH   6  11
BRANCH   1  20
ATOM     20  O   UNL     1      -1.339  -0.499   0.012  0.00  0.00    -0.492 OA
BRANCH  20  22
ATOM     21  C   UNL     1      -0.019   1.526   0.010  0.00  0.00    +0.048 C 
ATOM     22  C   UNL     1       0.002  -0.004   0.002  0.00  0.00    +0.226 C 
ENDBRANCH  20  22
ENDBRANCH   1  20
TORSDOF 4
