REMARK  Name = ZINC01642450
REMARK  11 active torsions:
REMARK  status: ('A' for Active; 'I' for Inactive)
REMARK    1  A    between atoms: C_1  and  C_2
REMARK    2  A    between atoms: C_2  and  O_3
REMARK    3  A    between atoms: O_3  and  C_4
REMARK    4  A    between atoms: C_4  and  C_6
REMARK    5  A    between atoms: C_6  and  S_7
REMARK    6  A    between atoms: S_7  and  C_8
REMARK    7  A    between atoms: C_12  and  C_22
REMARK    8  A    between atoms: C_25  and  O_30
REMARK    9  A    between atoms: C_26  and  O_28
REMARK   10  A    between atoms: O_28  and  C_29
REMARK   11  A    between atoms: O_30  and  C_31
REMARK                            x       y       z     vdW  Elec       q    Type
REMARK                         _______ _______ _______ _____ _____    ______ ____
ROOT
ATOM      1  C   UNL     1      -2.919   1.714   5.579  0.00  0.00    +0.192 A 
ATOM      2  N   UNL     1      -2.083   0.686   5.689  0.00  0.00    -0.207 NA
ATOM      3  C   UNL     1      -1.233   0.383   4.716  0.00  0.00    +0.130 A 
ATOM      4  C   UNL     1      -1.235   1.184   3.552  0.00  0.00    +0.067 A 
ATOM      5  C   UNL     1      -0.370   0.943   2.468  0.00  0.00    +0.001 A 
ATOM      6  C   UNL     1      -0.448   1.791   1.357  0.00  0.00    -0.018 A 
ATOM      7  C   UNL     1      -1.359   2.829   1.354  0.00  0.00    +0.047 A 
ATOM      8  N   UNL     1      -2.161   3.035   2.388  0.00  0.00    -0.232 NA
ATOM      9  C   UNL     1      -2.141   2.270   3.475  0.00  0.00    +0.167 A 
ATOM     10  N   UNL     1      -2.960   2.492   4.513  0.00  0.00    -0.202 NA
ATOM     11  C   UNL     1      -1.494   3.773   0.185  0.00  0.00    +0.056 C 
ATOM     12  C   UNL     1      -0.258   3.702  -0.709  0.00  0.00    +0.006 C 
ATOM     13  C   UNL     1       0.006   2.232  -1.054  0.00  0.00    +0.005 C 
ATOM     14  C   UNL     1       0.488   1.521   0.209  0.00  0.00    +0.037 C 
ATOM     15  N   UNL     1      -0.370  -0.685   4.838  0.00  0.00    -0.342 N 
ATOM     16  H   UNL     1      -0.153  -1.224   4.061  0.00  0.00    +0.144 HD
ATOM     17  H   UNL     1       0.020  -0.897   5.700  0.00  0.00    +0.144 HD
ENDROOT
BRANCH   5  18
ATOM     18  C   UNL     1       0.594  -0.180   2.501  0.00  0.00    -0.013 A 
ATOM     19  C   UNL     1       0.364  -1.322   1.732  0.00  0.00    +0.012 A 
ATOM     20  C   UNL     1       1.264  -2.367   1.763  0.00  0.00    +0.050 A 
ATOM     21  C   UNL     1       2.398  -2.286   2.558  0.00  0.00    +0.162 A 
ATOM     22  C   UNL     1       2.633  -1.149   3.328  0.00  0.00    +0.162 A 
ATOM     23  C   UNL     1       1.738  -0.096   3.296  0.00  0.00    +0.058 A 
BRANCH  22  24
ATOM     24  O   UNL     1       3.745  -1.072   4.106  0.00  0.00    -0.491 OA
ATOM     25  C   UNL     1       3.922   0.123   4.870  0.00  0.00    +0.277 C 
ENDBRANCH  22  24
BRANCH  21  26
ATOM     26  O   UNL     1       3.282  -3.318   2.585  0.00  0.00    -0.491 OA
ATOM     27  C   UNL     1       2.979  -4.453   1.771  0.00  0.00    +0.277 C 
ENDBRANCH  21  26
ENDBRANCH   5  18
BRANCH   1  28
ATOM     28  S   UNL     1      -4.018   2.054   6.914  0.00  0.00    -0.075 S 
BRANCH  28  29
ATOM     29  C   UNL     1      -3.544   0.731   8.055  0.00  0.00    +0.197 C 
BRANCH  29  30
ATOM     30  C   UNL     1      -4.378   0.826   9.307  0.00  0.00    +0.317 C 
ATOM     31  O   UNL     1      -5.207   1.697   9.416  0.00  0.00    -0.250 OA
BRANCH  30  32
ATOM     32  O   UNL     1      -4.199  -0.059  10.301  0.00  0.00    -0.464 OA
BRANCH  32  34
ATOM     33  C   UNL     1      -4.692  -0.999  12.493  0.00  0.00    +0.048 C 
ATOM     34  C   UNL     1      -5.037   0.092  11.476  0.00  0.00    +0.229 C 
ENDBRANCH  32  34
ENDBRANCH  30  32
ENDBRANCH  29  30
ENDBRANCH  28  29
ENDBRANCH   1  28
TORSDOF 8
