REMARK  Name = ZINC39669144
REMARK  4 active torsions:
REMARK  status: ('A' for Active; 'I' for Inactive)
REMARK    1  A    between atoms: C_10  and  C_12
REMARK    2  A    between atoms: C_12  and  N_13
REMARK    3  A    between atoms: C_14  and  C_16
REMARK    4  A    between atoms: C_27  and  C_29
REMARK                            x       y       z     vdW  Elec       q    Type
REMARK                         _______ _______ _______ _____ _____    ______ ____
ROOT
ATOM      1  C   UNL     1       8.383  -0.793   1.494  0.00  0.00    +0.100 C 
ATOM      2  C   UNL     1       8.355  -2.250   2.009  0.00  0.00    +0.121 C 
ATOM      3  N   UNL     1       9.652  -2.426   2.705  0.00  0.00    -0.297 N 
ATOM      4  C   UNL     1       9.871  -1.139   3.408  0.00  0.00    +0.115 C 
ATOM      5  C   UNL     1       9.379  -0.068   2.415  0.00  0.00    -0.004 C 
ATOM      6  C   UNL     1      10.550   0.476   1.603  0.00  0.00    -0.010 C 
ATOM      7  C   UNL     1      11.497   1.242   2.531  0.00  0.00    -0.082 C 
ATOM      8  N   UNL     1      10.769   2.342   3.176  0.00  0.00    +0.379 N 
ATOM      9  C   UNL     1       9.702   1.805   4.028  0.00  0.00    -0.082 C 
ATOM     10  C   UNL     1       8.680   1.063   3.163  0.00  0.00    -0.010 C 
ATOM     11  C   UNL     1      10.451  -3.511   2.700  0.00  0.00    +0.260 C 
ATOM     12  O   UNL     1      11.491  -3.502   3.325  0.00  0.00    -0.271 OA
ATOM     13  H   UNL     1      11.409   2.882   3.739  0.00  0.00    -0.086 HD
ATOM     14  H   UNL     1      10.365   2.937   2.468  0.00  0.00    -0.086 HD
ENDROOT
BRANCH  11  15
ATOM     15  C   UNL     1      10.054  -4.736   1.917  0.00  0.00    +0.296 C 
ATOM     16  C   UNL     1       8.787  -5.351   2.527  0.00  0.00    +0.283 C 
ATOM     17  O   UNL     1       8.446  -6.518   1.770  0.00  0.00    -0.484 OA
ATOM     18  C   UNL     1       9.461  -7.378   1.482  0.00  0.00    +0.162 A 
ATOM     19  C   UNL     1       9.164  -8.673   1.084  0.00  0.00    +0.049 A 
ATOM     20  C   UNL     1      10.183  -9.557   0.785  0.00  0.00    +0.004 A 
ATOM     21  C   UNL     1      11.502  -9.153   0.882  0.00  0.00    +0.004 A 
ATOM     22  C   UNL     1      11.805  -7.865   1.280  0.00  0.00    +0.049 A 
ATOM     23  C   UNL     1      10.787  -6.973   1.582  0.00  0.00    +0.163 A 
ATOM     24  O   UNL     1      11.102  -5.710   1.980  0.00  0.00    -0.473 OA
ENDBRANCH  11  15
BRANCH   1  26
ATOM     25  N   UNL     1       6.646   0.802   0.750  0.00  0.00    -0.312 N 
ATOM     26  C   UNL     1       7.016  -0.171   1.606  0.00  0.00    +0.218 C 
ATOM     27  O   UNL     1       6.247  -0.545   2.466  0.00  0.00    -0.275 OA
ATOM     28  H   UNL     1       7.261   1.102   0.061  0.00  0.00    +0.149 HD
BRANCH  25  29
ATOM     29  C   UNL     1       5.317   1.408   0.858  0.00  0.00    +0.140 C 
BRANCH  29  39
ATOM     30  C   UNL     1       1.432   4.492   0.388  0.00  0.00    +0.000 A 
ATOM     31  C   UNL     1       2.257   4.201   1.459  0.00  0.00    +0.000 A 
ATOM     32  C   UNL     1       3.455   3.549   1.248  0.00  0.00    +0.006 A 
ATOM     33  C   UNL     1       3.835   3.182  -0.034  0.00  0.00    -0.014 A 
ATOM     34  C   UNL     1       3.011   3.468  -1.102  0.00  0.00    -0.040 A 
ATOM     35  C   UNL     1       1.809   4.126  -0.889  0.00  0.00    +0.004 A 
ATOM     36  C   UNL     1       3.384   3.074  -2.508  0.00  0.00    +0.063 C 
ATOM     37  C   UNL     1       4.878   2.757  -2.578  0.00  0.00    +0.165 C 
ATOM     38  O   UNL     1       5.203   1.860  -1.510  0.00  0.00    -0.370 OA
ATOM     39  C   UNL     1       5.153   2.477  -0.224  0.00  0.00    +0.165 C 
ENDBRANCH  29  39
ENDBRANCH  25  29
ENDBRANCH   1  26
TORSDOF 4
