REMARK  Name = ZINC63488714
REMARK  11 active torsions:
REMARK  status: ('A' for Active; 'I' for Inactive)
REMARK    1  A    between atoms: C_1  and  C_2
REMARK    2  A    between atoms: C_2  and  C_3
REMARK    3  A    between atoms: C_2  and  C_4
REMARK    4  A    between atoms: C_2  and  O_5
REMARK    5  A    between atoms: O_5  and  C_6
REMARK    6  A    between atoms: C_11  and  C_14
REMARK    7  A    between atoms: C_16  and  C_27
REMARK    8  A    between atoms: N_19  and  C_20
REMARK    9  A    between atoms: N_29  and  C_30
REMARK   10  A    between atoms: C_30  and  C_31
REMARK   11  A    between atoms: C_31  and  C_32
REMARK                            x       y       z     vdW  Elec       q    Type
REMARK                         _______ _______ _______ _____ _____    ______ ____
ROOT
ATOM      1  C   UNL     1       5.342  -3.514  -4.534  0.00  0.00    +0.134 C 
ATOM      2  C   UNL     1       5.287  -4.282  -3.232  0.00  0.00    +0.051 C 
ATOM      3  C   UNL     1       6.507  -4.191  -2.670  0.00  0.00    +0.098 C 
ATOM      4  N   UNL     1       7.359  -3.460  -3.436  0.00  0.00    -0.270 N 
ATOM      5  N   UNL     1       6.723  -3.007  -4.603  0.00  0.00    -0.246 N 
ATOM      6  H   UNL     1       8.284  -3.277  -3.208  0.00  0.00    +0.169 HD
ENDROOT
BRANCH   1  12
ATOM      7  C   UNL     1       1.214  -0.553  -2.558  0.00  0.00    +0.403 C 
ATOM      8  O   UNL     1       1.466   0.096  -1.562  0.00  0.00    -0.226 OA
ATOM      9  N   UNL     1       2.197  -0.872  -3.422  0.00  0.00    -0.267 N 
ATOM     10  C   UNL     1       1.926  -1.737  -4.579  0.00  0.00    +0.111 C 
ATOM     11  C   UNL     1       2.919  -2.903  -4.565  0.00  0.00    +0.025 C 
ATOM     12  C   UNL     1       4.346  -2.352  -4.513  0.00  0.00    +0.019 C 
ATOM     13  C   UNL     1       4.535  -1.542  -3.228  0.00  0.00    +0.025 C 
ATOM     14  C   UNL     1       3.559  -0.356  -3.230  0.00  0.00    +0.111 C 
BRANCH   7  15
ATOM     15  O   UNL     1      -0.050  -0.953  -2.798  0.00  0.00    -0.445 OA
BRANCH  15  17
ATOM     16  C   UNL     1      -1.067   1.006  -1.814  0.00  0.00    +0.055 C 
ATOM     17  C   UNL     1      -1.052  -0.523  -1.875  0.00  0.00    +0.107 C 
ATOM     18  C   UNL     1      -0.744  -1.087  -0.487  0.00  0.00    +0.055 C 
ATOM     19  C   UNL     1      -2.421  -1.028  -2.338  0.00  0.00    +0.055 C 
ENDBRANCH  15  17
ENDBRANCH   7  15
ENDBRANCH   1  12
BRANCH   5  20
ATOM     20  C   UNL     1       7.284  -2.232  -5.622  0.00  0.00    +0.048 A 
ATOM     21  C   UNL     1       6.514  -1.858  -6.716  0.00  0.00    +0.027 A 
ATOM     22  C   UNL     1       7.071  -1.093  -7.722  0.00  0.00    +0.040 A 
ATOM     23  C   UNL     1       8.395  -0.698  -7.641  0.00  0.00    +0.124 A 
ATOM     24  C   UNL     1       9.165  -1.069  -6.551  0.00  0.00    +0.040 A 
ATOM     25  C   UNL     1       8.611  -1.830  -5.540  0.00  0.00    +0.027 A 
ATOM     26  F   UNL     1       8.938   0.050  -8.626  0.00  0.00    -0.205 F 
ENDBRANCH   5  20
BRANCH   2  27
ATOM     27  C   UNL     1       4.166  -4.966  -2.704  0.00  0.00    +0.243 C 
ATOM     28  O   UNL     1       3.828  -6.036  -3.178  0.00  0.00    -0.270 OA
ATOM     29  N   UNL     1       3.473  -4.434  -1.678  0.00  0.00    -0.311 N 
ATOM     30  H   UNL     1       3.693  -3.547  -1.353  0.00  0.00    +0.149 HD
BRANCH  29  31
ATOM     31  C   UNL     1       2.388  -5.195  -1.054  0.00  0.00    +0.109 C 
BRANCH  31  32
ATOM     32  C   UNL     1       1.693  -4.324  -0.005  0.00  0.00    +0.052 C 
BRANCH  32  33
ATOM     33  C   UNL     1       0.659  -5.145   0.722  0.00  0.00    -0.040 C 
ATOM     34  C   UNL     1       0.816  -5.794   1.898  0.00  0.00    -0.001 A 
ATOM     35  C   UNL     1       1.954  -5.928   2.816  0.00  0.00    +0.010 A 
ATOM     36  C   UNL     1       1.805  -6.662   3.942  0.00  0.00    +0.001 A 
ATOM     37  C   UNL     1       0.595  -7.297   4.254  0.00  0.00    +0.002 A 
ATOM     38  C   UNL     1      -0.494  -7.220   3.460  0.00  0.00    +0.026 A 
ATOM     39  C   UNL     1      -0.451  -6.474   2.250  0.00  0.00    +0.043 A 
ATOM     40  N   UNL     1      -1.356  -6.253   1.329  0.00  0.00    -0.380 N 
ATOM     41  C   UNL     1      -0.767  -5.402   0.289  0.00  0.00    +0.144 C 
ATOM     42  H   UNL     1      -2.265  -6.592   1.335  0.00  0.00    +0.160 HD
ENDBRANCH  32  33
ENDBRANCH  31  32
ENDBRANCH  29  31
ENDBRANCH   2  27
TORSDOF 8
