REMARK  Name = ZINC01224012
REMARK  2 active torsions:
REMARK  status: ('A' for Active; 'I' for Inactive)
REMARK    1  A    between atoms: C_1  and  C_2
REMARK    2  A    between atoms: C_6  and  C_14
REMARK                            x       y       z     vdW  Elec       q    Type
REMARK                         _______ _______ _______ _____ _____    ______ ____
ROOT
ATOM      1  C   UNL     1       6.000   3.638  -3.512  0.00  0.00    +0.045 C 
ATOM      2  C   UNL     1       5.276   3.246  -2.249  0.00  0.00    -0.031 A 
ATOM      3  C   UNL     1       3.997   2.786  -2.324  0.00  0.00    +0.014 A 
ATOM      4  C   UNL     1       3.321   2.421  -1.149  0.00  0.00    +0.001 A 
ATOM      5  C   UNL     1       1.999   1.937  -1.185  0.00  0.00    +0.020 A 
ATOM      6  C   UNL     1       1.402   1.604  -0.003  0.00  0.00    +0.028 A 
ATOM      7  C   UNL     1       2.106   1.739   1.194  0.00  0.00    +0.136 A 
ATOM      8  N   UNL     1       3.339   2.186   1.223  0.00  0.00    -0.235 NA
ATOM      9  C   UNL     1       3.978   2.534   0.102  0.00  0.00    +0.074 A 
ATOM     10  C   UNL     1       5.299   3.012   0.139  0.00  0.00    +0.048 A 
ATOM     11  C   UNL     1       5.925   3.359  -1.021  0.00  0.00    +0.046 A 
ATOM     12 CL   UNL     1       7.557   3.949  -0.967  0.00  0.00    -0.083 Cl
ATOM     13 CL   UNL     1       1.329   1.304   2.685  0.00  0.00    -0.062 Cl
ENDROOT
BRANCH   6  14
ATOM     14  C   UNL     1      -0.013   1.086   0.008  0.00  0.00    +0.193 C 
ATOM     15  N   UNL     1      -0.693   1.556   1.221  0.00  0.00    -0.322 N 
ATOM     16  C   UNL     1      -1.106   2.881   1.280  0.00  0.00    +0.041 A 
ATOM     17  C   UNL     1      -1.178   3.576   2.475  0.00  0.00    +0.024 A 
ATOM     18  C   UNL     1      -1.589   4.895   2.475  0.00  0.00    +0.002 A 
ATOM     19  C   UNL     1      -1.931   5.527   1.290  0.00  0.00    +0.001 A 
ATOM     20  C   UNL     1      -1.868   4.848   0.090  0.00  0.00    +0.015 A 
ATOM     21  C   UNL     1      -1.456   3.518   0.076  0.00  0.00    +0.058 A 
ATOM     22  C   UNL     1      -1.374   2.744  -1.176  0.00  0.00    +0.247 C 
ATOM     23  O   UNL     1      -1.895   3.162  -2.193  0.00  0.00    -0.270 OA
ATOM     24  N   UNL     1      -0.714   1.567  -1.182  0.00  0.00    -0.289 N 
ATOM     25  H   UNL     1      -0.849   0.955   1.966  0.00  0.00    +0.148 HD
ATOM     26  H   UNL     1      -0.704   1.030  -1.990  0.00  0.00    +0.151 HD
ENDBRANCH   6  14
TORSDOF 1
