REMARK  Name = ZINC38903677
REMARK  15 active torsions:
REMARK  status: ('A' for Active; 'I' for Inactive)
REMARK    1  A    between atoms: C_1  and  C_2
REMARK    2  A    between atoms: C_5  and  C_8
REMARK    3  A    between atoms: C_8  and  S_9
REMARK    4  A    between atoms: S_9  and  C_10
REMARK    5  A    between atoms: C_10  and  C_11
REMARK    6  A    between atoms: C_11  and  C_12
REMARK    7  A    between atoms: C_12  and  N_13
REMARK    8  A    between atoms: C_14  and  C_16
REMARK    9  A    between atoms: N_21  and  C_23
REMARK   10  A    between atoms: C_23  and  C_24
REMARK   11  A    between atoms: C_26  and  C_29
REMARK   12  A    between atoms: C_32  and  C_35
REMARK   13  A    between atoms: C_35  and  C_36
REMARK   14  A    between atoms: C_35  and  C_37
REMARK   15  A    between atoms: C_35  and  C_38
REMARK                            x       y       z     vdW  Elec       q    Type
REMARK                         _______ _______ _______ _____ _____    ______ ____
ROOT
ATOM      1  C   UNL     1       5.744 -11.377  -0.092  0.00  0.00    +0.058 C 
ATOM      2  C   UNL     1       6.512 -10.937   1.158  0.00  0.00    +0.009 C 
ATOM      3  C   UNL     1       7.877 -11.631   1.177  0.00  0.00    -0.018 C 
ATOM      4  C   UNL     1       7.673 -13.147   1.125  0.00  0.00    -0.078 C 
ATOM      5  N   UNL     1       6.956 -13.506  -0.104  0.00  0.00    +0.386 N 
ATOM      6  C   UNL     1       5.619 -12.902  -0.097  0.00  0.00    -0.065 C 
ATOM      7  H   UNL     1       7.471 -13.169  -0.903  0.00  0.00    -0.081 HD
ENDROOT
BRANCH   1   9
ATOM      8  N   UNL     1       4.233  -9.418  -0.073  0.00  0.00    -0.315 N 
ATOM      9  C   UNL     1       4.369 -10.759  -0.081  0.00  0.00    +0.214 C 
ATOM     10  O   UNL     1       3.386 -11.468  -0.079  0.00  0.00    -0.276 OA
ATOM     11  H   UNL     1       5.020  -8.851  -0.074  0.00  0.00    +0.149 HD
BRANCH   8  12
ATOM     12  C   UNL     1       2.897  -8.818  -0.062  0.00  0.00    +0.105 C 
BRANCH  12  13
ATOM     13  C   UNL     1       3.023  -7.293  -0.054  0.00  0.00    +0.029 C 
BRANCH  13  14
ATOM     14  C   UNL     1       1.628  -6.666  -0.043  0.00  0.00    +0.071 C 
BRANCH  14  15
ATOM     15  S   UNL     1       1.777  -4.858  -0.034  0.00  0.00    -0.156 S 
BRANCH  15  16
ATOM     16  C   UNL     1       0.059  -4.275  -0.021  0.00  0.00    +0.104 C 
BRANCH  16  21
ATOM     17  C   UNL     1      -0.018   1.503   0.010  0.00  0.00    +0.044 C 
ATOM     18  C   UNL     1       0.002  -0.004   0.002  0.00  0.00    -0.050 A 
ATOM     19  C   UNL     1       0.006  -0.689  -1.199  0.00  0.00    +0.003 A 
ATOM     20  C   UNL     1       0.025  -2.071  -1.206  0.00  0.00    +0.005 A 
ATOM     21  C   UNL     1       0.040  -2.768  -0.013  0.00  0.00    -0.038 A 
ATOM     22  C   UNL     1       0.037  -2.084   1.188  0.00  0.00    +0.005 A 
ATOM     23  C   UNL     1       0.023  -0.702   1.195  0.00  0.00    +0.003 A 
ENDBRANCH  16  21
ENDBRANCH  15  16
ENDBRANCH  14  15
ENDBRANCH  13  14
ENDBRANCH  12  13
ENDBRANCH   8  12
ENDBRANCH   1   9
BRANCH   5  24
ATOM     24  C   UNL     1       6.831 -14.968  -0.187  0.00  0.00    +0.022 C 
BRANCH  24  25
ATOM     25  C   UNL     1       8.200 -15.582  -0.328  0.00  0.00    +0.211 A 
ATOM     26  N   UNL     1       8.968 -15.963   0.652  0.00  0.00    -0.193 NA
ATOM     27  C   UNL     1      10.117 -16.466   0.168  0.00  0.00    +0.202 A 
ATOM     28  N   UNL     1      10.082 -16.406  -1.141  0.00  0.00    -0.056 NA
ATOM     29  O   UNL     1       8.829 -15.833  -1.483  0.00  0.00    -0.340 OA
BRANCH  27  30
ATOM     30  C   UNL     1      11.239 -17.001   0.980  0.00  0.00    +0.022 A 
ATOM     31  C   UNL     1      11.151 -17.014   2.370  0.00  0.00    +0.012 A 
ATOM     32  C   UNL     1      12.197 -17.512   3.121  0.00  0.00    +0.005 A 
ATOM     33  C   UNL     1      13.331 -17.997   2.495  0.00  0.00    -0.042 A 
ATOM     34  C   UNL     1      13.423 -17.987   1.115  0.00  0.00    +0.005 A 
ATOM     35  C   UNL     1      12.381 -17.497   0.354  0.00  0.00    +0.012 A 
BRANCH  33  36
ATOM     36  C   UNL     1      14.470 -18.539   3.320  0.00  0.00    -0.013 C 
ATOM     37  C   UNL     1      13.976 -19.719   4.159  0.00  0.00    +0.015 C 
ATOM     38  C   UNL     1      15.593 -19.008   2.392  0.00  0.00    +0.015 C 
ATOM     39  C   UNL     1      14.997 -17.441   4.245  0.00  0.00    +0.015 C 
ENDBRANCH  33  36
ENDBRANCH  27  30
ENDBRANCH  24  25
ENDBRANCH   5  24
TORSDOF 11
