REMARK  Name = ZINC05985973
REMARK  8 active torsions:
REMARK  status: ('A' for Active; 'I' for Inactive)
REMARK    1  A    between atoms: C_1  and  N_2
REMARK    2  A    between atoms: N_2  and  C_3
REMARK    3  A    between atoms: N_2  and  S_4
REMARK    4  A    between atoms: S_4  and  C_7
REMARK    5  A    between atoms: C_10  and  N_13
REMARK    6  A    between atoms: C_16  and  C_19
REMARK    7  A    between atoms: C_19  and  N_20
REMARK    8  A    between atoms: N_23  and  C_24
REMARK                            x       y       z     vdW  Elec       q    Type
REMARK                         _______ _______ _______ _____ _____    ______ ____
ROOT
ATOM      1  N   UNL     1       1.260  -2.072  -0.003  0.00  0.00    -0.330 N 
ATOM      2  C   UNL     1       0.511  -2.616   1.137  0.00  0.00    +0.105 C 
ATOM      3  C   UNL     1       0.425  -4.139   1.012  0.00  0.00    +0.024 C 
ATOM      4  C   UNL     1       1.840  -4.724   0.981  0.00  0.00    +0.009 C 
ATOM      5  C   UNL     1       2.614  -4.105  -0.186  0.00  0.00    +0.024 C 
ATOM      6  C   UNL     1       2.636  -2.583  -0.027  0.00  0.00    +0.105 C 
ENDROOT
BRANCH   1  10
ATOM      7  C   UNL     1       1.215   2.091   0.033  0.00  0.00    +0.106 A 
ATOM      8  C   UNL     1       0.024   1.389   0.043  0.00  0.00    +0.030 A 
ATOM      9  C   UNL     1       0.035   0.008   0.031  0.00  0.00    +0.025 A 
ATOM     10  C   UNL     1       1.245  -0.675   0.009  0.00  0.00    +0.030 A 
ATOM     11  C   UNL     1       2.439   0.034  -0.002  0.00  0.00    +0.025 A 
ATOM     12  C   UNL     1       2.421   1.415   0.010  0.00  0.00    +0.030 A 
BRANCH   7  13
ATOM     13  S   UNL     1       1.196   3.853   0.048  0.00  0.00    +0.060 S 
ATOM     14  O   UNL     1       2.429   4.278  -0.516  0.00  0.00    -0.153 OA
ATOM     15  O   UNL     1      -0.061   4.250  -0.483  0.00  0.00    -0.153 OA
BRANCH  13  17
ATOM     16  C   UNL     1       2.488   4.554   2.318  0.00  0.00    +0.131 C 
ATOM     17  N   UNL     1       1.212   4.330   1.634  0.00  0.00    -0.183 NA
ATOM     18  C   UNL     1      -0.049   4.527   2.352  0.00  0.00    +0.131 C 
ENDBRANCH  13  17
ENDBRANCH   7  13
ENDBRANCH   1  10
BRANCH   4  19
ATOM     19  C   UNL     1       1.763  -6.241   0.797  0.00  0.00    +0.109 C 
BRANCH  19  20
ATOM     20  N   UNL     1       1.127  -6.844   1.971  0.00  0.00    -0.299 N 
ATOM     21  C   UNL     1       0.952  -8.179   2.031  0.00  0.00    +0.304 C 
ATOM     22  O   UNL     1       1.321  -8.883   1.111  0.00  0.00    -0.253 OA
ATOM     23  N   UNL     1       0.367  -8.734   3.111  0.00  0.00    -0.269 N 
ATOM     24  H   UNL     1       0.793  -6.207   2.803  0.00  0.00    +0.150 HD
ATOM     25  H   UNL     1       0.102  -8.108   3.976  0.00  0.00    +0.156 HD
BRANCH  23  26
ATOM     26  C   UNL     1       0.098 -10.107   3.132  0.00  0.00    +0.035 A 
ATOM     27  C   UNL     1      -1.039 -10.583   3.773  0.00  0.00    +0.023 A 
ATOM     28  C   UNL     1      -1.305 -11.938   3.789  0.00  0.00    +0.002 A 
ATOM     29  C   UNL     1      -0.436 -12.822   3.176  0.00  0.00    +0.000 A 
ATOM     30  C   UNL     1       0.700 -12.352   2.542  0.00  0.00    +0.002 A 
ATOM     31  C   UNL     1       0.969 -10.997   2.518  0.00  0.00    +0.023 A 
ENDBRANCH  23  26
ENDBRANCH  19  20
ENDBRANCH   4  19
TORSDOF 6
