REMARK  Name = ZINC15947561
REMARK  7 active torsions:
REMARK  status: ('A' for Active; 'I' for Inactive)
REMARK    1  A    between atoms: C_1  and  C_2
REMARK    2  A    between atoms: C_11  and  O_33
REMARK    3  A    between atoms: C_13  and  C_16
REMARK    4  A    between atoms: C_21  and  O_22
REMARK    5  A    between atoms: O_22  and  C_23
REMARK    6  A    between atoms: C_23  and  C_25
REMARK    7  A    between atoms: C_26  and  C_27
REMARK                            x       y       z     vdW  Elec       q    Type
REMARK                         _______ _______ _______ _____ _____    ______ ____
ROOT
ATOM      1  C   UNL     1      -0.693   1.568  -0.262  0.00  0.00    +0.008 C 
ATOM      2  C   UNL     1      -0.559   0.044  -0.229  0.00  0.00    -0.009 C 
ATOM      3  C   UNL     1       0.169  -0.435  -1.488  0.00  0.00    +0.008 C 
ATOM      4  C   UNL     1       0.090  -1.960  -1.587  0.00  0.00    +0.037 C 
ATOM      5  C   UNL     1       0.570  -2.560  -0.274  0.00  0.00    -0.023 A 
ATOM      6  C   UNL     1       0.627  -1.817   0.855  0.00  0.00    -0.004 A 
ATOM      7  S   UNL     1       1.233  -2.926   2.097  0.00  0.00    -0.078 S 
ATOM      8  C   UNL     1       1.399  -4.298   1.181  0.00  0.00    +0.080 A 
ATOM      9  C   UNL     1       0.998  -3.938  -0.110  0.00  0.00    +0.068 A 
ATOM     10  C   UNL     1       1.058  -4.983  -1.164  0.00  0.00    +0.220 C 
ATOM     11  N   UNL     1       1.236  -6.219  -0.782  0.00  0.00    -0.223 NA
ATOM     12  C   UNL     1       1.315  -6.650   0.608  0.00  0.00    +0.227 C 
ATOM     13  N   UNL     1       1.817  -5.575   1.483  0.00  0.00    -0.313 N 
ATOM     14  C   UNL     1       0.252  -0.375   1.006  0.00  0.00    +0.046 C 
ATOM     15  H   UNL     1       2.408  -5.757   2.230  0.00  0.00    +0.149 HD
ENDROOT
BRANCH  12  16
ATOM     16  C   UNL     1      -0.057  -7.062   1.075  0.00  0.00    +0.038 A 
ATOM     17  C   UNL     1      -0.447  -6.818   2.377  0.00  0.00    +0.026 A 
ATOM     18  C   UNL     1      -1.706  -7.196   2.806  0.00  0.00    +0.018 A 
ATOM     19  C   UNL     1      -2.579  -7.819   1.932  0.00  0.00    +0.019 A 
ATOM     20  C   UNL     1      -2.194  -8.065   0.629  0.00  0.00    +0.048 A 
ATOM     21  C   UNL     1      -0.933  -7.682   0.195  0.00  0.00    +0.139 A 
ATOM     22 BR   UNL     1      -2.237  -6.860   4.590  0.00  0.00    -0.050 Br
BRANCH  21  23
ATOM     23  O   UNL     1      -0.553  -7.918  -1.089  0.00  0.00    -0.422 OA
BRANCH  23  24
ATOM     24  C   UNL     1       0.160  -9.036  -1.343  0.00  0.00    +0.337 C 
ATOM     25  O   UNL     1       0.356  -9.848  -0.458  0.00  0.00    -0.245 OA
BRANCH  24  26
ATOM     26  C   UNL     1       0.680  -9.262  -2.637  0.00  0.00    +0.095 C 
ATOM     27  C   UNL     1       1.398 -10.386  -2.893  0.00  0.00    +0.053 C 
BRANCH  27  28
ATOM     28  C   UNL     1       1.918 -10.613  -4.189  0.00  0.00    +0.128 A 
ATOM     29  C   UNL     1       2.657 -11.709  -4.589  0.00  0.00    +0.049 A 
ATOM     30  C   UNL     1       2.957 -11.514  -5.945  0.00  0.00    +0.042 A 
ATOM     31  C   UNL     1       2.404 -10.336  -6.313  0.00  0.00    +0.195 A 
ATOM     32  O   UNL     1       1.777  -9.800  -5.257  0.00  0.00    -0.464 OA
ENDBRANCH  27  28
ENDBRANCH  24  26
ENDBRANCH  23  24
ENDBRANCH  21  23
ENDBRANCH  12  16
BRANCH  10  33
ATOM     33  O   UNL     1       0.932  -4.666  -2.473  0.00  0.00    -0.492 OA
ATOM     34  H   UNL     1       0.987  -5.426  -3.069  0.00  0.00    +0.294 HD
ENDBRANCH  10  33
TORSDOF 6
