REMARK  Name = ZINC39325273
REMARK  10 active torsions:
REMARK  status: ('A' for Active; 'I' for Inactive)
REMARK    1  A    between atoms: C_1  and  O_2
REMARK    2  A    between atoms: O_2  and  C_3
REMARK    3  A    between atoms: C_6  and  C_9
REMARK    4  A    between atoms: C_9  and  N_10
REMARK    5  A    between atoms: N_10  and  C_11
REMARK    6  A    between atoms: N_10  and  S_26
REMARK    7  A    between atoms: C_11  and  C_12
REMARK    8  A    between atoms: C_17  and  O_24
REMARK    9  A    between atoms: O_24  and  C_25
REMARK   10  A    between atoms: S_26  and  C_29
REMARK                            x       y       z     vdW  Elec       q    Type
REMARK                         _______ _______ _______ _____ _____    ______ ____
ROOT
ATOM      1  N   UNL     1       1.661  -2.849   5.259  0.00  0.00    -0.171 NA
ENDROOT
BRANCH   1   2
ATOM      2  S   UNL     1       1.724  -1.727   6.475  0.00  0.00    +0.061 S 
ATOM      3  O   UNL     1       1.449  -2.422   7.683  0.00  0.00    -0.153 OA
ATOM      4  O   UNL     1       2.918  -0.983   6.280  0.00  0.00    -0.153 OA
BRANCH   2   5
ATOM      5  C   UNL     1       0.386  -0.609   6.221  0.00  0.00    +0.106 A 
ATOM      6  C   UNL     1       0.567   0.519   5.442  0.00  0.00    +0.031 A 
ATOM      7  C   UNL     1      -0.482   1.396   5.242  0.00  0.00    +0.040 A 
ATOM      8  C   UNL     1      -1.714   1.146   5.822  0.00  0.00    +0.124 A 
ATOM      9  C   UNL     1      -1.894   0.016   6.602  0.00  0.00    +0.040 A 
ATOM     10  C   UNL     1      -0.845  -0.863   6.797  0.00  0.00    +0.031 A 
ATOM     11  F   UNL     1      -2.740   2.003   5.628  0.00  0.00    -0.205 F 
ENDBRANCH   2   5
ENDBRANCH   1   2
BRANCH   1  12
ATOM     12  C   UNL     1       2.497  -2.685   4.066  0.00  0.00    +0.144 C 
BRANCH  12  16
ATOM     13  C   UNL     1       0.178  -0.935   0.932  0.00  0.00    +0.120 A 
ATOM     14  C   UNL     1       0.875  -0.124   1.817  0.00  0.00    +0.046 A 
ATOM     15  C   UNL     1       1.623  -0.692   2.829  0.00  0.00    +0.008 A 
ATOM     16  C   UNL     1       1.679  -2.067   2.961  0.00  0.00    -0.031 A 
ATOM     17  C   UNL     1       0.986  -2.877   2.081  0.00  0.00    +0.008 A 
ATOM     18  C   UNL     1       0.231  -2.314   1.070  0.00  0.00    +0.046 A 
BRANCH  13  20
ATOM     19  C   UNL     1      -0.568   1.048  -0.146  0.00  0.00    +0.277 C 
ATOM     20  O   UNL     1      -0.559  -0.378  -0.064  0.00  0.00    -0.495 OA
ENDBRANCH  13  20
ENDBRANCH  12  16
ENDBRANCH   1  12
BRANCH   1  21
ATOM     21  C   UNL     1       0.771  -4.007   5.375  0.00  0.00    +0.126 C 
BRANCH  21  22
ATOM     22  C   UNL     1       1.535  -5.178   5.995  0.00  0.00    +0.114 C 
ATOM     23  C   UNL     1       2.755  -5.445   5.135  0.00  0.00    -0.003 C 
ATOM     24  C   UNL     1       2.882  -6.693   4.601  0.00  0.00    -0.004 A 
ATOM     25  C   UNL     1       4.029  -7.035   3.759  0.00  0.00    +0.055 A 
ATOM     26  C   UNL     1       4.115  -8.294   3.247  0.00  0.00    +0.121 A 
ATOM     27  C   UNL     1       3.132  -9.255   3.512  0.00  0.00    +0.047 A 
ATOM     28  C   UNL     1       2.047  -8.997   4.285  0.00  0.00    +0.027 A 
ATOM     29  C   UNL     1       1.864  -7.726   4.862  0.00  0.00    +0.041 A 
ATOM     30  N   UNL     1       0.794  -7.487   5.620  0.00  0.00    -0.284 N 
ATOM     31  C   UNL     1       0.560  -6.317   6.190  0.00  0.00    +0.225 C 
ATOM     32  O   UNL     1      -0.436  -6.159   6.870  0.00  0.00    -0.275 OA
ATOM     33  H   UNL     1       0.156  -8.204   5.758  0.00  0.00    +0.155 HD
BRANCH  26  34
ATOM     34  O   UNL     1       5.176  -8.623   2.463  0.00  0.00    -0.495 OA
ATOM     35  C   UNL     1       5.215  -9.957   1.952  0.00  0.00    +0.277 C 
ENDBRANCH  26  34
ENDBRANCH  21  22
ENDBRANCH   1  21
TORSDOF 8
