REMARK  Name = ZINC00958103
REMARK  8 active torsions:
REMARK  status: ('A' for Active; 'I' for Inactive)
REMARK    1  A    between atoms: C_1  and  C_2
REMARK    2  A    between atoms: C_5  and  O_8
REMARK    3  A    between atoms: O_8  and  C_9
REMARK    4  A    between atoms: C_15  and  O_33
REMARK    5  A    between atoms: C_16  and  C_24
REMARK    6  A    between atoms: C_19  and  C_20
REMARK    7  A    between atoms: C_24  and  N_25
REMARK    8  A    between atoms: C_30  and  C_32
REMARK                            x       y       z     vdW  Elec       q    Type
REMARK                         _______ _______ _______ _____ _____    ______ ____
ROOT
ATOM      1  C   UNL     1       0.081  -4.686   1.223  0.00  0.00    +0.222 A 
ATOM      2  C   UNL     1       0.141  -6.101   1.373  0.00  0.00    +0.235 A 
ATOM      3  O   UNL     1       0.264  -6.838   0.408  0.00  0.00    -0.283 OA
ATOM      4  C   UNL     1       0.050  -6.638   2.741  0.00  0.00    +0.068 A 
ATOM      5  C   UNL     1       0.099  -8.011   2.989  0.00  0.00    +0.019 A 
ATOM      6  C   UNL     1       0.011  -8.471   4.271  0.00  0.00    +0.046 A 
ATOM      7  C   UNL     1      -0.127  -7.579   5.333  0.00  0.00    +0.122 A 
ATOM      8  C   UNL     1      -0.178  -6.215   5.104  0.00  0.00    +0.020 A 
ATOM      9  C   UNL     1      -0.090  -5.730   3.806  0.00  0.00    +0.144 A 
ATOM     10  O   UNL     1      -0.137  -4.407   3.555  0.00  0.00    -0.447 OA
ATOM     11  C   UNL     1      -0.049  -3.907   2.315  0.00  0.00    +0.254 A 
ENDROOT
BRANCH  11  12
ATOM     12  C   UNL     1      -0.103  -2.412   2.133  0.00  0.00    +0.454 C 
ATOM     13  F   UNL     1      -0.174  -2.111   0.769  0.00  0.00    -0.163 F 
ATOM     14  F   UNL     1      -1.234  -1.905   2.782  0.00  0.00    -0.163 F 
ATOM     15  F   UNL     1       1.047  -1.833   2.680  0.00  0.00    -0.163 F 
ENDBRANCH  11  12
BRANCH   7  16
ATOM     16  O   UNL     1      -0.213  -8.052   6.602  0.00  0.00    -0.506 OA
ATOM     17  H   UNL     1       0.641  -8.143   7.047  0.00  0.00    +0.292 HD
ENDBRANCH   7  16
BRANCH   1  18
ATOM     18  O   UNL     1       0.161  -4.124  -0.014  0.00  0.00    -0.448 OA
BRANCH  18  23
ATOM     19  C   UNL     1      -4.059  -5.069  -3.623  0.00  0.00    +0.044 C 
ATOM     20  C   UNL     1      -2.929  -4.816  -2.658  0.00  0.00    -0.050 A 
ATOM     21  C   UNL     1      -1.804  -4.132  -3.076  0.00  0.00    +0.007 A 
ATOM     22  C   UNL     1      -0.767  -3.899  -2.193  0.00  0.00    +0.046 A 
ATOM     23  C   UNL     1      -0.857  -4.352  -0.885  0.00  0.00    +0.129 A 
ATOM     24  C   UNL     1      -1.988  -5.038  -0.467  0.00  0.00    +0.046 A 
ATOM     25  C   UNL     1      -3.024  -5.265  -1.353  0.00  0.00    +0.007 A 
ENDBRANCH  18  23
ENDBRANCH   1  18
BRANCH   8  26
ATOM     26  C   UNL     1      -0.329  -5.259   6.259  0.00  0.00    -0.035 C 
BRANCH  26  27
ATOM     27  N   UNL     1       1.000  -4.876   6.755  0.00  0.00    +0.384 N 
ATOM     28  C   UNL     1       1.674  -6.059   7.304  0.00  0.00    -0.078 C 
ATOM     29  C   UNL     1       3.090  -5.683   7.748  0.00  0.00    -0.019 C 
ATOM     30  C   UNL     1       3.010  -4.594   8.822  0.00  0.00    -0.003 C 
ATOM     31  C   UNL     1       2.239  -3.395   8.263  0.00  0.00    -0.016 C 
ATOM     32  C   UNL     1       0.855  -3.855   7.800  0.00  0.00    -0.071 C 
ATOM     33  C   UNL     1       0.081  -2.660   7.240  0.00  0.00    -0.013 C 
ATOM     34  H   UNL     1       1.547  -4.502   5.994  0.00  0.00    -0.081 HD
ENDBRANCH  26  27
ENDBRANCH   8  26
TORSDOF 6
