REMARK  Name = ZINC33937120
REMARK  12 active torsions:
REMARK  status: ('A' for Active; 'I' for Inactive)
REMARK    1  A    between atoms: C_1  and  C_2
REMARK    2  A    between atoms: C_2  and  C_3
REMARK    3  A    between atoms: C_3  and  C_5
REMARK    4  A    between atoms: C_3  and  N_17
REMARK    5  A    between atoms: N_9  and  C_10
REMARK    6  A    between atoms: C_10  and  C_11
REMARK    7  A    between atoms: N_17  and  C_18
REMARK    8  A    between atoms: N_17  and  C_28
REMARK    9  A    between atoms: C_18  and  C_19
REMARK   10  A    between atoms: C_28  and  C_29
REMARK   11  A    between atoms: C_33  and  C_42
REMARK   12  A    between atoms: C_35  and  C_41
REMARK                            x       y       z     vdW  Elec       q    Type
REMARK                         _______ _______ _______ _____ _____    ______ ____
ROOT
ATOM      1  N   UNL     1       1.727   0.419  -1.072  0.00  0.00    +0.392 N 
ATOM      2  H   UNL     1       2.139   0.627  -0.175  0.00  0.00    -0.080 HD
ENDROOT
BRANCH   1   3
ATOM      3  C   UNL     1       1.100  -0.908  -1.028  0.00  0.00    +0.003 C 
BRANCH   3   4
ATOM      4  C   UNL     1       0.533  -1.151   0.347  0.00  0.00    +0.138 A 
ATOM      5  N   UNL     1       0.351  -0.256   1.287  0.00  0.00    -0.115 NA
ATOM      6  N   UNL     1      -0.153  -0.852   2.312  0.00  0.00    -0.023 NA
ATOM      7  N   UNL     1      -0.296  -2.105   2.051  0.00  0.00    -0.044 NA
ATOM      8  N   UNL     1       0.111  -2.327   0.847  0.00  0.00    -0.228 N 
BRANCH   8   9
ATOM      9  C   UNL     1       0.115  -3.618   0.154  0.00  0.00    +0.178 C 
BRANCH   9  10
ATOM     10  C   UNL     1       1.443  -4.332   0.414  0.00  0.00    +0.140 C 
ATOM     11  C   UNL     1       1.434  -5.739  -0.235  0.00  0.00    +0.035 C 
ATOM     12  C   UNL     1       2.955  -5.984  -0.429  0.00  0.00    +0.031 C 
ATOM     13  C   UNL     1       3.479  -4.565  -0.735  0.00  0.00    +0.160 C 
ATOM     14  O   UNL     1       2.520  -3.628  -0.226  0.00  0.00    -0.375 OA
ENDBRANCH   9  10
ENDBRANCH   8   9
ENDBRANCH   3   4
BRANCH   3  16
ATOM     15  C   UNL     1       0.572  -0.923  -3.470  0.00  0.00    +0.002 C 
ATOM     16  C   UNL     1      -0.025  -0.976  -2.062  0.00  0.00    -0.011 C 
ENDBRANCH   3  16
ENDBRANCH   1   3
BRANCH   1  17
ATOM     17  C   UNL     1       0.710   1.431  -1.388  0.00  0.00    -0.041 C 
BRANCH  17  18
ATOM     18  C   UNL     1      -0.200   1.617  -0.201  0.00  0.00    -0.060 A 
ATOM     19  C   UNL     1      -1.434   0.995  -0.173  0.00  0.00    +0.005 A 
ATOM     20  C   UNL     1      -2.271   1.162   0.914  0.00  0.00    +0.050 A 
ATOM     21  C   UNL     1      -1.875   1.955   1.979  0.00  0.00    +0.166 A 
ATOM     22  C   UNL     1      -0.632   2.582   1.950  0.00  0.00    +0.166 A 
ATOM     23  C   UNL     1       0.204   2.405   0.860  0.00  0.00    +0.051 A 
ATOM     24  O   UNL     1      -0.478   3.298   3.102  0.00  0.00    -0.453 OA
ATOM     25  C   UNL     1      -1.803   3.434   3.651  0.00  0.00    +0.466 C 
ATOM     26  O   UNL     1      -2.501   2.278   3.148  0.00  0.00    -0.453 OA
ENDBRANCH  17  18
ENDBRANCH   1  17
BRANCH   1  27
ATOM     27  C   UNL     1       2.770   0.434  -2.106  0.00  0.00    -0.036 C 
BRANCH  27  28
ATOM     28  C   UNL     1       3.553   1.719  -2.012  0.00  0.00    +0.001 A 
ATOM     29  C   UNL     1       4.711   1.754  -1.308  0.00  0.00    +0.017 A 
ATOM     30  C   UNL     1       5.447   3.017  -1.236  0.00  0.00    -0.001 A 
ATOM     31  C   UNL     1       6.648   3.116  -0.525  0.00  0.00    +0.013 A 
ATOM     32  C   UNL     1       7.311   4.309  -0.478  0.00  0.00    -0.050 A 
ATOM     33  C   UNL     1       6.804   5.425  -1.129  0.00  0.00    +0.008 A 
ATOM     34  C   UNL     1       5.623   5.352  -1.835  0.00  0.00    -0.026 A 
ATOM     35  C   UNL     1       4.930   4.147  -1.898  0.00  0.00    +0.052 A 
ATOM     36  N   UNL     1       3.747   4.045  -2.598  0.00  0.00    -0.322 N 
ATOM     37  H   UNL     1       3.392   4.824  -3.053  0.00  0.00    +0.169 HD
ATOM     38  C   UNL     1       3.080   2.879  -2.662  0.00  0.00    +0.251 A 
ATOM     39  O   UNL     1       2.039   2.824  -3.294  0.00  0.00    -0.268 OA
ATOM     40  C   UNL     1       5.084   6.572  -2.536  0.00  0.00    +0.046 C 
ATOM     41  C   UNL     1       8.605   4.414   0.288  0.00  0.00    +0.044 C 
ENDBRANCH  27  28
ENDBRANCH   1  27
TORSDOF 9
