REMARK  Name = ZINC60037411
REMARK  8 active torsions:
REMARK  status: ('A' for Active; 'I' for Inactive)
REMARK    1  A    between atoms: C_1  and  C_2
REMARK    2  A    between atoms: C_7  and  N_12
REMARK    3  A    between atoms: C_9  and  C_11
REMARK    4  A    between atoms: C_22  and  S_23
REMARK    5  A    between atoms: S_23  and  C_24
REMARK    6  A    between atoms: C_24  and  C_25
REMARK    7  A    between atoms: C_25  and  C_26
REMARK    8  A    between atoms: C_26  and  N_27
REMARK                            x       y       z     vdW  Elec       q    Type
REMARK                         _______ _______ _______ _____ _____    ______ ____
ROOT
ATOM      1  N   UNL     1       1.473  -2.679   2.286  0.00  0.00    -0.284 N 
ATOM      2  C   UNL     1       1.136  -2.355   3.556  0.00  0.00    +0.263 A 
ATOM      3  O   UNL     1       0.224  -1.585   3.791  0.00  0.00    -0.267 OA
ATOM      4  C   UNL     1       1.913  -2.970   4.641  0.00  0.00    +0.065 A 
ATOM      5  C   UNL     1       1.645  -2.701   5.982  0.00  0.00    +0.015 A 
ATOM      6  C   UNL     1       2.399  -3.301   6.953  0.00  0.00    +0.001 A 
ATOM      7  C   UNL     1       3.428  -4.172   6.617  0.00  0.00    +0.002 A 
ATOM      8  C   UNL     1       3.712  -4.452   5.310  0.00  0.00    +0.028 A 
ATOM      9  C   UNL     1       2.959  -3.855   4.294  0.00  0.00    +0.079 A 
ATOM     10  N   UNL     1       3.205  -4.104   2.993  0.00  0.00    -0.223 NA
ATOM     11  C   UNL     1       2.496  -3.549   2.041  0.00  0.00    +0.172 A 
ENDROOT
BRANCH   1  17
ATOM     12  C   UNL     1       0.789   1.435  -0.370  0.00  0.00    +0.008 C 
ATOM     13  C   UNL     1       0.372  -0.025  -0.187  0.00  0.00    -0.009 C 
ATOM     14  C   UNL     1      -1.128  -0.095   0.104  0.00  0.00    +0.004 C 
ATOM     15  C   UNL     1      -1.545  -1.555   0.287  0.00  0.00    +0.002 C 
ATOM     16  C   UNL     1      -0.770  -2.165   1.457  0.00  0.00    +0.025 C 
ATOM     17  C   UNL     1       0.730  -2.095   1.165  0.00  0.00    +0.096 C 
ATOM     18  C   UNL     1       1.147  -0.635   0.983  0.00  0.00    +0.012 C 
ATOM     19  C   UNL     1       0.840   0.147   2.261  0.00  0.00    +0.010 C 
ENDBRANCH   1  17
BRANCH  11  20
ATOM     20  S   UNL     1       2.885  -3.939   0.367  0.00  0.00    -0.088 S 
BRANCH  20  21
ATOM     21  C   UNL     1       4.272  -5.101   0.498  0.00  0.00    +0.079 C 
BRANCH  21  22
ATOM     22  C   UNL     1       4.715  -5.527  -0.903  0.00  0.00    +0.030 C 
BRANCH  22  23
ATOM     23  C   UNL     1       5.884  -6.507  -0.793  0.00  0.00    +0.108 C 
BRANCH  23  24
ATOM     24  N   UNL     1       6.309  -6.914  -2.135  0.00  0.00    -0.301 N 
ATOM     25  C   UNL     1       5.764  -8.067  -2.861  0.00  0.00    +0.108 C 
ATOM     26  C   UNL     1       6.165  -7.850  -4.337  0.00  0.00    +0.028 C 
ATOM     27  C   UNL     1       7.424  -6.964  -4.196  0.00  0.00    +0.097 C 
ATOM     28  C   UNL     1       7.243  -6.276  -2.861  0.00  0.00    +0.216 C 
ATOM     29  O   UNL     1       7.853  -5.293  -2.497  0.00  0.00    -0.276 OA
ENDBRANCH  23  24
ENDBRANCH  22  23
ENDBRANCH  21  22
ENDBRANCH  20  21
ENDBRANCH  11  20
TORSDOF 6
