REMARK  Name = ZINC63683241
REMARK  6 active torsions:
REMARK  status: ('A' for Active; 'I' for Inactive)
REMARK    1  A    between atoms: C_4  and  C_7
REMARK    2  A    between atoms: C_8  and  C_30
REMARK    3  A    between atoms: C_13  and  C_15
REMARK    4  A    between atoms: C_15  and  S_16
REMARK    5  A    between atoms: S_16  and  C_17
REMARK    6  A    between atoms: C_22  and  C_24
REMARK                            x       y       z     vdW  Elec       q    Type
REMARK                         _______ _______ _______ _____ _____    ______ ____
ROOT
ATOM      1  C   UNL     1       3.683  -0.713  -0.073  0.00  0.00    +0.119 A 
ATOM      2  C   UNL     1       4.006  -1.835   0.661  0.00  0.00    +0.165 A 
ATOM      3  O   UNL     1       5.300  -2.118   0.388  0.00  0.00    -0.424 OA
ATOM      4  C   UNL     1       5.750  -1.201  -0.482  0.00  0.00    +0.295 A 
ATOM      5  N   UNL     1       4.787  -0.362  -0.767  0.00  0.00    -0.195 NA
ATOM      6  N   UNL     1       7.032  -1.154  -1.003  0.00  0.00    -0.239 N 
ATOM      7  C   UNL     1       7.371  -0.182  -1.873  0.00  0.00    +0.231 C 
ATOM      8  O   UNL     1       6.553   0.651  -2.200  0.00  0.00    -0.274 OA
ATOM      9  H   UNL     1       7.687  -1.821  -0.741  0.00  0.00    +0.159 HD
ENDROOT
BRANCH   1  13
ATOM     10  C   UNL     1      -0.082   1.258  -0.154  0.00  0.00    +0.000 A 
ATOM     11  C   UNL     1       0.437   0.812   1.049  0.00  0.00    +0.001 A 
ATOM     12  C   UNL     1       1.659   0.172   1.081  0.00  0.00    +0.010 A 
ATOM     13  C   UNL     1       2.371  -0.026  -0.102  0.00  0.00    +0.004 A 
ATOM     14  C   UNL     1       1.842   0.424  -1.311  0.00  0.00    +0.010 A 
ATOM     15  C   UNL     1       0.620   1.064  -1.331  0.00  0.00    +0.001 A 
ENDBRANCH   1  13
BRANCH   2  16
ATOM     16  C   UNL     1       3.113  -2.580   1.569  0.00  0.00    +0.020 A 
ATOM     17  C   UNL     1       3.548  -2.930   2.850  0.00  0.00    +0.011 A 
ATOM     18  C   UNL     1       2.708  -3.626   3.693  0.00  0.00    +0.001 A 
ATOM     19  C   UNL     1       1.437  -3.979   3.273  0.00  0.00    +0.000 A 
ATOM     20  C   UNL     1       0.999  -3.635   2.006  0.00  0.00    +0.001 A 
ATOM     21  C   UNL     1       1.827  -2.934   1.154  0.00  0.00    +0.011 A 
ENDBRANCH   2  16
BRANCH   7  22
ATOM     22  C   UNL     1       8.766  -0.131  -2.440  0.00  0.00    +0.173 C 
BRANCH  22  23
ATOM     23  S   UNL     1       8.908   1.280  -3.572  0.00  0.00    -0.079 S 
BRANCH  23  24
ATOM     24  C   UNL     1      10.573   1.202  -4.142  0.00  0.00    +0.181 C 
ATOM     25  N   UNL     1      11.329   0.220  -3.685  0.00  0.00    -0.155 NA
ATOM     26  C   UNL     1      12.601   0.077  -4.057  0.00  0.00    +0.244 C 
ATOM     27  O   UNL     1      13.288  -0.831  -3.630  0.00  0.00    -0.273 OA
ATOM     28  C   UNL     1      13.155   1.095  -5.037  0.00  0.00    +0.154 C 
ATOM     29  C   UNL     1      12.191   2.176  -5.490  0.00  0.00    +0.060 C 
ATOM     30  N   UNL     1      10.971   2.139  -5.008  0.00  0.00    -0.228 NA
BRANCH  29  31
ATOM     31  C   UNL     1      12.606   3.220  -6.436  0.00  0.00    -0.003 A 
ATOM     32  C   UNL     1      13.911   3.231  -6.945  0.00  0.00    +0.010 A 
ATOM     33  C   UNL     1      14.292   4.215  -7.832  0.00  0.00    +0.001 A 
ATOM     34  C   UNL     1      13.389   5.189  -8.221  0.00  0.00    +0.000 A 
ATOM     35  C   UNL     1      12.098   5.186  -7.723  0.00  0.00    +0.001 A 
ATOM     36  C   UNL     1      11.698   4.206  -6.840  0.00  0.00    +0.010 A 
ENDBRANCH  29  31
ENDBRANCH  23  24
ENDBRANCH  22  23
ENDBRANCH   7  22
TORSDOF 6
