REMARK  Name = ZINC09795310
REMARK  13 active torsions:
REMARK  status: ('A' for Active; 'I' for Inactive)
REMARK    1  A    between atoms: C_1  and  C_2
REMARK    2  A    between atoms: C_5  and  N_9
REMARK    3  A    between atoms: C_6  and  C_8
REMARK    4  A    between atoms: C_13  and  S_14
REMARK    5  A    between atoms: S_14  and  C_15
REMARK    6  A    between atoms: C_15  and  C_17
REMARK    7  A    between atoms: C_15  and  C_18
REMARK    8  A    between atoms: N_20  and  C_21
REMARK    9  A    between atoms: C_23  and  S_28
REMARK   10  A    between atoms: C_26  and  C_27
REMARK   11  A    between atoms: S_28  and  N_31
REMARK   12  A    between atoms: N_31  and  C_32
REMARK   13  A    between atoms: N_31  and  C_33
REMARK                            x       y       z     vdW  Elec       q    Type
REMARK                         _______ _______ _______ _____ _____    ______ ____
ROOT
ATOM      1  C   UNL     1       0.061  -0.653  -3.582  0.00  0.00    +0.230 C 
ATOM      2  O   UNL     1       0.078  -1.866  -3.590  0.00  0.00    -0.274 OA
ATOM      3  N   UNL     1      -0.033   0.011  -2.413  0.00  0.00    -0.284 N 
ATOM      4  H   UNL     1      -0.127   0.977  -2.410  0.00  0.00    +0.155 HD
ENDROOT
BRANCH   3   5
ATOM      5  C   UNL     1       0.005  -0.692  -1.203  0.00  0.00    +0.038 A 
ATOM      6  C   UNL     1       0.631  -1.930  -1.137  0.00  0.00    +0.052 A 
ATOM      7  C   UNL     1       0.661  -2.624   0.056  0.00  0.00    +0.107 A 
ATOM      8  C   UNL     1       0.074  -2.084   1.187  0.00  0.00    +0.029 A 
ATOM      9  C   UNL     1      -0.545  -0.849   1.125  0.00  0.00    +0.007 A 
ATOM     10  C   UNL     1      -0.579  -0.151  -0.066  0.00  0.00    -0.029 A 
ATOM     11  C   UNL     1      -1.255   1.195  -0.132  0.00  0.00    +0.045 C 
BRANCH   7  12
ATOM     12  S   UNL     1       1.449  -4.198   0.140  0.00  0.00    +0.060 S 
ATOM     13  O   UNL     1       2.395  -4.235  -0.919  0.00  0.00    -0.153 OA
ATOM     14  O   UNL     1       1.817  -4.396   1.498  0.00  0.00    -0.153 OA
BRANCH  12  15
ATOM     15  N   UNL     1       0.301  -5.338  -0.211  0.00  0.00    -0.183 NA
ATOM     16  C   UNL     1       0.088  -5.761  -1.598  0.00  0.00    +0.131 C 
ATOM     17  C   UNL     1      -0.502  -5.925   0.865  0.00  0.00    +0.131 C 
ENDBRANCH  12  15
ENDBRANCH   7  12
ENDBRANCH   3   5
BRANCH   1  18
ATOM     18  C   UNL     1       0.146   0.110  -4.878  0.00  0.00    +0.137 C 
ATOM     19  C   UNL     1       1.602   0.496  -5.149  0.00  0.00    +0.029 C 
BRANCH  18  20
ATOM     20  S   UNL     1      -0.465  -0.926  -6.230  0.00  0.00    -0.075 S 
BRANCH  20  25
ATOM     21  N   UNL     1      -0.755  -0.016  -8.850  0.00  0.00    -0.294 N 
ATOM     22  C   UNL     1      -0.550   1.152  -9.553  0.00  0.00    +0.113 A 
ATOM     23  C   UNL     1      -0.083   2.059  -8.678  0.00  0.00    +0.131 A 
ATOM     24  N   UNL     1      -0.003   1.480  -7.468  0.00  0.00    -0.230 NA
ATOM     25  C   UNL     1      -0.399   0.231  -7.557  0.00  0.00    +0.174 A 
BRANCH  21  30
ATOM     26  C   UNL     1      -2.706  -4.920 -10.938  0.00  0.00    +0.044 C 
ATOM     27  C   UNL     1      -2.188  -3.618 -10.384  0.00  0.00    -0.050 A 
ATOM     28  C   UNL     1      -0.970  -3.122 -10.811  0.00  0.00    +0.005 A 
ATOM     29  C   UNL     1      -0.492  -1.929 -10.304  0.00  0.00    +0.027 A 
ATOM     30  C   UNL     1      -1.237  -1.227  -9.366  0.00  0.00    +0.051 A 
ATOM     31  C   UNL     1      -2.457  -1.730  -8.936  0.00  0.00    -0.026 A 
ATOM     32  C   UNL     1      -2.932  -2.921  -9.449  0.00  0.00    +0.008 A 
ATOM     33  C   UNL     1      -3.266  -0.974  -7.913  0.00  0.00    +0.046 C 
ENDBRANCH  21  30
ENDBRANCH  20  25
ENDBRANCH  18  20
ENDBRANCH   1  18
TORSDOF 7
