REMARK  Name = ZINC06122333
REMARK  9 active torsions:
REMARK  status: ('A' for Active; 'I' for Inactive)
REMARK    1  A    between atoms: C_1  and  C_2
REMARK    2  A    between atoms: C_2  and  C_3
REMARK    3  A    between atoms: C_10  and  N_15
REMARK    4  A    between atoms: C_11  and  C_12
REMARK    5  A    between atoms: C_16  and  C_18
REMARK    6  A    between atoms: C_19  and  O_26
REMARK    7  A    between atoms: C_23  and  O_24
REMARK    8  A    between atoms: O_24  and  C_25
REMARK    9  A    between atoms: O_26  and  C_27
REMARK                            x       y       z     vdW  Elec       q    Type
REMARK                         _______ _______ _______ _____ _____    ______ ____
ROOT
ATOM      1  C   UNL     1       3.891   3.128  -0.397  0.00  0.00    -0.006 C 
ATOM      2  C   UNL     1       4.445   1.963   0.429  0.00  0.00    +0.008 C 
ATOM      3  C   UNL     1       3.805   0.651  -0.029  0.00  0.00    +0.037 C 
ATOM      4  C   UNL     1       2.290   0.813  -0.015  0.00  0.00    -0.023 A 
ATOM      5  C   UNL     1       1.722   2.038  -0.003  0.00  0.00    -0.004 A 
ATOM      6  S   UNL     1      -0.021   1.728   0.011  0.00  0.00    -0.077 S 
ATOM      7  C   UNL     1       0.002  -0.004   0.002  0.00  0.00    +0.085 A 
ATOM      8  C   UNL     1       1.358  -0.302  -0.012  0.00  0.00    +0.068 A 
ATOM      9  C   UNL     1       2.425   3.360  -0.004  0.00  0.00    +0.046 C 
ENDROOT
BRANCH   8  10
ATOM     10  C   UNL     1       1.831  -1.689  -0.025  0.00  0.00    +0.244 C 
ATOM     11  O   UNL     1       2.018  -2.259  -1.084  0.00  0.00    -0.270 OA
ATOM     12  N   UNL     1       2.060  -2.333   1.137  0.00  0.00    -0.325 N 
ATOM     13  H   UNL     1       1.912  -1.879   1.981  0.00  0.00    +0.145 HD
ATOM     14  H   UNL     1       2.374  -3.251   1.128  0.00  0.00    +0.145 HD
ENDBRANCH   8  10
BRANCH   7  15
ATOM     15  N   UNL     1      -1.072  -0.880   0.007  0.00  0.00    -0.275 N 
ATOM     16  C   UNL     1      -2.332  -0.401   0.021  0.00  0.00    +0.256 C 
ATOM     17  O   UNL     1      -2.526   0.800   0.029  0.00  0.00    -0.270 OA
ATOM     18  H   UNL     1      -0.917  -1.837   0.001  0.00  0.00    +0.156 HD
BRANCH  16  19
ATOM     19  C   UNL     1      -3.472  -1.331   0.027  0.00  0.00    +0.120 A 
ATOM     20  C   UNL     1      -4.005  -1.788   1.242  0.00  0.00    +0.136 A 
ATOM     21  C   UNL     1      -5.083  -2.659   1.235  0.00  0.00    +0.046 A 
ATOM     22  C   UNL     1      -5.625  -3.086   0.038  0.00  0.00    +0.007 A 
ATOM     23  C   UNL     1      -5.104  -2.647  -1.165  0.00  0.00    +0.046 A 
ATOM     24  C   UNL     1      -4.031  -1.772  -1.182  0.00  0.00    +0.136 A 
BRANCH  24  25
ATOM     25  O   UNL     1      -3.522  -1.341  -2.364  0.00  0.00    -0.494 OA
ATOM     26  C   UNL     1      -4.142  -1.832  -3.554  0.00  0.00    +0.277 C 
ENDBRANCH  24  25
BRANCH  20  27
ATOM     27  O   UNL     1      -3.471  -1.375   2.418  0.00  0.00    -0.494 OA
ATOM     28  C   UNL     1      -4.065  -1.882   3.614  0.00  0.00    +0.277 C 
ENDBRANCH  20  27
ENDBRANCH  16  19
ENDBRANCH   7  15
BRANCH   1  30
ATOM     29  C   UNL     1       4.220   5.526  -1.016  0.00  0.00    +0.004 C 
ATOM     30  C   UNL     1       4.705   4.391  -0.111  0.00  0.00    +0.000 C 
ENDBRANCH   1  30
TORSDOF 6
