REMARK  Name = ZINC09963343
REMARK  8 active torsions:
REMARK  status: ('A' for Active; 'I' for Inactive)
REMARK    1  A    between atoms: C_3  and  C_30
REMARK    2  A    between atoms: C_4  and  N_8
REMARK    3  A    between atoms: C_9  and  C_11
REMARK    4  A    between atoms: C_11  and  O_12
REMARK    5  A    between atoms: O_12  and  C_13
REMARK    6  A    between atoms: C_13  and  C_15
REMARK    7  A    between atoms: N_18  and  C_21
REMARK    8  A    between atoms: C_24  and  C_26
REMARK                            x       y       z     vdW  Elec       q    Type
REMARK                         _______ _______ _______ _____ _____    ______ ____
ROOT
ATOM      1  C   UNL     1      -5.342   3.743   7.893  0.00  0.00    +0.311 C 
ATOM      2  O   UNL     1      -5.904   4.806   7.774  0.00  0.00    -0.251 OA
ENDROOT
BRANCH   1   3
ATOM      3  C   UNL     1      -4.685   3.100   6.699  0.00  0.00    +0.101 C 
ATOM      4  C   UNL     1      -4.874   3.993   5.469  0.00  0.00    +0.033 C 
ATOM      5  C   UNL     1      -4.154   3.365   4.273  0.00  0.00    +0.107 C 
ATOM      6  N   UNL     1      -2.726   3.220   4.580  0.00  0.00    -0.317 N 
ATOM      7  C   UNL     1      -2.517   2.329   5.729  0.00  0.00    +0.107 C 
ATOM      8  C   UNL     1      -3.188   2.926   6.968  0.00  0.00    +0.033 C 
BRANCH   6   9
ATOM      9  C   UNL     1      -2.020   2.775   3.469  0.00  0.00    +0.099 A 
ATOM     10  C   UNL     1      -0.646   2.575   3.560  0.00  0.00    +0.042 A 
ATOM     11  C   UNL     1       0.044   2.131   2.446  0.00  0.00    +0.017 A 
ATOM     12  C   UNL     1      -0.666   1.901   1.275  0.00  0.00    +0.071 A 
ATOM     13  C   UNL     1      -2.027   2.125   1.254  0.00  0.00    +0.096 A 
ATOM     14  N   UNL     1      -2.739   2.556   2.331  0.00  0.00    -0.349 N 
ATOM     15  H   UNL     1      -3.753   2.706   2.289  0.00  0.00    +0.167 HD
BRANCH  12  16
ATOM     16  C   UNL     1       0.045   1.417   0.037  0.00  0.00    +0.419 C 
ATOM     17  F   UNL     1       0.059   0.018   0.025  0.00  0.00    -0.166 F 
ATOM     18  F   UNL     1       1.359   1.896   0.036  0.00  0.00    -0.166 F 
ATOM     19  F   UNL     1      -0.624   1.887  -1.098  0.00  0.00    -0.166 F 
ENDBRANCH  12  16
ENDBRANCH   6   9
ENDBRANCH   1   3
BRANCH   1  20
ATOM     20  O   UNL     1      -5.302   3.134   9.089  0.00  0.00    -0.455 OA
BRANCH  20  21
ATOM     21  C   UNL     1      -5.956   3.811  10.195  0.00  0.00    +0.328 C 
BRANCH  21  23
ATOM     22  N   UNL     1      -6.341   3.418  12.606  0.00  0.00    -0.282 N 
ATOM     23  C   UNL     1      -5.809   2.984  11.447  0.00  0.00    +0.255 C 
ATOM     24  O   UNL     1      -5.213   1.929  11.410  0.00  0.00    -0.272 OA
ATOM     25  H   UNL     1      -6.761   4.291  12.651  0.00  0.00    +0.155 HD
BRANCH  22  29
ATOM     26  C   UNL     1      -6.182   1.004  16.006  0.00  0.00    +0.021 A 
ATOM     27  C   UNL     1      -7.282   1.808  15.798  0.00  0.00    +0.022 A 
ATOM     28  C   UNL     1      -7.347   2.620  14.664  0.00  0.00    +0.073 A 
ATOM     29  C   UNL     1      -6.288   2.612  13.742  0.00  0.00    +0.052 A 
ATOM     30  C   UNL     1      -5.191   1.793  13.965  0.00  0.00    +0.044 A 
ATOM     31  C   UNL     1      -5.137   0.998  15.095  0.00  0.00    +0.043 A 
ATOM     32 CL   UNL     1      -3.757  -0.018  15.370  0.00  0.00    -0.083 Cl
BRANCH  28  33
ATOM     33  C   UNL     1      -8.488   3.456  14.441  0.00  0.00    +0.101 C 
ATOM     34  N   UNL     1      -9.393   4.120  14.265  0.00  0.00    -0.191 NA
ENDBRANCH  28  33
ENDBRANCH  22  29
ENDBRANCH  21  23
ENDBRANCH  20  21
ENDBRANCH   1  20
TORSDOF 8
