REMARK  Name = ZINC03231900
REMARK  6 active torsions:
REMARK  status: ('A' for Active; 'I' for Inactive)
REMARK    1  A    between atoms: C_1  and  C_2
REMARK    2  A    between atoms: C_5  and  C_9
REMARK    3  A    between atoms: C_6  and  C_8
REMARK    4  A    between atoms: N_11  and  N_12
REMARK    5  A    between atoms: N_12  and  C_13
REMARK    6  A    between atoms: C_13  and  C_15
REMARK                            x       y       z     vdW  Elec       q    Type
REMARK                         _______ _______ _______ _____ _____    ______ ____
ROOT
ATOM      1  N   UNL     1       2.206  -2.671  -0.264  0.00  0.00    -0.264 N 
ATOM      2  H   UNL     1       3.093  -2.289  -0.167  0.00  0.00    +0.170 HD
ENDROOT
BRANCH   1   5
ATOM      3  C   UNL     1       3.124  -4.867  -0.270  0.00  0.00    +0.260 C 
ATOM      4  O   UNL     1       4.235  -4.389  -0.149  0.00  0.00    -0.269 OA
ATOM      5  N   UNL     1       2.046  -4.061  -0.336  0.00  0.00    -0.232 N 
ATOM      6  H   UNL     1       1.160  -4.442  -0.432  0.00  0.00    +0.173 HD
BRANCH   3  11
ATOM      7  C   UNL     1       2.466 -10.577  -0.565  0.00  0.00    +0.044 C 
ATOM      8  C   UNL     1       2.639  -9.082  -0.488  0.00  0.00    -0.050 A 
ATOM      9  C   UNL     1       1.525  -8.262  -0.427  0.00  0.00    +0.004 A 
ATOM     10  C   UNL     1       1.676  -6.893  -0.356  0.00  0.00    +0.013 A 
ATOM     11  C   UNL     1       2.955  -6.334  -0.346  0.00  0.00    +0.041 A 
ATOM     12  C   UNL     1       4.074  -7.166  -0.413  0.00  0.00    -0.038 A 
ATOM     13  C   UNL     1       3.909  -8.534  -0.478  0.00  0.00    +0.007 A 
ATOM     14  C   UNL     1       5.458  -6.571  -0.409  0.00  0.00    +0.044 C 
ENDBRANCH   3  11
ENDBRANCH   1   5
BRANCH   1  15
ATOM     15  C   UNL     1       1.090  -1.835  -0.332  0.00  0.00    +0.046 C 
ATOM     16  C   UNL     1      -0.128  -2.360  -0.465  0.00  0.00    +0.035 C 
BRANCH  15  17
ATOM     17  C   UNL     1       1.260  -0.366  -0.256  0.00  0.00    +0.017 A 
ATOM     18  C   UNL     1       0.642   0.358   0.764  0.00  0.00    +0.013 A 
ATOM     19  C   UNL     1       0.803   1.726   0.831  0.00  0.00    +0.022 A 
ATOM     20  C   UNL     1       1.576   2.383  -0.112  0.00  0.00    +0.061 A 
ATOM     21  C   UNL     1       2.192   1.670  -1.128  0.00  0.00    +0.078 A 
ATOM     22  C   UNL     1       2.038   0.299  -1.204  0.00  0.00    +0.070 A 
ATOM     23 CL   UNL     1       2.810  -0.594  -2.477  0.00  0.00    -0.081 Cl
ATOM     24 CL   UNL     1       3.165   2.500  -2.302  0.00  0.00    -0.081 Cl
ATOM     25 CL   UNL     1       1.774   4.105  -0.021  0.00  0.00    -0.082 Cl
ENDBRANCH  15  17
ENDBRANCH   1  15
TORSDOF 4
