REMARK  Name = ZINC08971869
REMARK  5 active torsions:
REMARK  status: ('A' for Active; 'I' for Inactive)
REMARK    1  A    between atoms: C_1  and  C_2
REMARK    2  A    between atoms: C_5  and  C_8
REMARK    3  A    between atoms: C_8  and  C_10
REMARK    4  A    between atoms: C_30  and  C_38
REMARK    5  A    between atoms: C_32  and  C_37
REMARK                            x       y       z     vdW  Elec       q    Type
REMARK                         _______ _______ _______ _____ _____    ______ ____
ROOT
ATOM      1  C   UNL     1       2.805  -2.272   0.871  0.00  0.00    +0.066 C 
ATOM      2  C   UNL     1       2.857  -2.231  -0.664  0.00  0.00    -0.055 C 
ATOM      3  C   UNL     1       2.501  -3.605  -1.248  0.00  0.00    -0.016 C 
ATOM      4  C   UNL     1       1.332  -3.337  -2.222  0.00  0.00    -0.020 C 
ATOM      5  C   UNL     1       0.703  -2.036  -1.669  0.00  0.00    -0.076 C 
ATOM      6  C   UNL     1       1.456  -0.430   0.011  0.00  0.00    +0.060 C 
ATOM      7  C   UNL     1       1.768  -1.223   1.278  0.00  0.00    +0.085 C 
ATOM      8  C   UNL     1       0.548  -1.923   1.827  0.00  0.00    -0.011 A 
ATOM      9  C   UNL     1      -0.264  -2.926   1.349  0.00  0.00    +0.006 A 
ATOM     10  C   UNL     1      -1.349  -3.357   2.091  0.00  0.00    +0.000 A 
ATOM     11  C   UNL     1      -1.602  -2.795   3.329  0.00  0.00    +0.002 A 
ATOM     12  C   UNL     1      -0.769  -1.817   3.829  0.00  0.00    +0.023 A 
ATOM     13  C   UNL     1       0.331  -1.386   3.091  0.00  0.00    +0.038 A 
ATOM     14  N   UNL     1       1.324  -0.455   3.393  0.00  0.00    -0.285 N 
ATOM     15  C   UNL     1       2.217  -0.319   2.389  0.00  0.00    +0.228 C 
ATOM     16  O   UNL     1       3.168   0.435   2.416  0.00  0.00    -0.275 OA
ATOM     17  C   UNL     1       2.236   0.864  -0.035  0.00  0.00    -0.026 A 
ATOM     18  C   UNL     1       3.582   1.151  -0.077  0.00  0.00    +0.008 A 
ATOM     19  C   UNL     1       4.011   2.466  -0.110  0.00  0.00    -0.050 A 
ATOM     20  C   UNL     1       3.083   3.491  -0.115  0.00  0.00    +0.008 A 
ATOM     21  C   UNL     1       1.732   3.207  -0.090  0.00  0.00    -0.029 A 
ATOM     22  C   UNL     1       1.294   1.885  -0.058  0.00  0.00    +0.039 A 
ATOM     23  N   UNL     1       0.007   1.350  -0.045  0.00  0.00    -0.286 N 
ATOM     24  C   UNL     1       0.017   0.000  -0.035  0.00  0.00    +0.212 C 
ATOM     25  O   UNL     1      -0.973  -0.700  -0.048  0.00  0.00    -0.277 OA
ATOM     26  C   UNL     1       0.733   4.335  -0.099  0.00  0.00    +0.045 C 
ATOM     27  C   UNL     1       5.484   2.779  -0.143  0.00  0.00    +0.044 C 
ATOM     28  H   UNL     1       1.372   0.039   4.225  0.00  0.00    +0.155 HD
ATOM     29  H   UNL     1      -0.807   1.876  -0.047  0.00  0.00    +0.155 HD
ATOM     30  N   UNL     1       1.859  -1.281  -1.129  0.00  0.00    +0.395 N 
ATOM     31  H   UNL     1       2.256  -0.691  -1.870  0.00  0.00    -0.079 HD
ENDROOT
BRANCH   1  32
ATOM     32  C   UNL     1       4.161  -2.018   1.460  0.00  0.00    +0.166 C 
ATOM     33  O   UNL     1       4.991  -1.400   0.828  0.00  0.00    -0.292 OA
BRANCH  32  38
ATOM     34  C   UNL     1       5.420  -3.969   6.719  0.00  0.00    +0.044 C 
ATOM     35  C   UNL     1       5.090  -3.457   5.341  0.00  0.00    -0.050 A 
ATOM     36  C   UNL     1       6.040  -2.753   4.622  0.00  0.00    +0.004 A 
ATOM     37  C   UNL     1       5.746  -2.282   3.360  0.00  0.00    +0.011 A 
ATOM     38  C   UNL     1       4.483  -2.518   2.806  0.00  0.00    +0.018 A 
ATOM     39  C   UNL     1       3.526  -3.225   3.541  0.00  0.00    +0.011 A 
ATOM     40  C   UNL     1       3.838  -3.695   4.800  0.00  0.00    +0.004 A 
ENDBRANCH  32  38
ENDBRANCH   1  32
TORSDOF 2
