REMARK  Name = ZINC41125562
REMARK  6 active torsions:
REMARK  status: ('A' for Active; 'I' for Inactive)
REMARK    1  A    between atoms: C_4  and  C_7
REMARK    2  A    between atoms: C_7  and  C_8
REMARK    3  A    between atoms: C_8  and  C_10
REMARK    4  A    between atoms: C_8  and  N_20
REMARK    5  A    between atoms: N_20  and  S_21
REMARK    6  A    between atoms: S_21  and  C_24
REMARK                            x       y       z     vdW  Elec       q    Type
REMARK                         _______ _______ _______ _____ _____    ______ ____
ROOT
ATOM      1  C   UNL     1       3.599  -1.227   1.085  0.00  0.00    +0.111 C 
ENDROOT
BRANCH   1   2
ATOM      2  C   UNL     1       5.030  -1.662   0.896  0.00  0.00    -0.025 A 
ATOM      3  C   UNL     1       5.353  -3.005   0.935  0.00  0.00    +0.009 A 
ATOM      4  C   UNL     1       6.664  -3.408   0.763  0.00  0.00    +0.050 A 
ATOM      5  C   UNL     1       7.659  -2.464   0.552  0.00  0.00    +0.162 A 
ATOM      6  C   UNL     1       7.333  -1.114   0.510  0.00  0.00    +0.162 A 
ATOM      7  C   UNL     1       6.015  -0.717   0.679  0.00  0.00    +0.054 A 
ATOM      8  O   UNL     1       8.292  -0.172   0.296  0.00  0.00    -0.485 OA
ATOM      9  C   UNL     1       9.650  -0.579   0.498  0.00  0.00    +0.270 C 
ATOM     10  C   UNL     1       9.853  -1.934  -0.194  0.00  0.00    +0.270 C 
ATOM     11  O   UNL     1       8.946  -2.876   0.389  0.00  0.00    -0.485 OA
ENDBRANCH   1   2
BRANCH   1  12
ATOM     12  N   UNL     1       2.978  -2.035   2.137  0.00  0.00    -0.182 NA
ATOM     13  H   UNL     1       2.560  -2.882   1.915  0.00  0.00    +0.149 HD
BRANCH  12  14
ATOM     14  S   UNL     1       2.988  -1.503   3.705  0.00  0.00    +0.060 S 
ATOM     15  O   UNL     1       2.214  -2.430   4.454  0.00  0.00    -0.153 OA
ATOM     16  O   UNL     1       4.341  -1.207   4.024  0.00  0.00    -0.153 OA
BRANCH  14  17
ATOM     17  C   UNL     1       2.116   0.027   3.742  0.00  0.00    +0.127 A 
ATOM     18  C   UNL     1       0.821   0.072   4.224  0.00  0.00    +0.079 A 
ATOM     19  C   UNL     1       0.132   1.275   4.255  0.00  0.00    +0.164 A 
ATOM     20  C   UNL     1       0.747   2.436   3.802  0.00  0.00    +0.164 A 
ATOM     21  C   UNL     1       2.045   2.385   3.317  0.00  0.00    +0.071 A 
ATOM     22  C   UNL     1       2.729   1.183   3.293  0.00  0.00    +0.071 A 
ATOM     23 CL   UNL     1       4.357   1.123   2.693  0.00  0.00    -0.081 Cl
ATOM     24  O   UNL     1       0.091   3.629   3.831  0.00  0.00    -0.485 OA
ATOM     25  C   UNL     1      -1.332   3.577   3.974  0.00  0.00    +0.270 C 
ATOM     26  C   UNL     1      -1.667   2.584   5.095  0.00  0.00    +0.270 C 
ATOM     27  O   UNL     1      -1.144   1.302   4.729  0.00  0.00    -0.485 OA
ENDBRANCH  14  17
ENDBRANCH  12  14
ENDBRANCH   1  12
BRANCH   1  28
ATOM     28  C   UNL     1       2.831  -1.417  -0.225  0.00  0.00    +0.060 C 
BRANCH  28  32
ATOM     29  C   UNL     1      -1.175  -0.015   0.255  0.00  0.00    +0.000 A 
ATOM     30  C   UNL     1      -0.168   0.872  -0.077  0.00  0.00    +0.000 A 
ATOM     31  C   UNL     1       1.129   0.418  -0.232  0.00  0.00    +0.004 A 
ATOM     32  C   UNL     1       1.418  -0.922  -0.055  0.00  0.00    -0.046 A 
ATOM     33  C   UNL     1       0.411  -1.808   0.278  0.00  0.00    +0.004 A 
ATOM     34  C   UNL     1      -0.886  -1.355   0.432  0.00  0.00    +0.000 A 
ENDBRANCH  28  32
ENDBRANCH   1  28
TORSDOF 6
