REMARK  Name = ZINC09692239
REMARK  16 active torsions:
REMARK  status: ('A' for Active; 'I' for Inactive)
REMARK    1  A    between atoms: C_1  and  C_2
REMARK    2  A    between atoms: C_2  and  C_3
REMARK    3  A    between atoms: C_12  and  S_14
REMARK    4  A    between atoms: S_14  and  N_17
REMARK    5  A    between atoms: N_17  and  C_18
REMARK    6  A    between atoms: C_18  and  C_20
REMARK    7  A    between atoms: C_18  and  C_24
REMARK    8  A    between atoms: C_20  and  C_21
REMARK    9  A    between atoms: C_21  and  C_22
REMARK   10  A    between atoms: C_21  and  C_23
REMARK   11  A    between atoms: N_26  and  C_27
REMARK   12  A    between atoms: C_27  and  C_28
REMARK   13  A    between atoms: C_28  and  N_29
REMARK   14  A    between atoms: N_29  and  C_30
REMARK   15  A    between atoms: N_29  and  C_32
REMARK   16  A    between atoms: C_30  and  C_31
REMARK                            x       y       z     vdW  Elec       q    Type
REMARK                         _______ _______ _______ _____ _____    ______ ____
ROOT
ATOM      1  C   UNL     1      -0.347   0.049  -0.189  0.00  0.00    +0.162 C 
ENDROOT
BRANCH   1   2
ATOM      2  C   UNL     1      -1.774  -0.435  -0.183  0.00  0.00    +0.232 C 
ATOM      3  O   UNL     1      -2.125  -1.278   0.615  0.00  0.00    -0.274 OA
ATOM      4  N   UNL     1      -2.660   0.069  -1.065  0.00  0.00    -0.312 N 
ATOM      5  H   UNL     1      -2.379   0.743  -1.703  0.00  0.00    +0.149 HD
BRANCH   4   6
ATOM      6  C   UNL     1      -4.047  -0.402  -1.059  0.00  0.00    +0.123 C 
BRANCH   6   7
ATOM      7  C   UNL     1      -4.837   0.325  -2.150  0.00  0.00    +0.124 C 
BRANCH   7   8
ATOM      8  N   UNL     1      -6.224  -0.146  -2.144  0.00  0.00    -0.329 N 
BRANCH   8   9
ATOM      9  C   UNL     1      -6.594  -1.239  -2.931  0.00  0.00    +0.030 A 
ATOM     10  C   UNL     1      -5.649  -1.878  -3.724  0.00  0.00    +0.023 A 
ATOM     11  C   UNL     1      -6.017  -2.961  -4.497  0.00  0.00    +0.002 A 
ATOM     12  C   UNL     1      -7.327  -3.404  -4.490  0.00  0.00    +0.000 A 
ATOM     13  C   UNL     1      -8.271  -2.768  -3.706  0.00  0.00    +0.002 A 
ATOM     14  C   UNL     1      -7.909  -1.687  -2.927  0.00  0.00    +0.023 A 
ENDBRANCH   8   9
BRANCH   8  15
ATOM     15  C   UNL     1      -7.224   0.529  -1.313  0.00  0.00    +0.102 C 
ATOM     16  C   UNL     1      -7.878   1.655  -2.116  0.00  0.00    +0.024 C 
ENDBRANCH   8  15
ENDBRANCH   7   8
ENDBRANCH   6   7
ENDBRANCH   4   6
ENDBRANCH   1   2
BRANCH   1  17
ATOM     17  N   UNL     1       0.409  -0.646   0.855  0.00  0.00    -0.178 NA
ATOM     18  H   UNL     1       0.410  -0.304   1.763  0.00  0.00    +0.149 HD
BRANCH  17  19
ATOM     19  S   UNL     1       1.263  -2.017   0.486  0.00  0.00    +0.059 S 
ATOM     20  O   UNL     1       1.941  -2.405   1.673  0.00  0.00    -0.153 OA
ATOM     21  O   UNL     1       0.366  -2.882  -0.196  0.00  0.00    -0.153 OA
BRANCH  19  31
ATOM     22  C   UNL     1       6.591  -0.160  -3.481  0.00  0.00    +0.220 C 
ATOM     23  O   UNL     1       7.122  -0.125  -2.391  0.00  0.00    -0.275 OA
ATOM     24  N   UNL     1       5.292  -0.504  -3.587  0.00  0.00    -0.271 N 
ATOM     25  C   UNL     1       4.544  -0.581  -4.845  0.00  0.00    +0.118 C 
ATOM     26  C   UNL     1       3.123  -1.009  -4.443  0.00  0.00    +0.056 C 
ATOM     27  C   UNL     1       3.178  -1.147  -2.938  0.00  0.00    -0.023 A 
ATOM     28  C   UNL     1       4.461  -0.839  -2.514  0.00  0.00    +0.040 A 
ATOM     29  C   UNL     1       4.756  -0.897  -1.151  0.00  0.00    +0.026 A 
ATOM     30  C   UNL     1       3.782  -1.255  -0.243  0.00  0.00    +0.030 A 
ATOM     31  C   UNL     1       2.505  -1.560  -0.677  0.00  0.00    +0.106 A 
ATOM     32  C   UNL     1       2.206  -1.509  -2.026  0.00  0.00    +0.034 A 
BRANCH  22  34
ATOM     33  C   UNL     1       8.819   0.533  -4.320  0.00  0.00    +0.013 C 
ATOM     34  C   UNL     1       7.384   0.181  -4.716  0.00  0.00    +0.093 C 
ENDBRANCH  22  34
ENDBRANCH  19  31
ENDBRANCH  17  19
ENDBRANCH   1  17
BRANCH   1  35
ATOM     35  C   UNL     1      -0.318   1.556   0.078  0.00  0.00    +0.032 C 
BRANCH  35  36
ATOM     36  C   UNL     1       1.111   2.076  -0.087  0.00  0.00    -0.015 C 
ATOM     37  C   UNL     1       1.113   3.603   0.013  0.00  0.00    +0.007 C 
ATOM     38  C   UNL     1       1.997   1.492   1.015  0.00  0.00    +0.007 C 
ENDBRANCH  35  36
ENDBRANCH   1  35
TORSDOF 12
