REMARK  Name = ZINC06813967
REMARK  4 active torsions:
REMARK  status: ('A' for Active; 'I' for Inactive)
REMARK    1  A    between atoms: C_4  and  C_7
REMARK    2  A    between atoms: C_14  and  N_28
REMARK    3  A    between atoms: C_15  and  C_26
REMARK    4  A    between atoms: C_16  and  C_18
REMARK                            x       y       z     vdW  Elec       q    Type
REMARK                         _______ _______ _______ _____ _____    ______ ____
ROOT
ATOM      1  C   UNL     1       3.640  -0.642  -0.070  0.00  0.00    +0.074 A 
ATOM      2  C   UNL     1       3.959  -1.766  -0.756  0.00  0.00    +0.054 A 
ATOM      3  C   UNL     1       5.297  -2.095  -0.459  0.00  0.00    +0.245 A 
ATOM      4  N   UNL     1       5.762  -1.206   0.372  0.00  0.00    -0.135 NA
ATOM      5  N   UNL     1       4.749  -0.271   0.637  0.00  0.00    -0.273 N 
ATOM      6  H   UNL     1       4.822   0.501   1.220  0.00  0.00    +0.189 HD
ATOM      7  O   UNL     1       5.910  -3.180  -1.003  0.00  0.00    -0.421 OA
ATOM      8  C   UNL     1       5.299  -3.783  -2.042  0.00  0.00    +0.201 C 
ATOM      9  C   UNL     1       4.021  -3.558  -2.414  0.00  0.00    +0.098 C 
ATOM     10  C   UNL     1       3.115  -2.593  -1.692  0.00  0.00    +0.102 C 
ENDROOT
BRANCH  10  11
ATOM     11  C   UNL     1       2.082  -3.357  -0.904  0.00  0.00    -0.032 A 
ATOM     12  C   UNL     1       2.478  -4.204   0.115  0.00  0.00    +0.007 A 
ATOM     13  C   UNL     1       1.533  -4.906   0.839  0.00  0.00    +0.041 A 
ATOM     14  C   UNL     1       0.188  -4.761   0.545  0.00  0.00    +0.158 A 
ATOM     15  C   UNL     1      -0.209  -3.911  -0.476  0.00  0.00    +0.159 A 
ATOM     16  C   UNL     1       0.740  -3.206  -1.196  0.00  0.00    +0.046 A 
ATOM     17  F   UNL     1      -1.521  -3.768  -0.765  0.00  0.00    -0.202 F 
ATOM     18  F   UNL     1      -0.737  -5.447   1.252  0.00  0.00    -0.202 F 
ENDBRANCH  10  11
BRANCH   1  22
ATOM     19  C   UNL     1      -0.106   1.361  -0.122  0.00  0.00    +0.000 A 
ATOM     20  C   UNL     1       0.479   0.966  -1.311  0.00  0.00    +0.001 A 
ATOM     21  C   UNL     1       1.696   0.314  -1.301  0.00  0.00    +0.010 A 
ATOM     22  C   UNL     1       2.335   0.056  -0.088  0.00  0.00    +0.000 A 
ATOM     23  C   UNL     1       1.740   0.458   1.107  0.00  0.00    +0.010 A 
ATOM     24  C   UNL     1       0.523   1.108   1.084  0.00  0.00    +0.001 A 
ENDBRANCH   1  22
BRANCH   8  25
ATOM     25  N   UNL     1       6.027  -4.688  -2.774  0.00  0.00    -0.328 N 
ATOM     26  H   UNL     1       6.949  -4.875  -2.536  0.00  0.00    +0.145 HD
ATOM     27  H   UNL     1       5.620  -5.141  -3.529  0.00  0.00    +0.145 HD
ENDBRANCH   8  25
BRANCH   9  28
ATOM     28  C   UNL     1       3.503  -4.267  -3.545  0.00  0.00    +0.101 C 
ATOM     29  N   UNL     1       3.092  -4.829  -4.442  0.00  0.00    -0.191 NA
ENDBRANCH   9  28
TORSDOF 4
