REMARK  Name = ZINC38971105
REMARK  7 active torsions:
REMARK  status: ('A' for Active; 'I' for Inactive)
REMARK    1  A    between atoms: C_1  and  C_2
REMARK    2  A    between atoms: C_2  and  C_3
REMARK    3  A    between atoms: C_3  and  C_4
REMARK    4  A    between atoms: C_4  and  N_5
REMARK    5  A    between atoms: N_5  and  C_6
REMARK    6  A    between atoms: N_9  and  S_10
REMARK    7  A    between atoms: S_10  and  C_13
REMARK                            x       y       z     vdW  Elec       q    Type
REMARK                         _______ _______ _______ _____ _____    ______ ____
ROOT
ATOM      1  C   UNL     1       1.513  -3.996   2.449  0.00  0.00    +0.219 C 
ATOM      2  C   UNL     1       2.941  -4.414   2.717  0.00  0.00    +0.188 C 
ATOM      3  N   UNL     1       3.900  -4.035   1.924  0.00  0.00    -0.110 NA
ATOM      4  N   UNL     1       3.205  -5.182   3.786  0.00  0.00    -0.226 NA
ATOM      5  C   UNL     1       2.253  -5.577   4.604  0.00  0.00    +0.089 A 
ATOM      6  C   UNL     1       2.568  -6.388   5.724  0.00  0.00    +0.030 A 
ATOM      7  C   UNL     1       1.595  -6.797   6.567  0.00  0.00    +0.002 A 
ATOM      8  C   UNL     1       0.244  -6.455   6.391  0.00  0.00    +0.002 A 
ATOM      9  C   UNL     1      -0.166  -5.687   5.357  0.00  0.00    +0.027 A 
ATOM     10  C   UNL     1       0.833  -5.200   4.394  0.00  0.00    +0.063 A 
ATOM     11  N   UNL     1       0.476  -4.457   3.385  0.00  0.00    -0.362 N 
ATOM     12  H   UNL     1      -0.454  -4.213   3.254  0.00  0.00    +0.162 HD
ENDROOT
BRANCH   3  13
ATOM     13  S   UNL     1       5.459  -4.500   2.229  0.00  0.00    +0.102 S 
ATOM     14  O   UNL     1       5.842  -3.868   3.442  0.00  0.00    -0.146 OA
ATOM     15  O   UNL     1       5.503  -5.910   2.058  0.00  0.00    -0.146 OA
BRANCH  13  16
ATOM     16  C   UNL     1       6.467  -3.808   0.960  0.00  0.00    +0.132 A 
ATOM     17  C   UNL     1       7.423  -2.861   1.276  0.00  0.00    +0.050 A 
ATOM     18  C   UNL     1       8.214  -2.317   0.280  0.00  0.00    +0.043 A 
ATOM     19  C   UNL     1       8.048  -2.721  -1.033  0.00  0.00    +0.021 A 
ATOM     20  C   UNL     1       7.093  -3.668  -1.349  0.00  0.00    +0.023 A 
ATOM     21  C   UNL     1       6.305  -4.216  -0.352  0.00  0.00    +0.068 A 
ATOM     22 CL   UNL     1       5.110  -5.411  -0.748  0.00  0.00    -0.082 Cl
ATOM     23 CL   UNL     1       9.414  -1.127   0.677  0.00  0.00    -0.083 Cl
ENDBRANCH  13  16
ENDBRANCH   3  13
BRANCH   1  24
ATOM     24  N   UNL     1       1.473  -2.527   2.423  0.00  0.00    -0.291 NA
ATOM     25  H   UNL     1       2.403  -2.139   2.473  0.00  0.00    +0.124 HD
BRANCH  24  26
ATOM     26  C   UNL     1       0.763  -2.041   1.233  0.00  0.00    +0.083 C 
BRANCH  26  27
ATOM     27  C   UNL     1       0.742  -0.511   1.242  0.00  0.00    +0.015 C 
BRANCH  27  29
ATOM     28  C   UNL     1      -0.019   1.526   0.010  0.00  0.00    +0.004 C 
ATOM     29  C   UNL     1       0.002  -0.004   0.002  0.00  0.00    -0.002 C 
ENDBRANCH  27  29
ENDBRANCH  26  27
ENDBRANCH  24  26
ENDBRANCH   1  24
TORSDOF 6
