REMARK  Name = ZINC02794930
REMARK  4 active torsions:
REMARK  status: ('A' for Active; 'I' for Inactive)
REMARK    1  A    between atoms: C_9  and  C_12
REMARK    2  A    between atoms: C_10  and  O_11
REMARK    3  A    between atoms: N_13  and  N_14
REMARK    4  A    between atoms: C_15  and  C_17
REMARK                            x       y       z     vdW  Elec       q    Type
REMARK                         _______ _______ _______ _____ _____    ______ ____
ROOT
ATOM      1  C   UNL     1       3.623   3.446  -0.014  0.00  0.00    +0.001 A 
ATOM      2  C   UNL     1       2.421   4.152   0.001  0.00  0.00    +0.001 A 
ATOM      3  C   UNL     1       1.226   3.499   0.009  0.00  0.00    +0.012 A 
ATOM      4  C   UNL     1       1.201   2.094   0.002  0.00  0.00    +0.024 A 
ATOM      5  C   UNL     1       2.424   1.376  -0.014  0.00  0.00    -0.014 A 
ATOM      6  C   UNL     1       3.636   2.085  -0.022  0.00  0.00    +0.008 A 
ATOM      7  C   UNL     1       2.406  -0.031  -0.021  0.00  0.00    +0.009 A 
ATOM      8  C   UNL     1       1.225  -0.699  -0.014  0.00  0.00    +0.014 A 
ATOM      9  C   UNL     1       0.002  -0.004   0.002  0.00  0.00    +0.037 A 
ATOM     10  C   UNL     1      -0.017   1.388   0.010  0.00  0.00    +0.133 A 
ENDROOT
BRANCH  10  11
ATOM     11  O   UNL     1      -1.197   2.058   0.019  0.00  0.00    -0.506 OA
ATOM     12  H   UNL     1      -1.535   2.247   0.905  0.00  0.00    +0.292 HD
ENDBRANCH  10  11
BRANCH   9  13
ATOM     13  C   UNL     1      -1.266  -0.753   0.010  0.00  0.00    +0.142 C 
ATOM     14  N   UNL     1      -2.397  -0.115   0.024  0.00  0.00    -0.187 NA
BRANCH  14  15
ATOM     15  N   UNL     1      -3.603  -0.828   0.032  0.00  0.00    -0.200 N 
ATOM     16  C   UNL     1      -4.777  -0.166   0.047  0.00  0.00    +0.299 C 
ATOM     17  O   UNL     1      -4.789   1.051   0.053  0.00  0.00    -0.265 OA
ATOM     18  H   UNL     1      -3.593  -1.798   0.027  0.00  0.00    +0.178 HD
BRANCH  16  19
ATOM     19  C   UNL     1      -6.038  -0.912   0.055  0.00  0.00    +0.192 A 
ATOM     20  C   UNL     1      -7.292  -0.368   0.070  0.00  0.00    +0.056 A 
ATOM     21  C   UNL     1      -8.197  -1.440   0.073  0.00  0.00    +0.058 A 
ATOM     22  C   UNL     1      -7.465  -2.579   0.060  0.00  0.00    +0.171 A 
ATOM     23  O   UNL     1      -6.165  -2.255   0.043  0.00  0.00    -0.444 OA
ATOM     24 BR   UNL     1      -8.163  -4.336   0.057  0.00  0.00    -0.008 Br
ENDBRANCH  16  19
ENDBRANCH  14  15
ENDBRANCH   9  13
TORSDOF 4
