REMARK  Name = ZINC36605516
REMARK  14 active torsions:
REMARK  status: ('A' for Active; 'I' for Inactive)
REMARK    1  A    between atoms: C_1  and  C_2
REMARK    2  A    between atoms: C_2  and  C_3
REMARK    3  A    between atoms: C_3  and  C_4
REMARK    4  A    between atoms: C_5  and  C_6
REMARK    5  A    between atoms: C_6  and  C_8
REMARK    6  A    between atoms: C_6  and  N_22
REMARK    7  A    between atoms: N_10  and  C_11
REMARK    8  A    between atoms: C_11  and  S_12
REMARK    9  A    between atoms: S_12  and  C_15
REMARK   10  A    between atoms: C_18  and  C_21
REMARK   11  A    between atoms: N_22  and  C_23
REMARK   12  A    between atoms: C_29  and  C_31
REMARK   13  A    between atoms: C_31  and  C_32
REMARK   14  A    between atoms: C_37  and  C_38
REMARK                            x       y       z     vdW  Elec       q    Type
REMARK                         _______ _______ _______ _____ _____    ______ ____
ROOT
ATOM      1  C   UNL     1       0.470  -4.191  -2.452  0.00  0.00    +0.190 C 
ENDROOT
BRANCH   1   2
ATOM      2  C   UNL     1       1.114  -4.656  -3.733  0.00  0.00    +0.239 C 
ATOM      3  O   UNL     1       1.949  -5.535  -3.708  0.00  0.00    -0.273 OA
ATOM      4  N   UNL     1       0.761  -4.095  -4.907  0.00  0.00    -0.294 N 
ATOM      5  H   UNL     1       0.093  -3.392  -4.927  0.00  0.00    +0.150 HD
BRANCH   4   6
ATOM      6  C   UNL     1       1.386  -4.547  -6.152  0.00  0.00    +0.278 C 
BRANCH   6   7
ATOM      7  S   UNL     1       0.338  -5.805  -6.933  0.00  0.00    +0.013 S 
ATOM      8  O   UNL     1       0.900  -6.208  -8.174  0.00  0.00    -0.168 OA
ATOM      9  O   UNL     1      -0.066  -6.771  -5.972  0.00  0.00    -0.168 OA
BRANCH   7  10
ATOM     10  C   UNL     1      -1.143  -4.955  -7.365  0.00  0.00    +0.090 A 
ATOM     11  C   UNL     1      -2.191  -4.889  -6.465  0.00  0.00    +0.027 A 
ATOM     12  C   UNL     1      -3.353  -4.222  -6.804  0.00  0.00    +0.005 A 
ATOM     13  C   UNL     1      -3.468  -3.620  -8.043  0.00  0.00    -0.050 A 
ATOM     14  C   UNL     1      -2.421  -3.685  -8.943  0.00  0.00    +0.005 A 
ATOM     15  C   UNL     1      -1.257  -4.348  -8.602  0.00  0.00    +0.027 A 
ATOM     16  C   UNL     1      -4.736  -2.894  -8.413  0.00  0.00    +0.044 C 
ENDBRANCH   7  10
ENDBRANCH   6   7
ENDBRANCH   4   6
ENDBRANCH   1   2
BRANCH   1  17
ATOM     17  N   UNL     1       1.020  -4.950  -1.326  0.00  0.00    -0.256 N 
ATOM     18  C   UNL     1       0.204  -5.695  -0.553  0.00  0.00    +0.225 C 
ATOM     19  O   UNL     1      -0.986  -5.728  -0.784  0.00  0.00    -0.275 OA
BRANCH  17  20
ATOM     20  C   UNL     1       2.391  -4.901  -1.052  0.00  0.00    +0.037 A 
ATOM     21  C   UNL     1       2.858  -5.200   0.221  0.00  0.00    +0.023 A 
ATOM     22  C   UNL     1       4.212  -5.152   0.488  0.00  0.00    +0.002 A 
ATOM     23  C   UNL     1       5.103  -4.807  -0.511  0.00  0.00    +0.000 A 
ATOM     24  C   UNL     1       4.642  -4.509  -1.780  0.00  0.00    +0.002 A 
ATOM     25  C   UNL     1       3.289  -4.560  -2.055  0.00  0.00    +0.023 A 
ENDBRANCH  17  20
BRANCH  18  26
ATOM     26  C   UNL     1       0.771  -6.486   0.597  0.00  0.00    +0.131 C 
BRANCH  26  27
ATOM     27  C   UNL     1      -0.099  -7.689   0.857  0.00  0.00    -0.036 A 
ATOM     28  C   UNL     1      -1.095  -7.628   1.813  0.00  0.00    +0.004 A 
ATOM     29  C   UNL     1      -1.893  -8.731   2.051  0.00  0.00    +0.000 A 
ATOM     30  C   UNL     1      -1.695  -9.895   1.332  0.00  0.00    +0.000 A 
ATOM     31  C   UNL     1      -0.700  -9.956   0.375  0.00  0.00    +0.003 A 
ATOM     32  C   UNL     1       0.095  -8.851   0.134  0.00  0.00    -0.047 A 
ATOM     33  C   UNL     1       1.177  -8.915  -0.913  0.00  0.00    +0.044 C 
ENDBRANCH  26  27
ENDBRANCH  18  26
ENDBRANCH   1  17
BRANCH   1  35
ATOM     34  C   UNL     1       1.398  -2.318  -1.189  0.00  0.00    -0.029 C 
ATOM     35  C   UNL     1       0.750  -2.723  -2.253  0.00  0.00    +0.001 C 
BRANCH  34  36
ATOM     36  C   UNL     1       1.678  -0.851  -0.990  0.00  0.00    +0.027 C 
BRANCH  36  38
ATOM     37  C   UNL     1       1.417   1.082   0.571  0.00  0.00    +0.004 C 
ATOM     38  C   UNL     1       1.133  -0.407   0.369  0.00  0.00    +0.001 C 
ENDBRANCH  36  38
ENDBRANCH  34  36
ENDBRANCH   1  35
TORSDOF 11
