REMARK  Name = ZINC20190928
REMARK  13 active torsions:
REMARK  status: ('A' for Active; 'I' for Inactive)
REMARK    1  A    between atoms: C_1  and  C_2
REMARK    2  A    between atoms: C_2  and  S_3
REMARK    3  A    between atoms: S_3  and  C_4
REMARK    4  A    between atoms: C_4  and  C_5
REMARK    5  A    between atoms: C_5  and  O_6
REMARK    6  A    between atoms: O_6  and  C_7
REMARK    7  A    between atoms: C_7  and  C_9
REMARK    8  A    between atoms: C_10  and  C_39
REMARK    9  A    between atoms: C_14  and  C_16
REMARK   10  A    between atoms: C_29  and  C_35
REMARK   11  A    between atoms: C_31  and  C_34
REMARK   12  A    between atoms: C_35  and  O_37
REMARK   13  A    between atoms: O_37  and  C_38
REMARK                            x       y       z     vdW  Elec       q    Type
REMARK                         _______ _______ _______ _____ _____    ______ ____
ROOT
ATOM      1  C   UNL     1      -5.875   3.220   1.351  0.00  0.00    +0.065 C 
ATOM      2  C   UNL     1      -6.798   2.253   1.210  0.00  0.00    +0.016 C 
ATOM      3  N   UNL     1      -7.050   1.710  -0.019  0.00  0.00    -0.321 N 
ATOM      4  C   UNL     1      -6.690   2.373  -1.161  0.00  0.00    +0.016 C 
ATOM      5  C   UNL     1      -5.763   3.351  -1.122  0.00  0.00    +0.025 C 
ATOM      6  C   UNL     1      -5.092   3.726   0.176  0.00  0.00    +0.099 C 
ATOM      7  C   UNL     1      -5.396   4.051  -2.285  0.00  0.00    +0.176 C 
ATOM      8  O   UNL     1      -4.553   4.924  -2.216  0.00  0.00    -0.291 OA
ATOM      9  C   UNL     1      -6.029   3.740  -3.614  0.00  0.00    +0.171 C 
ATOM     10  C   UNL     1      -7.443   3.200  -3.379  0.00  0.00    +0.013 C 
ATOM     11  C   UNL     1      -7.350   1.979  -2.460  0.00  0.00    +0.055 C 
ATOM     12  C   UNL     1      -8.066   2.790  -4.715  0.00  0.00    +0.009 C 
ATOM     13  C   UNL     1      -7.560   1.764   2.415  0.00  0.00    +0.061 C 
ATOM     14  H   UNL     1      -7.547   0.732  -0.096  0.00  0.00    +0.152 HD
ENDROOT
BRANCH   6  15
ATOM     15  C   UNL     1      -3.709   3.128   0.208  0.00  0.00    +0.047 A 
ATOM     16  C   UNL     1      -3.547   1.794   0.143  0.00  0.00    +0.204 A 
ATOM     17  O   UNL     1      -2.345   1.208   0.167  0.00  0.00    -0.462 OA
ATOM     18  C   UNL     1      -1.198   1.912   0.254  0.00  0.00    +0.138 A 
ATOM     19  C   UNL     1       0.035   1.271   0.282  0.00  0.00    +0.047 A 
ATOM     20  C   UNL     1       1.192   2.013   0.376  0.00  0.00    +0.004 A 
ATOM     21  C   UNL     1       1.143   3.398   0.449  0.00  0.00    +0.001 A 
ATOM     22  C   UNL     1      -0.069   4.052   0.428  0.00  0.00    +0.015 A 
ATOM     23  C   UNL     1      -1.247   3.313   0.333  0.00  0.00    +0.064 A 
ATOM     24  C   UNL     1      -2.569   3.969   0.307  0.00  0.00    +0.197 A 
ATOM     25  O   UNL     1      -2.678   5.182   0.368  0.00  0.00    -0.287 OA
ENDBRANCH   6  15
BRANCH   1  26
ATOM     26  C   UNL     1      -5.637   3.770   2.632  0.00  0.00    +0.338 C 
ATOM     27  O   UNL     1      -6.336   3.445   3.574  0.00  0.00    -0.245 OA
BRANCH  26  28
ATOM     28  O   UNL     1      -4.635   4.657   2.811  0.00  0.00    -0.460 OA
BRANCH  28  29
ATOM     29  C   UNL     1      -4.452   5.172   4.131  0.00  0.00    +0.243 C 
BRANCH  29  30
ATOM     30  C   UNL     1      -3.279   6.154   4.137  0.00  0.00    +0.110 C 
BRANCH  30  31
ATOM     31  S   UNL     1      -3.046   6.808   5.813  0.00  0.00    -0.158 S 
BRANCH  31  33
ATOM     32  C   UNL     1      -1.331   8.570   7.010  0.00  0.00    +0.015 C 
ATOM     33  C   UNL     1      -1.638   7.940   5.650  0.00  0.00    +0.066 C 
ENDBRANCH  31  33
ENDBRANCH  30  31
ENDBRANCH  29  30
ENDBRANCH  28  29
ENDBRANCH  26  28
ENDBRANCH   1  26
BRANCH   9  34
ATOM     34  C   UNL     1      -6.100   4.994  -4.447  0.00  0.00    +0.318 C 
ATOM     35  O   UNL     1      -7.171   5.414  -4.816  0.00  0.00    -0.250 OA
BRANCH  34  36
ATOM     36  O   UNL     1      -4.974   5.644  -4.779  0.00  0.00    -0.467 OA
ATOM     37  C   UNL     1      -5.118   6.844  -5.583  0.00  0.00    +0.280 C 
ENDBRANCH  34  36
ENDBRANCH   9  34
TORSDOF 9
