REMARK  Name = ZINC05750369
REMARK  11 active torsions:
REMARK  status: ('A' for Active; 'I' for Inactive)
REMARK    1  A    between atoms: C_1  and  C_2
REMARK    2  A    between atoms: C_5  and  O_12
REMARK    3  A    between atoms: C_6  and  C_8
REMARK    4  A    between atoms: C_8  and  C_9
REMARK    5  A    between atoms: C_8  and  C_10
REMARK    6  A    between atoms: C_8  and  C_11
REMARK    7  A    between atoms: O_12  and  C_13
REMARK    8  A    between atoms: C_13  and  C_14
REMARK    9  A    between atoms: N_16  and  C_17
REMARK   10  A    between atoms: C_20  and  N_24
REMARK   11  A    between atoms: C_22  and  C_23
REMARK                            x       y       z     vdW  Elec       q    Type
REMARK                         _______ _______ _______ _____ _____    ______ ____
ROOT
ATOM      1  C   UNL     1      -4.962   5.313   0.157  0.00  0.00    +0.255 C 
ATOM      2  O   UNL     1      -3.922   5.938   0.155  0.00  0.00    -0.272 OA
ATOM      3  N   UNL     1      -4.942   3.970   0.048  0.00  0.00    -0.282 N 
ATOM      4  H   UNL     1      -5.774   3.478  -0.032  0.00  0.00    +0.155 HD
ENDROOT
BRANCH   3   5
ATOM      5  C   UNL     1      -3.721   3.286   0.049  0.00  0.00    +0.037 A 
ATOM      6  C   UNL     1      -2.607   3.852   0.655  0.00  0.00    +0.026 A 
ATOM      7  C   UNL     1      -1.405   3.172   0.660  0.00  0.00    +0.034 A 
ATOM      8  C   UNL     1      -1.308   1.934   0.051  0.00  0.00    +0.127 A 
ATOM      9  C   UNL     1      -2.415   1.368  -0.553  0.00  0.00    +0.038 A 
ATOM     10  C   UNL     1      -3.621   2.040  -0.556  0.00  0.00    -0.027 A 
ATOM     11  C   UNL     1      -4.827   1.423  -1.215  0.00  0.00    +0.046 C 
BRANCH   8  12
ATOM     12  N   UNL     1      -0.016   1.210   0.053  0.00  0.00    +0.056 N 
ATOM     13  O   UNL     1       0.070   0.118  -0.478  0.00  0.00    -0.126 OA
ATOM     14  O   UNL     1       0.961   1.710   0.581  0.00  0.00    -0.126 OA
ENDBRANCH   8  12
ENDBRANCH   3   5
BRANCH   1  15
ATOM     15  C   UNL     1      -6.277   6.040   0.280  0.00  0.00    +0.324 C 
BRANCH  15  16
ATOM     16  O   UNL     1      -6.037   7.445   0.382  0.00  0.00    -0.482 OA
BRANCH  16  21
ATOM     17  C   UNL     1     -10.548  10.780   0.875  0.00  0.00    +0.044 C 
ATOM     18  C   UNL     1      -9.341   9.888   0.743  0.00  0.00    -0.050 A 
ATOM     19  C   UNL     1      -9.503   8.519   0.640  0.00  0.00    +0.007 A 
ATOM     20  C   UNL     1      -8.398   7.698   0.519  0.00  0.00    +0.046 A 
ATOM     21  C   UNL     1      -7.125   8.250   0.500  0.00  0.00    +0.125 A 
ATOM     22  C   UNL     1      -6.965   9.623   0.609  0.00  0.00    -0.000 A 
ATOM     23  C   UNL     1      -8.074  10.440   0.725  0.00  0.00    +0.011 A 
BRANCH  22  24
ATOM     24  C   UNL     1      -5.583  10.225   0.595  0.00  0.00    -0.009 C 
ATOM     25  C   UNL     1      -5.688  11.746   0.728  0.00  0.00    +0.015 C 
ATOM     26  C   UNL     1      -4.772   9.665   1.765  0.00  0.00    +0.015 C 
ATOM     27  C   UNL     1      -4.888   9.875  -0.722  0.00  0.00    +0.015 C 
ENDBRANCH  22  24
ENDBRANCH  16  21
ENDBRANCH  15  16
ENDBRANCH   1  15
TORSDOF 6
