REMARK  Name = ZINC40363537
REMARK  15 active torsions:
REMARK  status: ('A' for Active; 'I' for Inactive)
REMARK    1  A    between atoms: C_1  and  O_2
REMARK    2  A    between atoms: O_2  and  C_3
REMARK    3  A    between atoms: C_3  and  C_4
REMARK    4  A    between atoms: C_4  and  N_5
REMARK    5  A    between atoms: C_6  and  C_8
REMARK    6  A    between atoms: C_11  and  C_13
REMARK    7  A    between atoms: C_13  and  N_14
REMARK    8  A    between atoms: N_14  and  C_15
REMARK    9  A    between atoms: N_14  and  C_25
REMARK   10  A    between atoms: C_15  and  C_16
REMARK   11  A    between atoms: C_25  and  C_26
REMARK   12  A    between atoms: C_29  and  O_34
REMARK   13  A    between atoms: C_30  and  O_32
REMARK   14  A    between atoms: O_32  and  C_33
REMARK   15  A    between atoms: O_34  and  C_35
REMARK                            x       y       z     vdW  Elec       q    Type
REMARK                         _______ _______ _______ _____ _____    ______ ____
ROOT
ATOM      1  N   UNL     1      -6.501  -3.538  -0.064  0.00  0.00    +0.390 N 
ATOM      2  H   UNL     1      -5.943  -2.854   0.425  0.00  0.00    -0.080 HD
ENDROOT
BRANCH   1   3
ATOM      3  C   UNL     1      -5.941  -3.761  -1.403  0.00  0.00    -0.002 C 
BRANCH   3   7
ATOM      4  C   UNL     1      -6.285  -0.739  -3.426  0.00  0.00    +0.189 A 
ATOM      5  C   UNL     1      -5.073  -0.486  -2.849  0.00  0.00    +0.055 A 
ATOM      6  C   UNL     1      -4.785  -1.580  -2.018  0.00  0.00    +0.043 A 
ATOM      7  C   UNL     1      -5.821  -2.442  -2.123  0.00  0.00    +0.090 A 
ATOM      8  O   UNL     1      -6.724  -1.930  -2.968  0.00  0.00    -0.457 OA
BRANCH   4  10
ATOM      9  N   UNL     1      -8.187  -0.235  -4.866  0.00  0.00    -0.307 N 
ATOM     10  C   UNL     1      -6.987   0.133  -4.373  0.00  0.00    +0.279 C 
ATOM     11  O   UNL     1      -6.488   1.189  -4.713  0.00  0.00    -0.267 OA
ATOM     12  H   UNL     1      -8.585  -1.077  -4.595  0.00  0.00    +0.149 HD
BRANCH   9  13
ATOM     13  C   UNL     1      -8.889   0.636  -5.811  0.00  0.00    +0.132 C 
BRANCH  13  14
ATOM     14  C   UNL     1     -10.216  -0.011  -6.212  0.00  0.00    +0.178 C 
BRANCH  14  16
ATOM     15  C   UNL     1     -12.342  -0.688  -5.337  0.00  0.00    +0.194 C 
ATOM     16  O   UNL     1     -11.070  -0.095  -5.070  0.00  0.00    -0.381 OA
ENDBRANCH  14  16
ENDBRANCH  13  14
ENDBRANCH   9  13
ENDBRANCH   4  10
ENDBRANCH   3   7
ENDBRANCH   1   3
BRANCH   1  17
ATOM     17  C   UNL     1      -6.494  -4.802   0.686  0.00  0.00    -0.042 C 
BRANCH  17  18
ATOM     18  C   UNL     1      -5.071  -5.233   0.929  0.00  0.00    -0.060 A 
ATOM     19  C   UNL     1      -4.466  -6.133   0.071  0.00  0.00    +0.005 A 
ATOM     20  C   UNL     1      -3.161  -6.532   0.290  0.00  0.00    +0.050 A 
ATOM     21  C   UNL     1      -2.455  -6.030   1.371  0.00  0.00    +0.166 A 
ATOM     22  C   UNL     1      -3.064  -5.124   2.236  0.00  0.00    +0.166 A 
ATOM     23  C   UNL     1      -4.370  -4.724   2.007  0.00  0.00    +0.051 A 
ATOM     24  O   UNL     1      -2.171  -4.783   3.210  0.00  0.00    -0.453 OA
ATOM     25  C   UNL     1      -1.150  -5.798   3.168  0.00  0.00    +0.466 C 
ATOM     26  O   UNL     1      -1.180  -6.257   1.804  0.00  0.00    -0.453 OA
ENDBRANCH  17  18
ENDBRANCH   1  17
BRANCH   1  27
ATOM     27  C   UNL     1      -7.881  -3.049  -0.185  0.00  0.00    -0.042 C 
BRANCH  27  28
ATOM     28  C   UNL     1      -8.414  -2.704   1.181  0.00  0.00    -0.060 A 
ATOM     29  C   UNL     1      -9.061  -3.668   1.932  0.00  0.00    +0.005 A 
ATOM     30  C   UNL     1      -9.552  -3.357   3.187  0.00  0.00    +0.049 A 
ATOM     31  C   UNL     1      -9.395  -2.077   3.694  0.00  0.00    +0.161 A 
ATOM     32  C   UNL     1      -8.743  -1.107   2.939  0.00  0.00    +0.162 A 
ATOM     33  C   UNL     1      -8.250  -1.427   1.684  0.00  0.00    +0.051 A 
BRANCH  32  34
ATOM     34  O   UNL     1      -8.587   0.150   3.432  0.00  0.00    -0.491 OA
ATOM     35  C   UNL     1      -7.909   1.094   2.601  0.00  0.00    +0.277 C 
ENDBRANCH  32  34
BRANCH  31  36
ATOM     36  O   UNL     1      -9.878  -1.770   4.928  0.00  0.00    -0.491 OA
ATOM     37  C   UNL     1     -10.536  -2.815   5.646  0.00  0.00    +0.277 C 
ENDBRANCH  31  36
ENDBRANCH  27  28
ENDBRANCH   1  27
TORSDOF 12
