REMARK  Name = ZINC34262170
REMARK  4 active torsions:
REMARK  status: ('A' for Active; 'I' for Inactive)
REMARK    1  A    between atoms: C_6  and  C_7
REMARK    2  A    between atoms: C_9  and  C_23
REMARK    3  A    between atoms: C_18  and  C_20
REMARK    4  A    between atoms: C_23  and  C_25
REMARK                            x       y       z     vdW  Elec       q    Type
REMARK                         _______ _______ _______ _____ _____    ______ ____
ROOT
ATOM      1  C   UNL     1      -1.091  -0.692   0.107  0.00  0.00    +0.059 C 
ATOM      2  C   UNL     1      -1.198  -1.486  -1.213  0.00  0.00    +0.092 C 
ATOM      3  C   UNL     1      -1.501  -2.930  -0.776  0.00  0.00    +0.090 C 
ATOM      4  C   UNL     1      -2.410  -3.606  -1.755  0.00  0.00    -0.006 C 
ATOM      5  C   UNL     1      -3.732  -3.484  -1.635  0.00  0.00    -0.001 C 
ATOM      6  C   UNL     1      -4.239  -2.659  -0.522  0.00  0.00    +0.013 C 
ATOM      7  C   UNL     1      -3.434  -2.372   0.489  0.00  0.00    +0.053 C 
ATOM      8  N   UNL     1      -2.126  -2.810   0.555  0.00  0.00    -0.384 NA
ATOM      9  C   UNL     1      -1.340  -1.731   1.223  0.00  0.00    +0.151 C 
ATOM     10  H   UNL     1      -2.066  -3.681   1.062  0.00  0.00    +0.127 HD
ENDROOT
BRANCH   1  16
ATOM     11  C   UNL     1       0.430   1.277   0.380  0.00  0.00    +0.005 A 
ATOM     12  C   UNL     1       1.690   1.828   0.509  0.00  0.00    +0.020 A 
ATOM     13  C   UNL     1       2.806   1.010   0.508  0.00  0.00    +0.041 A 
ATOM     14  C   UNL     1       2.659  -0.359   0.376  0.00  0.00    +0.020 A 
ATOM     15  C   UNL     1       1.398  -0.909   0.246  0.00  0.00    +0.005 A 
ATOM     16  C   UNL     1       0.283  -0.091   0.248  0.00  0.00    -0.041 A 
ATOM     17 CL   UNL     1       4.390   1.702   0.670  0.00  0.00    -0.084 Cl
ENDBRANCH   1  16
BRANCH   9  18
ATOM     18  C   UNL     1      -2.134  -1.117   2.347  0.00  0.00    +0.230 C 
ATOM     19  O   UNL     1      -2.091   0.080   2.536  0.00  0.00    -0.274 OA
ATOM     20  N   UNL     1      -2.890  -1.899   3.143  0.00  0.00    -0.328 N 
ATOM     21  H   UNL     1      -2.925  -2.856   2.992  0.00  0.00    +0.145 HD
ATOM     22  H   UNL     1      -3.401  -1.503   3.866  0.00  0.00    +0.145 HD
ENDBRANCH   9  18
BRANCH   2  23
ATOM     23  C   UNL     1      -2.319  -0.945  -2.062  0.00  0.00    +0.169 C 
ATOM     24  O   UNL     1      -3.246  -0.361  -1.543  0.00  0.00    -0.292 OA
BRANCH  23  25
ATOM     25  C   UNL     1      -2.288  -1.126  -3.522  0.00  0.00    +0.018 A 
ATOM     26  C   UNL     1      -1.223  -1.804  -4.124  0.00  0.00    +0.013 A 
ATOM     27  C   UNL     1      -1.202  -1.970  -5.492  0.00  0.00    +0.020 A 
ATOM     28  C   UNL     1      -2.232  -1.466  -6.271  0.00  0.00    +0.041 A 
ATOM     29  C   UNL     1      -3.290  -0.793  -5.681  0.00  0.00    +0.020 A 
ATOM     30  C   UNL     1      -3.328  -0.625  -4.314  0.00  0.00    +0.013 A 
ATOM     31 CL   UNL     1      -2.196  -1.679  -7.993  0.00  0.00    -0.084 Cl
ENDBRANCH  23  25
ENDBRANCH   2  23
TORSDOF 4
