REMARK  Name = ZINC02910679
REMARK  6 active torsions:
REMARK  status: ('A' for Active; 'I' for Inactive)
REMARK    1  A    between atoms: C_1  and  C_2
REMARK    2  A    between atoms: C_2  and  C_32
REMARK    3  A    between atoms: C_6  and  N_7
REMARK    4  A    between atoms: N_7  and  C_8
REMARK    5  A    between atoms: C_8  and  C_9
REMARK    6  A    between atoms: C_9  and  C_10
REMARK                            x       y       z     vdW  Elec       q    Type
REMARK                         _______ _______ _______ _____ _____    ______ ____
ROOT
ATOM      1  C   UNL     1       0.135   1.285  -0.535  0.00  0.00    +0.064 C 
ATOM      2  C   UNL     1       0.047  -0.242  -0.491  0.00  0.00    +0.167 C 
ATOM      3  C   UNL     1      -1.388  -0.654  -0.280  0.00  0.00    +0.208 C 
ATOM      4  O   UNL     1      -2.300   0.058  -0.652  0.00  0.00    -0.288 OA
ATOM      5  C   UNL     1      -1.651  -1.894   0.363  0.00  0.00    +0.049 C 
ATOM      6  C   UNL     1      -2.928  -2.341   0.553  0.00  0.00    +0.079 C 
ATOM      7  C   UNL     1      -0.476  -2.682   0.819  0.00  0.00    +0.071 A 
ATOM      8  C   UNL     1       0.765  -2.044   0.900  0.00  0.00    +0.133 A 
ATOM      9  C   UNL     1       1.886  -2.753   1.319  0.00  0.00    +0.047 A 
ATOM     10  C   UNL     1       1.783  -4.073   1.657  0.00  0.00    +0.015 A 
ATOM     11  C   UNL     1       0.547  -4.727   1.585  0.00  0.00    +0.018 A 
ATOM     12  C   UNL     1      -0.598  -4.027   1.161  0.00  0.00    +0.150 A 
ATOM     13  O   UNL     1      -1.790  -4.653   1.089  0.00  0.00    -0.421 OA
ATOM     14  C   UNL     1      -1.904  -5.946   1.416  0.00  0.00    +0.337 A 
ATOM     15  O   UNL     1      -2.997  -6.477   1.337  0.00  0.00    -0.245 OA
ATOM     16  C   UNL     1      -0.805  -6.715   1.849  0.00  0.00    +0.092 A 
ATOM     17  C   UNL     1       0.422  -6.141   1.946  0.00  0.00    +0.018 A 
ATOM     18  O   UNL     1       0.863  -0.732   0.571  0.00  0.00    -0.478 OA
ATOM     19  C   UNL     1       0.546  -0.815  -1.819  0.00  0.00    +0.064 C 
ENDROOT
BRANCH   6  20
ATOM     20  N   UNL     1      -3.981  -1.615   0.086  0.00  0.00    -0.349 N 
ATOM     21  H   UNL     1      -3.831  -0.741  -0.308  0.00  0.00    +0.146 HD
BRANCH  20  22
ATOM     22  C   UNL     1      -5.340  -2.153   0.179  0.00  0.00    +0.105 C 
BRANCH  22  23
ATOM     23  C   UNL     1      -6.329  -1.146  -0.412  0.00  0.00    +0.056 C 
BRANCH  23  24
ATOM     24  C   UNL     1      -7.727  -1.699  -0.317  0.00  0.00    -0.021 A 
ATOM     25  C   UNL     1      -8.385  -2.375  -1.272  0.00  0.00    +0.087 A 
ATOM     26  N   UNL     1      -9.632  -2.718  -0.826  0.00  0.00    -0.360 N 
ATOM     27  H   UNL     1     -10.292  -3.211  -1.339  0.00  0.00    +0.165 HD
ATOM     28  C   UNL     1      -9.812  -2.260   0.460  0.00  0.00    +0.047 A 
ATOM     29  C   UNL     1      -8.624  -1.607   0.838  0.00  0.00    +0.003 A 
ATOM     30  C   UNL     1      -8.514  -1.040   2.109  0.00  0.00    +0.010 A 
ATOM     31  C   UNL     1      -9.561  -1.127   2.983  0.00  0.00    +0.001 A 
ATOM     32  C   UNL     1     -10.733  -1.773   2.617  0.00  0.00    +0.002 A 
ATOM     33  C   UNL     1     -10.867  -2.331   1.364  0.00  0.00    +0.026 A 
ENDBRANCH  23  24
ENDBRANCH  22  23
ENDBRANCH  20  22
ENDBRANCH   6  20
TORSDOF 4
