REMARK  Name = ZINC02232392
REMARK  8 active torsions:
REMARK  status: ('A' for Active; 'I' for Inactive)
REMARK    1  A    between atoms: C_1  and  C_2
REMARK    2  A    between atoms: C_7  and  O_8
REMARK    3  A    between atoms: O_8  and  C_9
REMARK    4  A    between atoms: C_9  and  C_10
REMARK    5  A    between atoms: C_10  and  C_11
REMARK    6  A    between atoms: C_11  and  N_12
REMARK    7  A    between atoms: C_14  and  C_21
REMARK    8  A    between atoms: N_28  and  C_31
REMARK                            x       y       z     vdW  Elec       q    Type
REMARK                         _______ _______ _______ _____ _____    ______ ____
ROOT
ATOM      1  N   UNL     1       5.358   5.270  -0.089  0.00  0.00    -0.346 N 
ATOM      2  C   UNL     1       4.922   3.999  -0.024  0.00  0.00    +0.094 A 
ATOM      3  C   UNL     1       5.986   3.134  -0.218  0.00  0.00    +0.001 A 
ATOM      4  C   UNL     1       7.173   3.987  -0.429  0.00  0.00    +0.007 A 
ATOM      5  C   UNL     1       6.716   5.311  -0.337  0.00  0.00    +0.050 A 
ATOM      6  C   UNL     1       7.620   6.356  -0.495  0.00  0.00    +0.026 A 
ATOM      7  C   UNL     1       8.949   6.085  -0.739  0.00  0.00    +0.002 A 
ATOM      8  C   UNL     1       9.398   4.777  -0.830  0.00  0.00    +0.001 A 
ATOM      9  C   UNL     1       8.517   3.727  -0.676  0.00  0.00    +0.010 A 
ENDROOT
BRANCH   3  10
ATOM     10  C   UNL     1       5.943   1.725  -0.220  0.00  0.00    +0.028 C 
ATOM     11  C   UNL     1       5.227   1.051   0.760  0.00  0.00    +0.100 C 
ATOM     12  C   UNL     1       4.997  -0.403   0.682  0.00  0.00    +0.257 C 
ATOM     13  O   UNL     1       5.432  -1.054  -0.249  0.00  0.00    -0.270 OA
ATOM     14  N   UNL     1       4.293  -0.991   1.670  0.00  0.00    -0.235 N 
ATOM     15  C   UNL     1       3.813  -0.286   2.704  0.00  0.00    +0.320 C 
ATOM     16  O   UNL     1       3.190  -0.876   3.564  0.00  0.00    -0.251 OA
ATOM     17  N   UNL     1       3.979   1.038   2.836  0.00  0.00    -0.190 N 
ATOM     18  C   UNL     1       4.663   1.757   1.923  0.00  0.00    +0.263 C 
ATOM     19  O   UNL     1       4.812   2.958   2.057  0.00  0.00    -0.269 OA
ATOM     20  H   UNL     1       4.132  -1.947   1.633  0.00  0.00    +0.159 HD
BRANCH  17  21
ATOM     21  C   UNL     1       3.434   1.688   3.952  0.00  0.00    +0.046 A 
ATOM     22  C   UNL     1       2.056   1.760   4.111  0.00  0.00    +0.027 A 
ATOM     23  C   UNL     1       1.521   2.406   5.208  0.00  0.00    +0.040 A 
ATOM     24  C   UNL     1       2.357   2.974   6.155  0.00  0.00    +0.124 A 
ATOM     25  C   UNL     1       3.731   2.904   5.998  0.00  0.00    +0.040 A 
ATOM     26  C   UNL     1       4.270   2.263   4.900  0.00  0.00    +0.027 A 
ATOM     27  F   UNL     1       1.832   3.602   7.229  0.00  0.00    -0.205 F 
ENDBRANCH  17  21
ENDBRANCH   3  10
BRANCH   1  28
ATOM     28  C   UNL     1       4.506   6.451   0.074  0.00  0.00    +0.125 C 
BRANCH  28  29
ATOM     29  C   UNL     1       4.051   6.946  -1.301  0.00  0.00    +0.062 C 
BRANCH  29  30
ATOM     30  C   UNL     1       3.162   8.179  -1.130  0.00  0.00    +0.231 C 
BRANCH  30  31
ATOM     31  O   UNL     1       2.737   8.641  -2.414  0.00  0.00    -0.492 OA
BRANCH  31  38
ATOM     32  C   UNL     1       1.886   9.570  -4.942  0.00  0.00    +0.047 C 
ATOM     33  C   UNL     1       1.485  10.240  -3.653  0.00  0.00    -0.009 A 
ATOM     34  C   UNL     1       0.669  11.354  -3.677  0.00  0.00    +0.007 A 
ATOM     35  C   UNL     1       0.300  11.969  -2.495  0.00  0.00    +0.000 A 
ATOM     36  C   UNL     1       0.747  11.469  -1.285  0.00  0.00    +0.004 A 
ATOM     37  C   UNL     1       1.558  10.352  -1.255  0.00  0.00    +0.046 A 
ATOM     38  C   UNL     1       1.934   9.737  -2.441  0.00  0.00    +0.123 A 
ENDBRANCH  31  38
ENDBRANCH  30  31
ENDBRANCH  29  30
ENDBRANCH  28  29
ENDBRANCH   1  28
TORSDOF 7
