REMARK  Name = ZINC16067534
REMARK  9 active torsions:
REMARK  status: ('A' for Active; 'I' for Inactive)
REMARK    1  A    between atoms: C_1  and  C_2
REMARK    2  A    between atoms: C_5  and  C_29
REMARK    3  A    between atoms: C_6  and  N_8
REMARK    4  A    between atoms: C_9  and  C_11
REMARK    5  A    between atoms: C_11  and  C_13
REMARK    6  A    between atoms: C_11  and  S_14
REMARK    7  A    between atoms: S_14  and  C_15
REMARK    8  A    between atoms: C_18  and  C_21
REMARK    9  A    between atoms: N_19  and  N_20
REMARK                            x       y       z     vdW  Elec       q    Type
REMARK                         _______ _______ _______ _____ _____    ______ ____
ROOT
ATOM      1  C   UNL     1      -0.402   0.230  -7.558  0.00  0.00    +0.209 A 
ATOM      2  N   UNL     1       0.003   1.477  -7.481  0.00  0.00    -0.121 NA
ATOM      3  N   UNL     1      -0.074   2.038  -8.635  0.00  0.00    -0.127 NA
ATOM      4  C   UNL     1      -0.533   1.184  -9.519  0.00  0.00    +0.183 A 
ATOM      5  N   UNL     1      -0.752  -0.003  -8.858  0.00  0.00    -0.224 N 
ENDROOT
BRANCH   4   6
ATOM      6  C   UNL     1      -0.765   1.445 -10.956  0.00  0.00    +0.039 A 
ATOM      7  C   UNL     1      -1.983   1.098 -11.543  0.00  0.00    +0.014 A 
ATOM      8  C   UNL     1      -2.196   1.350 -12.882  0.00  0.00    +0.021 A 
ATOM      9  C   UNL     1      -1.200   1.934 -13.647  0.00  0.00    +0.042 A 
ATOM     10  C   UNL     1       0.012   2.276 -13.073  0.00  0.00    +0.040 A 
ATOM     11  C   UNL     1       0.235   2.035 -11.732  0.00  0.00    +0.053 A 
ATOM     12 CL   UNL     1       1.756   2.463 -11.012  0.00  0.00    -0.083 Cl
ATOM     13 CL   UNL     1      -1.474   2.240 -15.334  0.00  0.00    -0.083 Cl
ENDBRANCH   4   6
BRANCH   5  14
ATOM     14  N   UNL     1      -1.223  -1.169  -9.390  0.00  0.00    -0.295 N 
ATOM     15  H   UNL     1      -2.222  -1.244  -9.269  0.00  0.00    +0.163 HD
ATOM     16  H   UNL     1      -0.970  -1.252 -10.363  0.00  0.00    +0.163 HD
ENDBRANCH   5  14
BRANCH   1  17
ATOM     17  S   UNL     1      -0.472  -0.930  -6.234  0.00  0.00    -0.072 S 
BRANCH  17  18
ATOM     18  C   UNL     1       0.143   0.102  -4.880  0.00  0.00    +0.137 C 
ATOM     19  C   UNL     1       1.601   0.481  -5.150  0.00  0.00    +0.029 C 
BRANCH  18  21
ATOM     20  N   UNL     1      -0.035  -0.002  -2.415  0.00  0.00    -0.284 N 
ATOM     21  C   UNL     1       0.056  -0.664  -3.585  0.00  0.00    +0.230 C 
ATOM     22  O   UNL     1       0.067  -1.877  -3.595  0.00  0.00    -0.274 OA
ATOM     23  H   UNL     1      -0.125   0.964  -2.410  0.00  0.00    +0.155 HD
BRANCH  20  29
ATOM     24  C   UNL     1       1.319  -3.993   0.117  0.00  0.00    +0.044 C 
ATOM     25  C   UNL     1       0.651  -2.643   0.049  0.00  0.00    -0.049 A 
ATOM     26  C   UNL     1       0.068  -2.104   1.181  0.00  0.00    +0.004 A 
ATOM     27  C   UNL     1      -0.547  -0.866   1.122  0.00  0.00    +0.005 A 
ATOM     28  C   UNL     1      -0.579  -0.165  -0.068  0.00  0.00    -0.029 A 
ATOM     29  C   UNL     1       0.002  -0.707  -1.207  0.00  0.00    +0.037 A 
ATOM     30  C   UNL     1       0.623  -1.947  -1.143  0.00  0.00    +0.027 A 
ATOM     31  C   UNL     1      -1.250   1.183  -0.131  0.00  0.00    +0.045 C 
ENDBRANCH  20  29
ENDBRANCH  18  21
ENDBRANCH  17  18
ENDBRANCH   1  17
TORSDOF 6
