REMARK  Name = ZINC02315204
REMARK  7 active torsions:
REMARK  status: ('A' for Active; 'I' for Inactive)
REMARK    1  A    between atoms: C_1  and  C_2
REMARK    2  A    between atoms: C_2  and  C_4
REMARK    3  A    between atoms: C_2  and  N_45
REMARK    4  A    between atoms: N_6  and  C_7
REMARK    5  A    between atoms: C_16  and  C_17
REMARK    6  A    between atoms: C_17  and  O_19
REMARK    7  A    between atoms: O_19  and  C_20
REMARK                            x       y       z     vdW  Elec       q    Type
REMARK                         _______ _______ _______ _____ _____    ______ ____
ROOT
ATOM      1  C   UNL     1       1.230   1.594   0.023  0.00  0.00    +0.073 A 
ATOM      2  C   UNL     1       1.518   2.971  -0.386  0.00  0.00    +0.023 A 
ATOM      3  C   UNL     1       0.722   4.026  -0.843  0.00  0.00    +0.031 A 
ATOM      4  C   UNL     1       1.298   5.225  -1.154  0.00  0.00    +0.042 A 
ATOM      5  C   UNL     1       2.670   5.405  -1.019  0.00  0.00    +0.022 A 
ATOM      6  C   UNL     1       3.472   4.380  -0.571  0.00  0.00    +0.028 A 
ATOM      7  C   UNL     1       2.908   3.148  -0.248  0.00  0.00    +0.049 A 
ATOM      8  N   UNL     1       3.442   1.968   0.213  0.00  0.00    -0.348 N 
ATOM      9  H   UNL     1       4.382   1.815   0.396  0.00  0.00    +0.166 HD
ATOM     10  C   UNL     1       2.435   1.029   0.385  0.00  0.00    +0.147 A 
ATOM     11 CL   UNL     1       0.309   6.535  -1.720  0.00  0.00    -0.084 Cl
ENDROOT
BRANCH   1  14
ATOM     12  C   UNL     1      -1.105   1.676   0.434  0.00  0.00    +0.203 C 
ATOM     13  O   UNL     1      -1.014   2.863   0.665  0.00  0.00    -0.277 OA
ATOM     14  N   UNL     1      -0.018   0.979   0.049  0.00  0.00    -0.284 N 
ATOM     15  H   UNL     1      -0.105   0.050  -0.214  0.00  0.00    +0.155 HD
BRANCH  12  17
ATOM     16  C   UNL     1      -2.319  -0.132   1.621  0.00  0.00    -0.004 C 
ATOM     17  C   UNL     1      -2.434   0.980   0.576  0.00  0.00    +0.016 C 
BRANCH  17  23
ATOM     18  C   UNL     1      -3.082   2.570   2.279  0.00  0.00    -0.067 C 
ATOM     19  C   UNL     1      -3.877   3.866   2.476  0.00  0.00    +0.050 C 
ATOM     20  S   UNL     1      -5.648   3.450   2.520  0.00  0.00    -0.164 S 
ATOM     21  C   UNL     1      -5.858   2.427   1.030  0.00  0.00    +0.050 C 
ATOM     22  C   UNL     1      -4.780   1.336   1.039  0.00  0.00    -0.067 C 
ATOM     23  N   UNL     1      -3.447   1.974   0.972  0.00  0.00    +0.388 N 
ATOM     24  H   UNL     1      -3.474   2.720   0.266  0.00  0.00    -0.081 HD
ENDBRANCH  17  23
ENDBRANCH  12  17
ENDBRANCH   1  14
BRANCH  10  25
ATOM     25  C   UNL     1       2.616  -0.298   0.853  0.00  0.00    +0.357 C 
ATOM     26  O   UNL     1       1.679  -1.074   0.859  0.00  0.00    -0.243 OA
BRANCH  25  27
ATOM     27  O   UNL     1       3.828  -0.699   1.291  0.00  0.00    -0.463 OA
ATOM     28  C   UNL     1       3.937  -2.049   1.748  0.00  0.00    +0.280 C 
ENDBRANCH  25  27
ENDBRANCH  10  25
TORSDOF 5
