REMARK  Name = ZINC39669801
REMARK  8 active torsions:
REMARK  status: ('A' for Active; 'I' for Inactive)
REMARK    1  A    between atoms: C_1  and  C_2
REMARK    2  A    between atoms: C_6  and  C_7
REMARK    3  A    between atoms: C_11  and  C_20
REMARK    4  A    between atoms: N_22  and  C_23
REMARK    5  A    between atoms: C_23  and  C_24
REMARK    6  A    between atoms: C_24  and  C_25
REMARK    7  A    between atoms: C_24  and  C_26
REMARK    8  A    between atoms: C_24  and  N_27
REMARK                            x       y       z     vdW  Elec       q    Type
REMARK                         _______ _______ _______ _____ _____    ______ ____
ROOT
ATOM      1  C   UNL     1       0.312  -0.306   2.028  0.00  0.00    +0.254 C 
ATOM      2  O   UNL     1       0.291   0.855   2.394  0.00  0.00    -0.269 OA
ATOM      3  N   UNL     1       0.082  -1.296   2.912  0.00  0.00    -0.296 N 
ATOM      4  C   UNL     1       0.163  -2.758   2.680  0.00  0.00    +0.121 C 
ATOM      5  C   UNL     1       0.799  -3.323   3.970  0.00  0.00    +0.100 C 
ATOM      6  C   UNL     1       0.483  -2.278   5.053  0.00  0.00    -0.004 C 
ATOM      7  C   UNL     1      -0.304  -1.170   4.338  0.00  0.00    +0.115 C 
ATOM      8  C   UNL     1       1.776  -1.709   5.631  0.00  0.00    -0.010 C 
ATOM      9  C   UNL     1       1.437  -0.715   6.745  0.00  0.00    -0.082 C 
ATOM     10  N   UNL     1       0.666  -1.395   7.793  0.00  0.00    +0.379 N 
ATOM     11  C   UNL     1      -0.617  -1.857   7.251  0.00  0.00    -0.082 C 
ATOM     12  C   UNL     1      -0.365  -2.900   6.158  0.00  0.00    -0.010 C 
ATOM     13  H   UNL     1       1.191  -2.186   8.134  0.00  0.00    -0.086 HD
ATOM     14  H   UNL     1       0.497  -0.754   8.554  0.00  0.00    -0.086 HD
ENDROOT
BRANCH   1  20
ATOM     15  C   UNL     1       1.149   1.702  -0.202  0.00  0.00    +0.045 C 
ATOM     16  C   UNL     1       0.962   0.221  -0.408  0.00  0.00    -0.031 A 
ATOM     17  C   UNL     1       1.158  -0.377  -1.630  0.00  0.00    +0.011 A 
ATOM     18  C   UNL     1       0.973  -1.715  -1.746  0.00  0.00    +0.046 A 
ATOM     19  S   UNL     1       0.528  -2.205  -0.201  0.00  0.00    -0.092 S 
ATOM     20  C   UNL     1       0.588  -0.626   0.624  0.00  0.00    +0.077 A 
ENDBRANCH   1  20
BRANCH   5  21
ATOM     21  C   UNL     1       2.288  -3.472   3.800  0.00  0.00    +0.218 C 
ATOM     22  O   UNL     1       2.893  -2.721   3.064  0.00  0.00    -0.275 OA
ATOM     23  N   UNL     1       2.949  -4.440   4.465  0.00  0.00    -0.313 N 
ATOM     24  H   UNL     1       2.474  -5.010   5.089  0.00  0.00    +0.149 HD
BRANCH  23  25
ATOM     25  C   UNL     1       4.385  -4.631   4.245  0.00  0.00    +0.126 C 
BRANCH  25  26
ATOM     26  C   UNL     1       4.866  -5.846   5.040  0.00  0.00    +0.032 C 
ATOM     27  C   UNL     1       6.338  -6.115   4.721  0.00  0.00    +0.029 C 
ATOM     28  C   UNL     1       4.711  -5.570   6.537  0.00  0.00    +0.029 C 
BRANCH  26  29
ATOM     29  N   UNL     1       4.063  -7.020   4.673  0.00  0.00    -0.291 NA
ATOM     30  C   UNL     1       4.131  -7.274   3.227  0.00  0.00    +0.113 C 
ATOM     31  C   UNL     1       3.235  -8.466   2.881  0.00  0.00    +0.175 C 
ATOM     32  O   UNL     1       3.642  -9.601   3.650  0.00  0.00    -0.377 OA
ATOM     33  C   UNL     1       3.588  -9.389   5.063  0.00  0.00    +0.175 C 
ATOM     34  C   UNL     1       4.487  -8.206   5.431  0.00  0.00    +0.113 C 
ENDBRANCH  26  29
ENDBRANCH  25  26
ENDBRANCH  23  25
ENDBRANCH   5  21
TORSDOF 5
