REMARK  Name = ZINC64392930
REMARK  7 active torsions:
REMARK  status: ('A' for Active; 'I' for Inactive)
REMARK    1  A    between atoms: C_1  and  C_2
REMARK    2  A    between atoms: C_2  and  O_3
REMARK    3  A    between atoms: O_3  and  C_4
REMARK    4  A    between atoms: C_4  and  C_6
REMARK    5  A    between atoms: C_8  and  N_19
REMARK    6  A    between atoms: N_19  and  C_20
REMARK    7  A    between atoms: C_20  and  C_21
REMARK                            x       y       z     vdW  Elec       q    Type
REMARK                         _______ _______ _______ _____ _____    ______ ____
ROOT
ATOM      1  C   UNL     1      -2.634  -2.452   0.160  0.00  0.00    +0.228 C 
ATOM      2  C   UNL     1      -2.731  -3.921  -0.204  0.00  0.00    +0.036 C 
ATOM      3  C   UNL     1      -3.453  -4.747   0.669  0.00  0.00    +0.014 A 
ATOM      4  C   UNL     1      -3.591  -6.122   0.406  0.00  0.00    +0.013 A 
ATOM      5  C   UNL     1      -4.296  -6.907   1.267  0.00  0.00    +0.021 A 
ATOM      6  C   UNL     1      -4.887  -6.375   2.409  0.00  0.00    +0.043 A 
ATOM      7  C   UNL     1      -4.785  -5.039   2.717  0.00  0.00    +0.044 A 
ATOM      8  C   UNL     1      -4.071  -4.179   1.869  0.00  0.00    +0.043 A 
ATOM      9  N   UNL     1      -3.972  -2.876   2.170  0.00  0.00    -0.284 N 
ATOM     10  C   UNL     1      -3.322  -2.005   1.429  0.00  0.00    +0.237 C 
ATOM     11  O   UNL     1      -3.274  -0.836   1.767  0.00  0.00    -0.274 OA
ATOM     12 CL   UNL     1      -5.775  -7.424   3.470  0.00  0.00    -0.083 Cl
ATOM     13  H   UNL     1      -4.404  -2.558   2.979  0.00  0.00    +0.155 HD
ENDROOT
BRANCH   1  14
ATOM     14  C   UNL     1      -1.173  -2.100   0.276  0.00  0.00    +0.325 C 
ATOM     15  O   UNL     1      -0.413  -2.854   0.836  0.00  0.00    -0.250 OA
BRANCH  14  16
ATOM     16  O   UNL     1      -0.717  -0.949  -0.242  0.00  0.00    -0.464 OA
BRANCH  16  18
ATOM     17  C   UNL     1       1.010   0.667  -0.742  0.00  0.00    +0.048 C 
ATOM     18  C   UNL     1       0.679  -0.679  -0.095  0.00  0.00    +0.229 C 
ENDBRANCH  16  18
ENDBRANCH  14  16
ENDBRANCH   1  14
BRANCH   2  19
ATOM     19  N   UNL     1      -2.152  -4.409  -1.310  0.00  0.00    -0.341 N 
ATOM     20  H   UNL     1      -2.155  -5.364  -1.478  0.00  0.00    +0.146 HD
BRANCH  19  21
ATOM     21  C   UNL     1      -1.516  -3.499  -2.266  0.00  0.00    +0.136 C 
BRANCH  21  22
ATOM     22  C   UNL     1      -1.033  -4.281  -3.460  0.00  0.00    -0.027 A 
ATOM     23  C   UNL     1       0.242  -4.816  -3.464  0.00  0.00    +0.009 A 
ATOM     24  C   UNL     1       0.689  -5.535  -4.557  0.00  0.00    +0.050 A 
ATOM     25  C   UNL     1      -0.140  -5.721  -5.651  0.00  0.00    +0.166 A 
ATOM     26  C   UNL     1      -1.424  -5.182  -5.647  0.00  0.00    +0.167 A 
ATOM     27  C   UNL     1      -1.867  -4.468  -4.546  0.00  0.00    +0.054 A 
ATOM     28  O   UNL     1      -2.034  -5.501  -6.825  0.00  0.00    -0.453 OA
ATOM     29  C   UNL     1      -0.972  -5.888  -7.716  0.00  0.00    +0.466 C 
ATOM     30  O   UNL     1       0.054  -6.377  -6.832  0.00  0.00    -0.453 OA
ENDBRANCH  21  22
ENDBRANCH  19  21
ENDBRANCH   2  19
TORSDOF 6
