REMARK  Name = ZINC14548017
REMARK  2 active torsions:
REMARK  status: ('A' for Active; 'I' for Inactive)
REMARK    1  A    between atoms: C_9  and  O_29
REMARK    2  A    between atoms: C_10  and  C_11
REMARK                            x       y       z     vdW  Elec       q    Type
REMARK                         _______ _______ _______ _____ _____    ______ ____
ROOT
ATOM      1  C   UNL     1      -0.739   0.660  -2.359  0.00  0.00    +0.109 C 
ATOM      2  C   UNL     1      -0.856   1.606  -1.175  0.00  0.00    +0.029 C 
ATOM      3  C   UNL     1      -0.062   1.056   0.035  0.00  0.00    +0.033 C 
ATOM      4  C   UNL     1      -0.844   1.569   1.230  0.00  0.00    -0.030 C 
ATOM      5  C   UNL     1      -2.076   1.859   0.877  0.00  0.00    -0.023 C 
ATOM      6  C   UNL     1      -2.288   1.583  -0.602  0.00  0.00    +0.050 C 
ATOM      7  C   UNL     1      -2.910   0.217  -0.737  0.00  0.00    +0.000 A 
ATOM      8  C   UNL     1      -4.177   0.030  -0.197  0.00  0.00    +0.047 A 
ATOM      9  C   UNL     1      -4.805  -1.196  -0.287  0.00  0.00    +0.022 A 
ATOM     10  C   UNL     1      -4.174  -2.253  -0.917  0.00  0.00    +0.023 A 
ATOM     11  C   UNL     1      -2.916  -2.077  -1.456  0.00  0.00    +0.062 A 
ATOM     12  C   UNL     1      -2.279  -0.838  -1.367  0.00  0.00    +0.051 A 
ATOM     13  N   UNL     1      -1.007  -0.714  -1.928  0.00  0.00    -0.335 N 
ATOM     14 CL   UNL     1      -2.121  -3.402  -2.247  0.00  0.00    -0.082 Cl
ATOM     15 CL   UNL     1      -4.978   1.350   0.596  0.00  0.00    -0.083 Cl
ATOM     16  H   UNL     1      -0.884  -1.362  -2.692  0.00  0.00    +0.147 HD
ENDROOT
BRANCH   1  26
ATOM     17  C   UNL     1      -2.501  -1.434  -6.683  0.00  0.00    +0.001 A 
ATOM     18  C   UNL     1      -1.574  -1.817  -5.715  0.00  0.00    +0.001 A 
ATOM     19  C   UNL     1      -1.311  -1.020  -4.644  0.00  0.00    +0.009 A 
ATOM     20  C   UNL     1      -1.978   0.211  -4.511  0.00  0.00    -0.009 A 
ATOM     21  C   UNL     1      -2.925   0.597  -5.494  0.00  0.00    -0.017 A 
ATOM     22  C   UNL     1      -3.170  -0.253  -6.586  0.00  0.00    +0.008 A 
ATOM     23  C   UNL     1      -3.597   1.825  -5.361  0.00  0.00    +0.012 A 
ATOM     24  C   UNL     1      -3.336   2.624  -4.292  0.00  0.00    +0.046 A 
ATOM     25  C   UNL     1      -2.407   2.242  -3.319  0.00  0.00    +0.122 A 
ATOM     26  C   UNL     1      -1.737   1.056  -3.417  0.00  0.00    +0.022 A 
BRANCH  25  27
ATOM     27  O   UNL     1      -2.169   3.062  -2.261  0.00  0.00    -0.506 OA
ATOM     28  H   UNL     1      -1.520   3.756  -2.440  0.00  0.00    +0.292 HD
ENDBRANCH  25  27
ENDBRANCH   1  26
TORSDOF 2
