REMARK  Name = ZINC12715997
REMARK  10 active torsions:
REMARK  status: ('A' for Active; 'I' for Inactive)
REMARK    1  A    between atoms: C_4  and  C_7
REMARK    2  A    between atoms: C_7  and  N_8
REMARK    3  A    between atoms: N_8  and  C_9
REMARK    4  A    between atoms: C_9  and  C_11
REMARK    5  A    between atoms: C_9  and  C_18
REMARK    6  A    between atoms: N_20  and  C_21
REMARK    7  A    between atoms: C_21  and  C_22
REMARK    8  A    between atoms: C_28  and  C_30
REMARK    9  A    between atoms: C_31  and  N_38
REMARK   10  A    between atoms: C_32  and  C_35
REMARK                            x       y       z     vdW  Elec       q    Type
REMARK                         _______ _______ _______ _____ _____    ______ ____
ROOT
ATOM      1  N   UNL     1      -3.306   1.190   0.300  0.00  0.00    -0.277 N 
ATOM      2  C   UNL     1      -2.447   0.676  -0.603  0.00  0.00    +0.258 C 
ATOM      3  O   UNL     1      -2.798   0.520  -1.758  0.00  0.00    -0.269 OA
ENDROOT
BRANCH   2   4
ATOM      4  C   UNL     1      -1.091   0.305  -0.193  0.00  0.00    +0.115 A 
ATOM      5  C   UNL     1      -0.137  -0.452  -0.875  0.00  0.00    +0.076 A 
ATOM      6  C   UNL     1       1.052  -0.586  -0.157  0.00  0.00    +0.155 A 
ATOM      7  N   UNL     1       1.154  -0.025   1.028  0.00  0.00    -0.203 NA
ATOM      8  S   UNL     1      -0.218   0.696   1.309  0.00  0.00    +0.019 S 
BRANCH   6   9
ATOM      9  C   UNL     1       2.181  -1.348  -0.721  0.00  0.00    +0.262 C 
ATOM     10  O   UNL     1       2.079  -1.864  -1.817  0.00  0.00    -0.269 OA
ATOM     11  N   UNL     1       3.326  -1.473  -0.021  0.00  0.00    -0.324 N 
ATOM     12  H   UNL     1       3.407  -1.062   0.854  0.00  0.00    +0.145 HD
ATOM     13  H   UNL     1       4.069  -1.975  -0.392  0.00  0.00    +0.145 HD
ENDBRANCH   6   9
BRANCH   5  14
ATOM     14  N   UNL     1      -0.345  -1.005  -2.132  0.00  0.00    -0.355 N 
ATOM     15  H   UNL     1       0.359  -1.519  -2.558  0.00  0.00    +0.142 HD
ATOM     16  H   UNL     1      -1.194  -0.877  -2.583  0.00  0.00    +0.142 HD
ENDBRANCH   5  14
ENDBRANCH   2   4
BRANCH   1  17
ATOM     17  C   UNL     1      -2.816   1.642   1.604  0.00  0.00    +0.144 C 
BRANCH  17  21
ATOM     18  C   UNL     1      -4.011  -1.139   4.617  0.00  0.00    +0.000 A 
ATOM     19  C   UNL     1      -2.881  -1.384   3.860  0.00  0.00    +0.000 A 
ATOM     20  C   UNL     1      -2.495  -0.484   2.884  0.00  0.00    +0.005 A 
ATOM     21  C   UNL     1      -3.237   0.661   2.667  0.00  0.00    -0.030 A 
ATOM     22  C   UNL     1      -4.364   0.909   3.429  0.00  0.00    +0.005 A 
ATOM     23  C   UNL     1      -4.754   0.006   4.400  0.00  0.00    +0.000 A 
ENDBRANCH  17  21
ENDBRANCH   1  17
BRANCH   1  24
ATOM     24  C   UNL     1      -4.731   1.297  -0.024  0.00  0.00    +0.193 C 
BRANCH  24  25
ATOM     25  C   UNL     1      -4.912   2.232  -1.192  0.00  0.00    -0.018 A 
ATOM     26  C   UNL     1      -4.148   3.380  -1.282  0.00  0.00    +0.009 A 
ATOM     27  C   UNL     1      -4.310   4.236  -2.355  0.00  0.00    +0.038 A 
ATOM     28  C   UNL     1      -5.245   3.948  -3.335  0.00  0.00    +0.123 A 
ATOM     29  C   UNL     1      -6.013   2.800  -3.241  0.00  0.00    +0.038 A 
ATOM     30  C   UNL     1      -5.846   1.943  -2.170  0.00  0.00    +0.009 A 
ATOM     31  F   UNL     1      -5.408   4.786  -4.382  0.00  0.00    -0.205 F 
ENDBRANCH  24  25
BRANCH  24  32
ATOM     32  C   UNL     1      -5.479   1.833   1.169  0.00  0.00    +0.238 C 
ATOM     33  O   UNL     1      -5.083   2.830   1.735  0.00  0.00    -0.273 OA
ATOM     34  N   UNL     1      -6.587   1.205   1.608  0.00  0.00    -0.311 N 
ATOM     35  H   UNL     1      -6.904   0.407   1.156  0.00  0.00    +0.149 HD
BRANCH  34  36
ATOM     36  C   UNL     1      -7.314   1.726   2.769  0.00  0.00    +0.135 C 
BRANCH  36  37
ATOM     37  C   UNL     1      -8.524   0.834   3.056  0.00  0.00    +0.135 C 
ATOM     38  C   UNL     1      -9.295   1.375   4.275  0.00  0.00    +0.035 C 
ATOM     39  C   UNL     1     -10.719   1.647   3.733  0.00  0.00    +0.031 C 
ATOM     40  C   UNL     1     -10.762   0.752   2.468  0.00  0.00    +0.160 C 
ATOM     41  O   UNL     1      -9.424   0.857   1.936  0.00  0.00    -0.375 OA
ENDBRANCH  36  37
ENDBRANCH  34  36
ENDBRANCH  24  32
ENDBRANCH   1  24
TORSDOF 10
