REMARK  Name = ZINC23327407
REMARK  9 active torsions:
REMARK  status: ('A' for Active; 'I' for Inactive)
REMARK    1  A    between atoms: C_1  and  C_2
REMARK    2  A    between atoms: C_2  and  C_4
REMARK    3  A    between atoms: C_2  and  N_14
REMARK    4  A    between atoms: C_15  and  C_17
REMARK    5  A    between atoms: C_17  and  S_18
REMARK    6  A    between atoms: S_18  and  C_19
REMARK    7  A    between atoms: C_22  and  C_31
REMARK    8  A    between atoms: N_23  and  C_24
REMARK    9  A    between atoms: C_24  and  C_25
REMARK                            x       y       z     vdW  Elec       q    Type
REMARK                         _______ _______ _______ _____ _____    ______ ____
ROOT
ATOM      1  S   UNL     1       2.888  -5.705   0.068  0.00  0.00    -0.077 S 
ENDROOT
BRANCH   1   2
ATOM      2  C   UNL     1       1.907  -4.243   0.011  0.00  0.00    +0.192 A 
ATOM      3  N   UNL     1       0.608  -4.183  -0.180  0.00  0.00    -0.122 NA
ATOM      4  N   UNL     1       0.215  -2.959  -0.164  0.00  0.00    -0.128 NA
ATOM      5  C   UNL     1       1.239  -2.163   0.038  0.00  0.00    +0.165 A 
ATOM      6  N   UNL     1       2.354  -2.960   0.151  0.00  0.00    -0.300 N 
BRANCH   5   7
ATOM      7  C   UNL     1       1.201  -0.688   0.123  0.00  0.00    +0.019 A 
ATOM      8  C   UNL     1       2.253   0.007   0.721  0.00  0.00    +0.014 A 
ATOM      9  C   UNL     1       2.213   1.383   0.797  0.00  0.00    +0.039 A 
ATOM     10  C   UNL     1       1.130   2.077   0.281  0.00  0.00    +0.123 A 
ATOM     11  C   UNL     1       0.082   1.392  -0.314  0.00  0.00    +0.039 A 
ATOM     12  C   UNL     1       0.112   0.016  -0.395  0.00  0.00    +0.014 A 
ATOM     13  F   UNL     1       1.095   3.425   0.358  0.00  0.00    -0.205 F 
ENDBRANCH   5   7
BRANCH   6  14
ATOM     14  C   UNL     1       3.735  -2.524   0.377  0.00  0.00    +0.157 C 
BRANCH  14  15
ATOM     15  C   UNL     1       4.024  -2.504   1.879  0.00  0.00    +0.138 C 
ATOM     16  C   UNL     1       5.437  -1.936   2.133  0.00  0.00    +0.035 C 
ATOM     17  C   UNL     1       5.952  -2.838   3.288  0.00  0.00    +0.031 C 
ATOM     18  C   UNL     1       5.282  -4.188   2.928  0.00  0.00    +0.160 C 
ATOM     19  O   UNL     1       3.994  -3.839   2.398  0.00  0.00    -0.375 OA
ENDBRANCH  14  15
ENDBRANCH   6  14
ENDBRANCH   1   2
BRANCH   1  20
ATOM     20  C   UNL     1       1.607  -6.955  -0.200  0.00  0.00    +0.173 C 
BRANCH  20  22
ATOM     21  N   UNL     1       1.464  -9.418  -0.373  0.00  0.00    -0.308 N 
ATOM     22  C   UNL     1       2.233  -8.326  -0.191  0.00  0.00    +0.224 C 
ATOM     23  O   UNL     1       3.427  -8.446  -0.020  0.00  0.00    -0.275 OA
ATOM     24  H   UNL     1       0.381  -9.309  -0.528  0.00  0.00    +0.149 HD
BRANCH  21  26
ATOM     25  C   UNL     1       2.609 -11.076  -1.759  0.00  0.00    +0.033 C 
ATOM     26  C   UNL     1       2.073 -10.751  -0.363  0.00  0.00    +0.100 C 
BRANCH  26  27
ATOM     27  C   UNL     1       1.037 -11.773   0.027  0.00  0.00    -0.027 A 
ATOM     28  C   UNL     1      -0.257 -11.668  -0.450  0.00  0.00    +0.006 A 
ATOM     29  C   UNL     1      -1.198 -12.609  -0.090  0.00  0.00    +0.004 A 
ATOM     30  C   UNL     1      -0.862 -13.656   0.758  0.00  0.00    -0.044 A 
ATOM     31  C   UNL     1       0.426 -13.760   1.235  0.00  0.00    -0.044 A 
ATOM     32  C   UNL     1       1.374 -12.814   0.867  0.00  0.00    +0.009 A 
ATOM     33  C   UNL     1       0.864 -14.874   2.150  0.00  0.00    +0.035 C 
ATOM     34  C   UNL     1      -0.346 -15.551   2.789  0.00  0.00    +0.005 C 
ATOM     35  C   UNL     1      -1.334 -15.925   1.678  0.00  0.00    +0.005 C 
ATOM     36  C   UNL     1      -1.943 -14.640   1.121  0.00  0.00    +0.035 C 
ENDBRANCH  26  27
ENDBRANCH  21  26
ENDBRANCH  20  22
ENDBRANCH   1  20
TORSDOF 8
