REMARK  Name = ZINC16825111
REMARK  10 active torsions:
REMARK  status: ('A' for Active; 'I' for Inactive)
REMARK    1  A    between atoms: C_1  and  C_2
REMARK    2  A    between atoms: C_2  and  C_4
REMARK    3  A    between atoms: C_2  and  S_14
REMARK    4  A    between atoms: N_9  and  C_10
REMARK    5  A    between atoms: C_10  and  C_11
REMARK    6  A    between atoms: C_10  and  C_12
REMARK    7  A    between atoms: C_10  and  C_13
REMARK    8  A    between atoms: S_14  and  C_15
REMARK    9  A    between atoms: C_18  and  C_19
REMARK   10  A    between atoms: N_27  and  C_28
REMARK                            x       y       z     vdW  Elec       q    Type
REMARK                         _______ _______ _______ _____ _____    ______ ____
ROOT
ATOM      1  C   UNL     1      -3.397   6.392  -0.137  0.00  0.00    +0.169 C 
ATOM      2  N   UNL     1      -2.510   5.436  -0.046  0.00  0.00    -0.220 NA
ATOM      3  C   UNL     1      -1.257   5.980  -0.070  0.00  0.00    +0.129 C 
ATOM      4  C   UNL     1      -0.069   5.312   0.003  0.00  0.00    +0.041 C 
ATOM      5  C   UNL     1      -1.452   7.439  -0.184  0.00  0.00    +0.275 C 
ATOM      6  O   UNL     1      -0.589   8.296  -0.232  0.00  0.00    -0.268 OA
ATOM      7  N   UNL     1      -2.790   7.622  -0.226  0.00  0.00    -0.214 N 
ENDROOT
BRANCH   7   8
ATOM      8  C   UNL     1      -3.447   8.856  -0.337  0.00  0.00    +0.044 A 
ATOM      9  C   UNL     1      -4.342   9.076  -1.374  0.00  0.00    +0.027 A 
ATOM     10  C   UNL     1      -4.991  10.291  -1.479  0.00  0.00    +0.040 A 
ATOM     11  C   UNL     1      -4.743  11.292  -0.555  0.00  0.00    +0.124 A 
ATOM     12  C   UNL     1      -3.846  11.075   0.478  0.00  0.00    +0.040 A 
ATOM     13  C   UNL     1      -3.199   9.861   0.589  0.00  0.00    +0.027 A 
ATOM     14  F   UNL     1      -5.375  12.481  -0.662  0.00  0.00    -0.205 F 
ENDBRANCH   7   8
BRANCH   4  15
ATOM     15  C   UNL     1      -0.052   3.844   0.015  0.00  0.00    -0.023 A 
ATOM     16  C   UNL     1      -1.252   3.126   0.088  0.00  0.00    +0.008 A 
ATOM     17  C   UNL     1      -1.227   1.748   0.100  0.00  0.00    +0.001 A 
ATOM     18  C   UNL     1      -0.020   1.074   0.038  0.00  0.00    +0.000 A 
ATOM     19  C   UNL     1       1.172   1.775  -0.030  0.00  0.00    +0.001 A 
ATOM     20  C   UNL     1       1.165   3.154  -0.048  0.00  0.00    +0.008 A 
ENDBRANCH   4  15
BRANCH   1  21
ATOM     21  S   UNL     1      -5.141   6.138  -0.143  0.00  0.00    -0.077 S 
BRANCH  21  23
ATOM     22  C   UNL     1      -4.583   3.704  -1.251  0.00  0.00    +0.029 C 
ATOM     23  C   UNL     1      -5.197   4.335   0.001  0.00  0.00    +0.137 C 
BRANCH  23  24
ATOM     24  C   UNL     1      -6.628   3.886   0.139  0.00  0.00    +0.233 C 
ATOM     25  O   UNL     1      -7.525   4.577  -0.296  0.00  0.00    -0.274 OA
ATOM     26  N   UNL     1      -6.912   2.717   0.746  0.00  0.00    -0.239 N 
ATOM     27  C   UNL     1      -8.193   2.316   0.869  0.00  0.00    +0.306 C 
ATOM     28  O   UNL     1      -9.092   3.008   0.433  0.00  0.00    -0.252 OA
ATOM     29  N   UNL     1      -8.477   1.146   1.476  0.00  0.00    -0.294 N 
ATOM     30  H   UNL     1      -6.195   2.164   1.094  0.00  0.00    +0.159 HD
ATOM     31  H   UNL     1      -7.760   0.594   1.825  0.00  0.00    +0.151 HD
BRANCH  29  32
ATOM     32  C   UNL     1      -9.869   0.710   1.611  0.00  0.00    +0.028 C 
ATOM     33  C   UNL     1     -10.495   0.567   0.222  0.00  0.00    +0.031 C 
ATOM     34  C   UNL     1      -9.914  -0.639   2.332  0.00  0.00    +0.031 C 
ATOM     35  C   UNL     1     -10.653   1.746   2.419  0.00  0.00    +0.031 C 
ENDBRANCH  29  32
ENDBRANCH  23  24
ENDBRANCH  21  23
ENDBRANCH   1  21
TORSDOF 6
