REMARK  Name = ZINC15183612
REMARK  7 active torsions:
REMARK  status: ('A' for Active; 'I' for Inactive)
REMARK    1  A    between atoms: C_1  and  C_2
REMARK    2  A    between atoms: C_2  and  C_4
REMARK    3  A    between atoms: C_2  and  S_10
REMARK    4  A    between atoms: S_10  and  C_11
REMARK    5  A    between atoms: N_25  and  C_26
REMARK    6  A    between atoms: C_29  and  O_32
REMARK    7  A    between atoms: O_32  and  C_33
REMARK                            x       y       z     vdW  Elec       q    Type
REMARK                         _______ _______ _______ _____ _____    ______ ____
ROOT
ATOM      1  C   UNL     1       1.242   2.761   4.655  0.00  0.00    +0.178 A 
ATOM      2  N   UNL     1      -0.038   2.988   4.442  0.00  0.00    -0.215 NA
ATOM      3  C   UNL     1      -0.729   2.234   3.595  0.00  0.00    +0.117 A 
ATOM      4  C   UNL     1      -0.144   1.168   2.893  0.00  0.00    +0.076 A 
ATOM      5  C   UNL     1      -1.035   0.421   1.994  0.00  0.00    -0.023 A 
ATOM      6  C   UNL     1      -2.311   0.842   1.921  0.00  0.00    -0.004 A 
ATOM      7  S   UNL     1      -2.415   2.213   3.041  0.00  0.00    -0.073 S 
ATOM      8  C   UNL     1      -3.413   0.281   1.077  0.00  0.00    +0.043 C 
ATOM      9  C   UNL     1      -3.460  -1.243   1.248  0.00  0.00    +0.005 C 
ATOM     10  C   UNL     1      -2.543  -1.871   0.203  0.00  0.00    +0.001 C 
ATOM     11  C   UNL     1      -1.354  -0.952  -0.069  0.00  0.00    +0.005 C 
ATOM     12  C   UNL     1      -0.520  -0.772   1.194  0.00  0.00    +0.037 C 
ATOM     13  C   UNL     1       1.246   0.944   3.144  0.00  0.00    +0.268 A 
ATOM     14  O   UNL     1       1.839   0.041   2.579  0.00  0.00    -0.267 OA
ATOM     15  N   UNL     1       1.891   1.745   4.013  0.00  0.00    -0.255 N 
ENDROOT
BRANCH  15  16
ATOM     16  C   UNL     1       3.255   1.532   4.263  0.00  0.00    +0.052 A 
ATOM     17  C   UNL     1       4.212   2.172   3.487  0.00  0.00    +0.030 A 
ATOM     18  C   UNL     1       5.554   1.966   3.736  0.00  0.00    +0.047 A 
ATOM     19  C   UNL     1       5.947   1.112   4.756  0.00  0.00    +0.120 A 
ATOM     20  C   UNL     1       4.991   0.468   5.529  0.00  0.00    +0.047 A 
ATOM     21  C   UNL     1       3.649   0.677   5.283  0.00  0.00    +0.030 A 
BRANCH  19  22
ATOM     22  O   UNL     1       7.268   0.905   4.999  0.00  0.00    -0.495 OA
ATOM     23  C   UNL     1       8.197   1.601   4.165  0.00  0.00    +0.277 C 
ENDBRANCH  19  22
ENDBRANCH  15  16
BRANCH   1  24
ATOM     24  S   UNL     1       2.129   3.782   5.785  0.00  0.00    -0.075 S 
BRANCH  24  26
ATOM     25  C   UNL     1      -0.265   4.113   7.058  0.00  0.00    +0.029 C 
ATOM     26  C   UNL     1       0.805   4.903   6.302  0.00  0.00    +0.137 C 
BRANCH  26  27
ATOM     27  C   UNL     1       1.373   5.969   7.203  0.00  0.00    +0.233 C 
ATOM     28  O   UNL     1       2.434   5.789   7.761  0.00  0.00    -0.274 OA
ATOM     29  N   UNL     1       0.701   7.122   7.389  0.00  0.00    -0.239 N 
ATOM     30  C   UNL     1       1.208   8.076   8.195  0.00  0.00    +0.303 C 
ATOM     31  O   UNL     1       2.272   7.896   8.754  0.00  0.00    -0.253 OA
ATOM     32  N   UNL     1       0.536   9.229   8.380  0.00  0.00    -0.313 N 
ATOM     33  H   UNL     1      -0.149   7.266   6.943  0.00  0.00    +0.159 HD
ATOM     34  H   UNL     1      -0.313   9.373   7.934  0.00  0.00    +0.146 HD
ATOM     35  H   UNL     1       0.901   9.915   8.960  0.00  0.00    +0.146 HD
ENDBRANCH  26  27
ENDBRANCH  24  26
ENDBRANCH   1  24
TORSDOF 5
