REMARK  Name = ZINC06407807
REMARK  14 active torsions:
REMARK  status: ('A' for Active; 'I' for Inactive)
REMARK    1  A    between atoms: C_1  and  C_2
REMARK    2  A    between atoms: C_5  and  C_7
REMARK    3  A    between atoms: C_12  and  C_17
REMARK    4  A    between atoms: C_20  and  O_25
REMARK    5  A    between atoms: C_21  and  O_23
REMARK    6  A    between atoms: O_23  and  C_24
REMARK    7  A    between atoms: O_25  and  C_26
REMARK    8  A    between atoms: C_28  and  C_37
REMARK    9  A    between atoms: C_29  and  C_30
REMARK   10  A    between atoms: C_30  and  O_32
REMARK   11  A    between atoms: O_32  and  C_33
REMARK   12  A    between atoms: C_33  and  C_34
REMARK   13  A    between atoms: C_34  and  C_35
REMARK   14  A    between atoms: C_34  and  C_36
REMARK                            x       y       z     vdW  Elec       q    Type
REMARK                         _______ _______ _______ _____ _____    ______ ____
ROOT
ATOM      1  C   UNL     1      -1.833   2.670   3.538  0.00  0.00    +0.128 C 
ATOM      2  C   UNL     1      -2.703   2.529   4.764  0.00  0.00    +0.027 C 
ATOM      3  C   UNL     1      -2.231   1.928   5.877  0.00  0.00    +0.016 C 
ATOM      4  C   UNL     1      -3.091   1.789   7.109  0.00  0.00    +0.059 C 
ATOM      5  C   UNL     1      -4.070   2.962   7.188  0.00  0.00    +0.032 C 
ATOM      6  C   UNL     1      -4.920   2.972   5.912  0.00  0.00    +0.088 C 
ATOM      7  C   UNL     1      -4.008   3.049   4.718  0.00  0.00    +0.162 C 
ATOM      8  O   UNL     1      -4.408   3.568   3.695  0.00  0.00    -0.292 OA
ATOM      9  N   UNL     1      -0.958   1.427   5.909  0.00  0.00    -0.321 N 
ATOM     10  C   UNL     1      -0.287   1.156   4.749  0.00  0.00    +0.016 C 
ATOM     11  C   UNL     1      -0.672   1.721   3.592  0.00  0.00    +0.068 C 
ATOM     12  C   UNL     1       0.893   0.218   4.768  0.00  0.00    +0.061 C 
ATOM     13  H   UNL     1      -0.465   1.238   6.874  0.00  0.00    +0.152 HD
ENDROOT
BRANCH   1  18
ATOM     14  C   UNL     1       0.582   6.944   4.696  0.00  0.00    +0.086 C 
ATOM     15  C   UNL     1      -0.264   5.940   3.955  0.00  0.00    +0.102 A 
ATOM     16  C   UNL     1      -0.881   6.148   2.778  0.00  0.00    +0.044 A 
ATOM     17  C   UNL     1      -1.554   4.948   2.451  0.00  0.00    +0.046 A 
ATOM     18  C   UNL     1      -1.315   4.082   3.451  0.00  0.00    +0.117 A 
ATOM     19  O   UNL     1      -0.530   4.687   4.358  0.00  0.00    -0.464 OA
ENDBRANCH   1  18
BRANCH   5  20
ATOM     20  C   UNL     1      -4.960   2.800   8.393  0.00  0.00    -0.040 A 
ATOM     21  C   UNL     1      -5.768   1.684   8.508  0.00  0.00    +0.008 A 
ATOM     22  C   UNL     1      -6.586   1.530   9.611  0.00  0.00    +0.049 A 
ATOM     23  C   UNL     1      -6.597   2.495  10.606  0.00  0.00    +0.161 A 
ATOM     24  C   UNL     1      -5.784   3.618  10.490  0.00  0.00    +0.162 A 
ATOM     25  C   UNL     1      -4.962   3.763   9.384  0.00  0.00    +0.053 A 
BRANCH  24  26
ATOM     26  O   UNL     1      -5.791   4.567  11.463  0.00  0.00    -0.491 OA
ATOM     27  C   UNL     1      -4.930   5.693  11.278  0.00  0.00    +0.277 C 
ENDBRANCH  24  26
BRANCH  23  28
ATOM     28  O   UNL     1      -7.401   2.344  11.692  0.00  0.00    -0.491 OA
ATOM     29  C   UNL     1      -8.209   1.167  11.744  0.00  0.00    +0.277 C 
ENDBRANCH  23  28
ENDBRANCH   5  20
BRANCH  11  30
ATOM     30  C   UNL     1       0.034   1.420   2.404  0.00  0.00    +0.338 C 
ATOM     31  O   UNL     1      -0.461   0.680   1.573  0.00  0.00    -0.245 OA
BRANCH  30  32
ATOM     32  O   UNL     1       1.255   1.952   2.191  0.00  0.00    -0.461 OA
BRANCH  32  33
ATOM     33  C   UNL     1       1.911   1.605   0.970  0.00  0.00    +0.235 C 
BRANCH  33  34
ATOM     34  C   UNL     1       3.273   2.298   0.907  0.00  0.00    +0.020 C 
ATOM     35  C   UNL     1       4.174   1.755   2.019  0.00  0.00    +0.010 C 
ATOM     36  C   UNL     1       3.921   2.028  -0.452  0.00  0.00    +0.010 C 
ENDBRANCH  33  34
ENDBRANCH  32  33
ENDBRANCH  30  32
ENDBRANCH  11  30
TORSDOF 8
