REMARK  Name = ZINC36799715
REMARK  12 active torsions:
REMARK  status: ('A' for Active; 'I' for Inactive)
REMARK    1  A    between atoms: C_1  and  C_2
REMARK    2  A    between atoms: C_10  and  C_11
REMARK    3  A    between atoms: N_13  and  C_14
REMARK    4  A    between atoms: N_13  and  C_18
REMARK    5  A    between atoms: C_14  and  C_15
REMARK    6  A    between atoms: C_15  and  C_16
REMARK    7  A    between atoms: C_15  and  C_17
REMARK    8  A    between atoms: C_19  and  N_31
REMARK    9  A    between atoms: N_20  and  C_27
REMARK   10  A    between atoms: C_27  and  C_28
REMARK   11  A    between atoms: C_28  and  C_29
REMARK   12  A    between atoms: C_28  and  C_30
REMARK                            x       y       z     vdW  Elec       q    Type
REMARK                         _______ _______ _______ _____ _____    ______ ____
ROOT
ATOM      1  C   UNL     1      -0.225  -0.415   2.726  0.00  0.00    +0.287 C 
ATOM      2  O   UNL     1      -0.402  -0.698   1.555  0.00  0.00    -0.266 OA
ATOM      3  N   UNL     1       0.224  -1.352   3.585  0.00  0.00    -0.257 N 
ENDROOT
BRANCH   1  13
ATOM      4  C   UNL     1      -1.258   1.924   0.955  0.00  0.00    +0.048 C 
ATOM      5  C   UNL     1      -0.952   1.969   2.430  0.00  0.00    +0.008 A 
ATOM      6  C   UNL     1      -1.086   3.121   3.321  0.00  0.00    +0.025 A 
ATOM      7  C   UNL     1      -1.499   4.445   3.146  0.00  0.00    +0.012 A 
ATOM      8  C   UNL     1      -1.510   5.298   4.213  0.00  0.00    +0.002 A 
ATOM      9  C   UNL     1      -1.114   4.859   5.469  0.00  0.00    +0.024 A 
ATOM     10  C   UNL     1      -0.703   3.557   5.663  0.00  0.00    +0.084 A 
ATOM     11  C   UNL     1      -0.684   2.670   4.592  0.00  0.00    +0.154 A 
ATOM     12  O   UNL     1      -0.342   1.372   4.473  0.00  0.00    -0.448 OA
ATOM     13  C   UNL     1      -0.501   0.947   3.203  0.00  0.00    +0.194 A 
ATOM     14 CL   UNL     1      -0.210   3.026   7.241  0.00  0.00    -0.080 Cl
ENDBRANCH   1  13
BRANCH   3  15
ATOM     15  C   UNL     1       0.332  -1.054   4.959  0.00  0.00    +0.140 A 
ATOM     16  C   UNL     1      -0.576  -1.568   5.862  0.00  0.00    +0.127 A 
ATOM     17  N   UNL     1      -0.444  -1.260   7.196  0.00  0.00    -0.280 N 
ATOM     18  C   UNL     1       0.559  -0.467   7.616  0.00  0.00    +0.331 A 
ATOM     19  O   UNL     1       0.659  -0.207   8.799  0.00  0.00    -0.246 OA
ATOM     20  N   UNL     1       1.454   0.041   6.750  0.00  0.00    -0.273 N 
ATOM     21  H   UNL     1       2.168   0.610   7.078  0.00  0.00    +0.173 HD
ATOM     22  C   UNL     1       1.373  -0.234   5.434  0.00  0.00    +0.277 A 
ATOM     23  O   UNL     1       2.192   0.229   4.658  0.00  0.00    -0.266 OA
BRANCH  16  24
ATOM     24  N   UNL     1      -1.602  -2.376   5.434  0.00  0.00    -0.343 N 
ATOM     25  H   UNL     1      -1.653  -2.641   4.502  0.00  0.00    +0.144 HD
ATOM     26  H   UNL     1      -2.273  -2.682   6.063  0.00  0.00    +0.144 HD
ENDBRANCH  16  24
BRANCH  17  27
ATOM     27  C   UNL     1      -1.401  -1.797   8.166  0.00  0.00    +0.131 C 
BRANCH  27  28
ATOM     28  C   UNL     1      -0.896  -3.144   8.688  0.00  0.00    +0.003 C 
ATOM     29  C   UNL     1       0.400  -2.933   9.473  0.00  0.00    +0.009 C 
ATOM     30  C   UNL     1      -1.952  -3.764   9.605  0.00  0.00    +0.009 C 
ENDBRANCH  27  28
ENDBRANCH  17  27
ENDBRANCH   3  15
BRANCH   3  31
ATOM     31  C   UNL     1       0.599  -2.679   3.091  0.00  0.00    +0.117 C 
BRANCH  31  32
ATOM     32  C   UNL     1       2.109  -2.726   2.851  0.00  0.00    +0.001 C 
ATOM     33  C   UNL     1       2.521  -4.149   2.468  0.00  0.00    +0.009 C 
ATOM     34  C   UNL     1       2.475  -1.766   1.717  0.00  0.00    +0.009 C 
ENDBRANCH  31  32
ENDBRANCH   3  31
TORSDOF 7
