REMARK  Name = ZINC34900397
REMARK  9 active torsions:
REMARK  status: ('A' for Active; 'I' for Inactive)
REMARK    1  A    between atoms: C_1  and  C_2
REMARK    2  A    between atoms: C_7  and  C_8
REMARK    3  A    between atoms: N_10  and  C_11
REMARK    4  A    between atoms: C_17  and  N_19
REMARK    5  A    between atoms: C_20  and  C_22
REMARK    6  A    between atoms: C_29  and  C_31
REMARK    7  A    between atoms: C_31  and  C_32
REMARK    8  A    between atoms: C_31  and  C_33
REMARK    9  A    between atoms: C_31  and  C_34
REMARK                            x       y       z     vdW  Elec       q    Type
REMARK                         _______ _______ _______ _____ _____    ______ ____
ROOT
ATOM      1  C   UNL     1       0.081  -2.711   2.776  0.00  0.00    +0.093 C 
ATOM      2  C   UNL     1       1.593  -2.791   2.557  0.00  0.00    +0.024 C 
ATOM      3  C   UNL     1       1.994  -4.244   2.294  0.00  0.00    +0.002 C 
ATOM      4  C   UNL     1       1.607  -5.106   3.498  0.00  0.00    +0.002 C 
ATOM      5  C   UNL     1       0.095  -5.026   3.717  0.00  0.00    +0.024 C 
ATOM      6  C   UNL     1      -0.306  -3.573   3.980  0.00  0.00    +0.093 C 
ENDROOT
BRANCH   1   9
ATOM      7  C   UNL     1      -0.849  -2.366   0.550  0.00  0.00    +0.245 C 
ATOM      8  O   UNL     1      -0.486  -1.208   0.610  0.00  0.00    -0.270 OA
ATOM      9  N   UNL     1      -0.613  -3.201   1.582  0.00  0.00    -0.307 N 
ATOM     10  H   UNL     1      -0.902  -4.125   1.534  0.00  0.00    +0.149 HD
BRANCH   7  17
ATOM     11  C   UNL     1      -1.577  -0.508  -1.544  0.00  0.00    +0.044 C 
ATOM     12  C   UNL     1      -1.904  -1.973  -1.671  0.00  0.00    -0.038 A 
ATOM     13  C   UNL     1      -2.552  -2.442  -2.796  0.00  0.00    +0.004 A 
ATOM     14  C   UNL     1      -2.854  -3.787  -2.914  0.00  0.00    +0.000 A 
ATOM     15  C   UNL     1      -2.509  -4.671  -1.907  0.00  0.00    +0.001 A 
ATOM     16  C   UNL     1      -1.861  -4.215  -0.778  0.00  0.00    +0.013 A 
ATOM     17  C   UNL     1      -1.548  -2.861  -0.655  0.00  0.00    +0.040 A 
ENDBRANCH   7  17
ENDBRANCH   1   9
BRANCH   6  18
ATOM     18  N   UNL     1      -1.754  -3.496   4.190  0.00  0.00    -0.310 N 
ATOM     19  C   UNL     1      -2.270  -3.724   5.414  0.00  0.00    +0.218 C 
ATOM     20  O   UNL     1      -1.536  -3.993   6.341  0.00  0.00    -0.275 OA
ATOM     21  H   UNL     1      -2.341  -3.281   3.449  0.00  0.00    +0.149 HD
BRANCH  19  22
ATOM     22  C   UNL     1      -3.760  -3.646   5.630  0.00  0.00    +0.092 C 
ATOM     23  C   UNL     1      -4.460  -4.673   4.738  0.00  0.00    +0.016 C 
ATOM     24  C   UNL     1      -5.975  -4.571   4.932  0.00  0.00    +0.020 C 
ATOM     25  C   UNL     1      -6.320  -4.883   6.392  0.00  0.00    +0.108 C 
ATOM     26  N   UNL     1      -5.539  -3.995   7.263  0.00  0.00    -0.300 N 
ATOM     27  C   UNL     1      -4.080  -3.947   7.098  0.00  0.00    +0.120 C 
ATOM     28  C   UNL     1      -6.149  -3.238   8.196  0.00  0.00    +0.221 C 
ATOM     29  O   UNL     1      -5.508  -2.433   8.838  0.00  0.00    -0.275 OA
BRANCH  28  30
ATOM     30  C   UNL     1      -7.628  -3.392   8.443  0.00  0.00    +0.039 C 
ATOM     31  C   UNL     1      -8.026  -2.582   9.678  0.00  0.00    +0.020 C 
ATOM     32  C   UNL     1      -8.403  -2.881   7.226  0.00  0.00    +0.020 C 
ATOM     33  C   UNL     1      -7.955  -4.868   8.673  0.00  0.00    +0.020 C 
ENDBRANCH  28  30
ENDBRANCH  19  22
ENDBRANCH   6  18
TORSDOF 5
