REMARK  Name = ZINC21159716
REMARK  7 active torsions:
REMARK  status: ('A' for Active; 'I' for Inactive)
REMARK    1  A    between atoms: C_1  and  C_2
REMARK    2  A    between atoms: C_5  and  C_33
REMARK    3  A    between atoms: C_6  and  C_8
REMARK    4  A    between atoms: C_8  and  N_9
REMARK    5  A    between atoms: C_21  and  C_24
REMARK    6  A    between atoms: N_26  and  C_27
REMARK    7  A    between atoms: C_27  and  C_28
REMARK                            x       y       z     vdW  Elec       q    Type
REMARK                         _______ _______ _______ _____ _____    ______ ____
ROOT
ATOM      1  N   UNL     1       1.648   4.727   0.374  0.00  0.00    -0.309 N 
ATOM      2  C   UNL     1       0.473   4.117  -0.034  0.00  0.00    +0.068 A 
ATOM      3  C   UNL     1      -0.106   2.882   0.215  0.00  0.00    +0.028 A 
ATOM      4  C   UNL     1      -1.320   2.564  -0.357  0.00  0.00    +0.002 A 
ATOM      5  C   UNL     1      -1.964   3.470  -1.187  0.00  0.00    +0.002 A 
ATOM      6  C   UNL     1      -1.407   4.703  -1.441  0.00  0.00    +0.028 A 
ATOM      7  C   UNL     1      -0.177   5.040  -0.869  0.00  0.00    +0.065 A 
ATOM      8  N   UNL     1       0.610   6.146  -0.931  0.00  0.00    -0.327 N 
ATOM      9  C   UNL     1       1.682   5.965  -0.202  0.00  0.00    +0.177 A 
ATOM     10  N   UNL     1       2.696   6.886  -0.040  0.00  0.00    -0.302 N 
ATOM     11  C   UNL     1       3.592   6.893  -1.203  0.00  0.00    +0.108 C 
ATOM     12  C   UNL     1       4.781   7.816  -0.927  0.00  0.00    +0.032 C 
ATOM     13  C   UNL     1       4.267   9.232  -0.647  0.00  0.00    +0.078 C 
ATOM     14  C   UNL     1       3.298   9.189   0.537  0.00  0.00    +0.032 C 
ATOM     15  C   UNL     1       2.152   8.226   0.219  0.00  0.00    +0.108 C 
ATOM     16  H   UNL     1       0.297   7.011  -1.535  0.00  0.00    +0.169 HD
ENDROOT
BRANCH  13  17
ATOM     17  C   UNL     1       5.428  10.133  -0.316  0.00  0.00    +0.216 C 
ATOM     18  O   UNL     1       5.477  10.688   0.761  0.00  0.00    -0.276 OA
ATOM     19  N   UNL     1       6.412  10.323  -1.217  0.00  0.00    -0.310 N 
ATOM     20  H   UNL     1       6.368   9.819  -2.195  0.00  0.00    +0.149 HD
BRANCH  19  21
ATOM     21  C   UNL     1       7.541  11.199  -0.895  0.00  0.00    +0.146 C 
BRANCH  21  22
ATOM     22  C   UNL     1       8.494  11.240  -2.062  0.00  0.00    +0.007 A 
ATOM     23  C   UNL     1       8.510  12.084  -3.122  0.00  0.00    +0.013 A 
ATOM     24  C   UNL     1       9.491  11.934  -4.085  0.00  0.00    +0.008 A 
ATOM     25  C   UNL     1      10.408  10.946  -3.940  0.00  0.00    +0.045 A 
ATOM     26  S   UNL     1       9.900  10.193  -2.403  0.00  0.00    -0.100 S 
ENDBRANCH  21  22
ENDBRANCH  19  21
ENDBRANCH  13  17
BRANCH   1  27
ATOM     27  C   UNL     1       2.664   4.152   1.259  0.00  0.00    +0.160 C 
BRANCH  27  33
ATOM     28  C   UNL     1       2.723   7.842   4.639  0.00  0.00    +0.044 C 
ATOM     29  C   UNL     1       2.463   6.401   4.285  0.00  0.00    -0.050 A 
ATOM     30  C   UNL     1       2.013   5.522   5.252  0.00  0.00    +0.003 A 
ATOM     31  C   UNL     1       1.774   4.200   4.928  0.00  0.00    +0.004 A 
ATOM     32  C   UNL     1       1.979   3.758   3.634  0.00  0.00    -0.046 A 
ATOM     33  C   UNL     1       2.434   4.635   2.668  0.00  0.00    -0.025 A 
ATOM     34  C   UNL     1       2.674   5.958   2.993  0.00  0.00    +0.009 A 
ATOM     35  C   UNL     1       1.712   2.318   3.278  0.00  0.00    +0.044 C 
ENDBRANCH  27  33
ENDBRANCH   1  27
TORSDOF 5
