REMARK  Name = ZINC08965823
REMARK  7 active torsions:
REMARK  status: ('A' for Active; 'I' for Inactive)
REMARK    1  A    between atoms: C_1  and  C_2
REMARK    2  A    between atoms: C_12  and  C_14
REMARK    3  A    between atoms: C_14  and  S_15
REMARK    4  A    between atoms: S_15  and  C_16
REMARK    5  A    between atoms: C_19  and  C_28
REMARK    6  A    between atoms: N_20  and  C_21
REMARK    7  A    between atoms: C_21  and  C_22
REMARK                            x       y       z     vdW  Elec       q    Type
REMARK                         _______ _______ _______ _____ _____    ______ ____
ROOT
ATOM      1  C   UNL     1       1.464   4.236  -0.088  0.00  0.00    +0.192 A 
ATOM      2  N   UNL     1       0.311   4.865  -0.141  0.00  0.00    -0.122 NA
ATOM      3  N   UNL     1       0.481   6.117   0.092  0.00  0.00    -0.128 NA
ATOM      4  C   UNL     1       1.752   6.365   0.307  0.00  0.00    +0.165 A 
ATOM      5  N   UNL     1       2.420   5.167   0.204  0.00  0.00    -0.300 N 
ENDROOT
BRANCH   4   6
ATOM      6  C   UNL     1       2.352   7.682   0.609  0.00  0.00    +0.019 A 
ATOM      7  C   UNL     1       1.544   8.739   1.033  0.00  0.00    +0.014 A 
ATOM      8  C   UNL     1       2.110   9.964   1.319  0.00  0.00    +0.039 A 
ATOM      9  C   UNL     1       3.475  10.150   1.174  0.00  0.00    +0.123 A 
ATOM     10  C   UNL     1       4.281   9.106   0.748  0.00  0.00    +0.039 A 
ATOM     11  C   UNL     1       3.726   7.875   0.465  0.00  0.00    +0.014 A 
ATOM     12  F   UNL     1       4.024  11.353   1.450  0.00  0.00    -0.205 F 
ENDBRANCH   4   6
BRANCH   1  13
ATOM     13  S   UNL     1       1.726   2.512  -0.340  0.00  0.00    -0.077 S 
BRANCH  13  14
ATOM     14  C   UNL     1       0.026   1.979  -0.663  0.00  0.00    +0.173 C 
BRANCH  14  25
ATOM     15  C   UNL     1      -1.343  -7.792  -2.414  0.00  0.00    +0.008 C 
ATOM     16  C   UNL     1      -1.010  -6.417  -1.831  0.00  0.00    -0.009 C 
ATOM     17  C   UNL     1       0.311  -5.916  -2.421  0.00  0.00    +0.010 C 
ATOM     18  C   UNL     1       0.781  -4.667  -1.672  0.00  0.00    +0.056 C 
ATOM     19  C   UNL     1      -0.353  -3.649  -1.656  0.00  0.00    +0.054 A 
ATOM     20  C   UNL     1      -1.630  -4.044  -1.897  0.00  0.00    +0.015 A 
ATOM     21  S   UNL     1      -2.538  -2.527  -1.767  0.00  0.00    -0.057 S 
ATOM     22  C   UNL     1      -1.182  -1.499  -1.409  0.00  0.00    +0.165 A 
ATOM     23  N   UNL     1      -0.179  -2.351  -1.420  0.00  0.00    -0.229 NA
ATOM     24  N   UNL     1      -1.162  -0.128  -1.178  0.00  0.00    -0.264 N 
ATOM     25  C   UNL     1       0.004   0.493  -0.914  0.00  0.00    +0.229 C 
ATOM     26  O   UNL     1       1.036  -0.143  -0.878  0.00  0.00    -0.275 OA
ATOM     27  C   UNL     1      -2.122  -5.420  -2.193  0.00  0.00    +0.047 C 
ATOM     28  H   UNL     1      -1.987   0.381  -1.206  0.00  0.00    +0.157 HD
ENDBRANCH  14  25
ENDBRANCH  13  14
ENDBRANCH   1  13
BRANCH   5  29
ATOM     29  C   UNL     1       3.857   4.937   0.370  0.00  0.00    +0.157 C 
BRANCH  29  30
ATOM     30  C   UNL     1       4.534   4.926  -1.002  0.00  0.00    +0.138 C 
ATOM     31  C   UNL     1       6.049   4.678  -0.836  0.00  0.00    +0.035 C 
ATOM     32  C   UNL     1       6.657   5.629  -1.903  0.00  0.00    +0.031 C 
ATOM     33  C   UNL     1       5.654   6.809  -1.852  0.00  0.00    +0.160 C 
ATOM     34  O   UNL     1       4.370   6.201  -1.634  0.00  0.00    -0.375 OA
ENDBRANCH  29  30
ENDBRANCH   5  29
TORSDOF 6
