REMARK  Name = ZINC66728860
REMARK  7 active torsions:
REMARK  status: ('A' for Active; 'I' for Inactive)
REMARK    1  A    between atoms: C_1  and  C_2
REMARK    2  A    between atoms: C_5  and  C_8
REMARK    3  A    between atoms: C_12  and  C_13
REMARK    4  A    between atoms: C_22  and  C_24
REMARK    5  A    between atoms: C_24  and  C_25
REMARK    6  A    between atoms: C_24  and  C_26
REMARK    7  A    between atoms: C_24  and  C_27
REMARK                            x       y       z     vdW  Elec       q    Type
REMARK                         _______ _______ _______ _____ _____    ______ ____
ROOT
ATOM      1  C   UNL     1       1.686  -4.810   2.356  0.00  0.00    +0.254 C 
ATOM      2  O   UNL     1       0.793  -5.144   1.599  0.00  0.00    -0.269 OA
ATOM      3  N   UNL     1       2.591  -5.717   2.773  0.00  0.00    -0.296 N 
ATOM      4  C   UNL     1       3.574  -5.391   3.746  0.00  0.00    +0.109 C 
ATOM      5  C   UNL     1       4.851  -4.694   3.174  0.00  0.00    +0.038 C 
ATOM      6  C   UNL     1       5.169  -5.363   1.797  0.00  0.00    +0.109 C 
ATOM      7  N   UNL     1       4.939  -6.765   1.753  0.00  0.00    -0.299 N 
ATOM      8  C   UNL     1       3.634  -7.219   1.208  0.00  0.00    +0.126 C 
ATOM      9  C   UNL     1       2.602  -7.104   2.240  0.00  0.00    +0.127 C 
ATOM     10  C   UNL     1       5.864  -7.644   2.187  0.00  0.00    +0.221 C 
ATOM     11  O   UNL     1       6.878  -7.244   2.719  0.00  0.00    -0.275 OA
ENDROOT
BRANCH   1  16
ATOM     12  C   UNL     1       1.025  -2.313   2.415  0.00  0.00    +0.001 A 
ATOM     13  C   UNL     1       1.349  -1.123   3.046  0.00  0.00    +0.017 A 
ATOM     14  C   UNL     1       2.338  -1.117   3.968  0.00  0.00    +0.046 A 
ATOM     15  S   UNL     1       2.872  -2.708   4.024  0.00  0.00    -0.092 S 
ATOM     16  C   UNL     1       1.776  -3.423   2.814  0.00  0.00    +0.082 A 
BRANCH  12  21
ATOM     17  C   UNL     1      -3.131  -2.663  -1.553  0.00  0.00    +0.044 C 
ATOM     18  C   UNL     1      -2.043  -2.572  -0.515  0.00  0.00    -0.050 A 
ATOM     19  C   UNL     1      -2.298  -1.954   0.697  0.00  0.00    +0.004 A 
ATOM     20  C   UNL     1      -1.306  -1.867   1.652  0.00  0.00    +0.009 A 
ATOM     21  C   UNL     1      -0.045  -2.404   1.394  0.00  0.00    -0.017 A 
ATOM     22  C   UNL     1       0.205  -3.026   0.171  0.00  0.00    +0.009 A 
ATOM     23  C   UNL     1      -0.796  -3.112  -0.774  0.00  0.00    +0.004 A 
ENDBRANCH  12  21
ENDBRANCH   1  16
BRANCH  10  24
ATOM     24  C   UNL     1       5.639  -9.123   2.010  0.00  0.00    +0.039 C 
ATOM     25  C   UNL     1       6.816  -9.894   2.614  0.00  0.00    +0.020 C 
ATOM     26  C   UNL     1       4.346  -9.531   2.720  0.00  0.00    +0.020 C 
ATOM     27  C   UNL     1       5.527  -9.448   0.520  0.00  0.00    +0.020 C 
ENDBRANCH  10  24
TORSDOF 3
