REMARK  Name = ZINC08745791
REMARK  12 active torsions:
REMARK  status: ('A' for Active; 'I' for Inactive)
REMARK    1  A    between atoms: C_1  and  C_2
REMARK    2  A    between atoms: C_5  and  C_8
REMARK    3  A    between atoms: C_8  and  N_9
REMARK    4  A    between atoms: C_10  and  C_34
REMARK    5  A    between atoms: C_11  and  C_15
REMARK    6  A    between atoms: C_12  and  C_14
REMARK    7  A    between atoms: N_17  and  C_18
REMARK    8  A    between atoms: C_18  and  C_19
REMARK    9  A    between atoms: C_19  and  C_21
REMARK   10  A    between atoms: C_19  and  N_68
REMARK   11  A    between atoms: C_24  and  O_27
REMARK   12  A    between atoms: O_27  and  C_28
REMARK                            x       y       z     vdW  Elec       q    Type
REMARK                         _______ _______ _______ _____ _____    ______ ____
ROOT
ATOM      1  C   UNL     1       4.901   2.661   2.910  0.00  0.00    +0.248 C 
ATOM      2  O   UNL     1       6.059   2.296   2.845  0.00  0.00    -0.270 OA
ATOM      3  N   UNL     1       3.904   1.763   2.788  0.00  0.00    -0.312 N 
ATOM      4  H   UNL     1       2.980   2.054   2.840  0.00  0.00    +0.149 HD
ENDROOT
BRANCH   1   7
ATOM      5  N   UNL     1       4.150   6.006   4.092  0.00  0.00    -0.263 N 
ATOM      6  C   UNL     1       4.420   4.715   4.340  0.00  0.00    +0.049 A 
ATOM      7  C   UNL     1       4.588   4.086   3.123  0.00  0.00    +0.080 A 
ATOM      8  C   UNL     1       4.398   5.062   2.120  0.00  0.00    +0.072 A 
ATOM      9  N   UNL     1       4.139   6.198   2.706  0.00  0.00    -0.175 NA
ATOM     10  C   UNL     1       4.481   4.831   0.633  0.00  0.00    +0.068 C 
ATOM     11  C   UNL     1       4.523   4.071   5.699  0.00  0.00    +0.066 C 
BRANCH   5  12
ATOM     12  C   UNL     1       3.905   7.039   5.101  0.00  0.00    +0.179 C 
BRANCH  12  17
ATOM     13  C   UNL     1      -1.742   7.244   6.312  0.00  0.00    +0.044 C 
ATOM     14  C   UNL     1      -0.270   7.191   5.996  0.00  0.00    -0.050 A 
ATOM     15  C   UNL     1       0.562   6.356   6.719  0.00  0.00    +0.004 A 
ATOM     16  C   UNL     1       1.913   6.307   6.429  0.00  0.00    +0.006 A 
ATOM     17  C   UNL     1       2.432   7.093   5.417  0.00  0.00    -0.026 A 
ATOM     18  C   UNL     1       1.601   7.932   4.698  0.00  0.00    +0.006 A 
ATOM     19  C   UNL     1       0.250   7.978   4.985  0.00  0.00    +0.004 A 
ENDBRANCH  12  17
ENDBRANCH   5  12
ENDBRANCH   1   7
BRANCH   3  20
ATOM     20  C   UNL     1       4.215   0.347   2.576  0.00  0.00    +0.094 C 
BRANCH  20  21
ATOM     21  C   UNL     1       2.917  -0.434   2.362  0.00  0.00    -0.020 C 
BRANCH  21  27
ATOM     22  C   UNL     1       2.010  -2.610   1.803  0.00  0.00    -0.049 C 
ATOM     23  C   UNL     1       2.379  -4.076   1.565  0.00  0.00    +0.141 C 
ATOM     24  O   UNL     1       3.318  -4.157   0.489  0.00  0.00    -0.383 OA
ATOM     25  C   UNL     1       4.521  -3.419   0.717  0.00  0.00    +0.141 C 
ATOM     26  C   UNL     1       4.174  -1.946   0.947  0.00  0.00    -0.049 C 
ATOM     27  N   UNL     1       3.245  -1.851   2.093  0.00  0.00    +0.388 N 
ATOM     28  H   UNL     1       3.696  -2.252   2.923  0.00  0.00    -0.081 HD
ENDBRANCH  21  27
BRANCH  21  29
ATOM     29  C   UNL     1       2.072  -0.356   3.607  0.00  0.00    -0.059 A 
ATOM     30  C   UNL     1       2.346  -1.184   4.680  0.00  0.00    +0.005 A 
ATOM     31  C   UNL     1       1.577  -1.111   5.825  0.00  0.00    +0.046 A 
ATOM     32  C   UNL     1       0.521  -0.214   5.893  0.00  0.00    +0.120 A 
ATOM     33  C   UNL     1       0.244   0.612   4.813  0.00  0.00    +0.046 A 
ATOM     34  C   UNL     1       1.020   0.539   3.673  0.00  0.00    +0.005 A 
BRANCH  32  35
ATOM     35  O   UNL     1      -0.242  -0.144   7.016  0.00  0.00    -0.495 OA
ATOM     36  C   UNL     1       0.101  -1.024   8.089  0.00  0.00    +0.277 C 
ENDBRANCH  32  35
ENDBRANCH  21  29
ENDBRANCH  20  21
ENDBRANCH   3  20
TORSDOF 8
