REMARK  Name = ZINC66465002
REMARK  3 active torsions:
REMARK  status: ('A' for Active; 'I' for Inactive)
REMARK    1  A    between atoms: C_1  and  C_2
REMARK    2  A    between atoms: C_7  and  C_10
REMARK    3  A    between atoms: C_24  and  C_26
REMARK                            x       y       z     vdW  Elec       q    Type
REMARK                         _______ _______ _______ _____ _____    ______ ____
ROOT
ATOM      1  C   UNL     1      -0.218   1.600   0.100  0.00  0.00    +0.039 C 
ATOM      2  C   UNL     1      -0.117   0.076   0.021  0.00  0.00    +0.133 C 
ATOM      3  C   UNL     1      -1.522  -0.534   0.085  0.00  0.00    +0.138 C 
ATOM      4  N   UNL     1      -1.389  -1.995   0.196  0.00  0.00    -0.309 N 
ATOM      5  C   UNL     1      -0.492  -2.532   1.232  0.00  0.00    +0.143 C 
ATOM      6  C   UNL     1       0.863  -1.825   1.111  0.00  0.00    +0.166 C 
ATOM      7  O   UNL     1       0.659  -0.410   1.119  0.00  0.00    -0.366 OA
ATOM      8  C   UNL     1      -2.085  -2.837  -0.645  0.00  0.00    +0.133 A 
ATOM      9  C   UNL     1      -3.377  -3.305  -0.301  0.00  0.00    +0.040 A 
ATOM     10  C   UNL     1      -4.006  -2.941   0.894  0.00  0.00    +0.013 A 
ATOM     11  C   UNL     1      -5.251  -3.423   1.172  0.00  0.00    +0.001 A 
ATOM     12  C   UNL     1      -5.904  -4.271   0.282  0.00  0.00    +0.002 A 
ATOM     13  C   UNL     1      -5.318  -4.644  -0.891  0.00  0.00    +0.028 A 
ATOM     14  C   UNL     1      -4.039  -4.167  -1.208  0.00  0.00    +0.077 A 
ATOM     15  N   UNL     1      -3.418  -4.503  -2.349  0.00  0.00    -0.227 NA
ATOM     16  C   UNL     1      -2.220  -4.039  -2.616  0.00  0.00    +0.198 A 
ATOM     17  N   UNL     1      -1.565  -3.227  -1.802  0.00  0.00    -0.211 NA
ENDROOT
BRANCH   6  18
ATOM     18  C   UNL     1       1.739  -2.214   2.274  0.00  0.00    -0.017 A 
ATOM     19  C   UNL     1       1.565  -1.607   3.504  0.00  0.00    +0.006 A 
ATOM     20  C   UNL     1       2.369  -1.965   4.571  0.00  0.00    +0.000 A 
ATOM     21  C   UNL     1       3.346  -2.929   4.407  0.00  0.00    +0.000 A 
ATOM     22  C   UNL     1       3.519  -3.536   3.178  0.00  0.00    +0.000 A 
ATOM     23  C   UNL     1       2.713  -3.182   2.112  0.00  0.00    +0.006 A 
ENDBRANCH   6  18
BRANCH  16  24
ATOM     24  C   UNL     1      -1.563  -4.444  -3.910  0.00  0.00    +0.408 C 
ATOM     25  F   UNL     1      -2.546  -4.674  -4.879  0.00  0.00    -0.201 F 
ATOM     26  F   UNL     1      -0.713  -3.421  -4.342  0.00  0.00    -0.201 F 
ENDBRANCH  16  24
TORSDOF 2
