REMARK  Name = ZINC00083294
REMARK  9 active torsions:
REMARK  status: ('A' for Active; 'I' for Inactive)
REMARK    1  A    between atoms: C_1  and  C_2
REMARK    2  A    between atoms: C_3  and  C_21
REMARK    3  A    between atoms: C_4  and  C_10
REMARK    4  A    between atoms: C_13  and  O_16
REMARK    5  A    between atoms: O_16  and  C_17
REMARK    6  A    between atoms: C_17  and  C_18
REMARK    7  A    between atoms: C_18  and  C_19
REMARK    8  A    between atoms: C_18  and  C_20
REMARK    9  A    between atoms: N_23  and  C_24
REMARK                            x       y       z     vdW  Elec       q    Type
REMARK                         _______ _______ _______ _____ _____    ______ ____
ROOT
ATOM      1  C   UNL     1      -2.537  -0.273  -0.094  0.00  0.00    +0.061 C 
ATOM      2  C   UNL     1      -2.500   1.233  -0.130  0.00  0.00    +0.017 C 
ATOM      3  C   UNL     1      -1.310   1.866  -0.195  0.00  0.00    +0.055 C 
ATOM      4  C   UNL     1      -1.318   3.381  -0.235  0.00  0.00    +0.139 C 
ATOM      5  N   UNL     1      -2.633   4.042  -0.194  0.00  0.00    -0.315 N 
ATOM      6  C   UNL     1      -3.736   3.272  -0.123  0.00  0.00    +0.135 C 
ATOM      7  S   UNL     1      -5.272   4.027  -0.075  0.00  0.00    -0.019 S 
ATOM      8  N   UNL     1      -3.671   1.935  -0.091  0.00  0.00    -0.300 N 
ATOM      9  H   UNL     1      -2.703   5.010  -0.217  0.00  0.00    +0.149 HD
ATOM     10  H   UNL     1      -4.501   1.437  -0.041  0.00  0.00    +0.154 HD
ENDROOT
BRANCH   4  11
ATOM     11  C   UNL     1      -0.620   3.816  -1.498  0.00  0.00    -0.022 A 
ATOM     12  C   UNL     1      -1.300   3.804  -2.702  0.00  0.00    +0.009 A 
ATOM     13  C   UNL     1      -0.663   4.208  -3.860  0.00  0.00    +0.046 A 
ATOM     14  C   UNL     1       0.662   4.614  -3.816  0.00  0.00    +0.121 A 
ATOM     15  C   UNL     1       1.344   4.619  -2.608  0.00  0.00    +0.046 A 
ATOM     16  C   UNL     1       0.702   4.220  -1.452  0.00  0.00    +0.009 A 
BRANCH  14  17
ATOM     17  O   UNL     1       1.292   5.006  -4.955  0.00  0.00    -0.492 OA
BRANCH  17  18
ATOM     18  C   UNL     1       0.528   4.976  -6.162  0.00  0.00    +0.232 C 
BRANCH  18  19
ATOM     19  C   UNL     1       1.398   5.448  -7.328  0.00  0.00    +0.020 C 
ATOM     20  C   UNL     1       2.541   4.455  -7.547  0.00  0.00    +0.010 C 
ATOM     21  C   UNL     1       0.548   5.534  -8.597  0.00  0.00    +0.010 C 
ENDBRANCH  18  19
ENDBRANCH  17  18
ENDBRANCH  14  17
ENDBRANCH   4  11
BRANCH   3  22
ATOM     22  C   UNL     1      -0.094   1.139  -0.230  0.00  0.00    +0.243 C 
ATOM     23  O   UNL     1       0.578   1.029   0.779  0.00  0.00    -0.270 OA
ATOM     24  N   UNL     1       0.315   0.565  -1.379  0.00  0.00    -0.315 N 
ATOM     25  C   UNL     1       1.619  -0.098  -1.442  0.00  0.00    +0.128 C 
ATOM     26  H   UNL     1      -0.255   0.591  -2.164  0.00  0.00    +0.149 HD
ENDBRANCH   3  22
TORSDOF 5
