REMARK  Name = ZINC35300879
REMARK  12 active torsions:
REMARK  status: ('A' for Active; 'I' for Inactive)
REMARK    1  A    between atoms: C_1  and  C_2
REMARK    2  A    between atoms: C_2  and  C_3
REMARK    3  A    between atoms: C_3  and  C_5
REMARK    4  A    between atoms: C_3  and  C_6
REMARK    5  A    between atoms: C_6  and  C_8
REMARK    6  A    between atoms: C_6  and  N_25
REMARK    7  A    between atoms: C_14  and  C_16
REMARK    8  A    between atoms: C_19  and  N_22
REMARK    9  A    between atoms: N_22  and  C_23
REMARK   10  A    between atoms: N_22  and  C_24
REMARK   11  A    between atoms: N_28  and  C_29
REMARK   12  A    between atoms: C_29  and  C_30
REMARK                            x       y       z     vdW  Elec       q    Type
REMARK                         _______ _______ _______ _____ _____    ______ ____
ROOT
ATOM      1  C   UNL     1      -0.169   1.480   2.278  0.00  0.00    +0.239 C 
ATOM      2  O   UNL     1       0.240   2.215   3.151  0.00  0.00    -0.273 OA
ATOM      3  N   UNL     1      -0.824   1.992   1.217  0.00  0.00    -0.262 N 
ATOM      4  C   UNL     1      -0.940   3.369   1.070  0.00  0.00    +0.188 A 
ATOM      5  N   UNL     1      -0.484   4.349   1.839  0.00  0.00    -0.125 NA
ATOM      6  N   UNL     1      -0.679   5.563   1.558  0.00  0.00    -0.140 NA
ATOM      7  C   UNL     1      -1.353   5.932   0.475  0.00  0.00    +0.134 A 
ATOM      8  S   UNL     1      -1.740   4.326  -0.215  0.00  0.00    -0.030 S 
ATOM      9  H   UNL     1      -1.215   1.399   0.556  0.00  0.00    +0.157 HD
ENDROOT
BRANCH   7  10
ATOM     10  C   UNL     1      -1.684   7.284  -0.022  0.00  0.00    +0.009 A 
ATOM     11  C   UNL     1      -2.420   7.435  -1.200  0.00  0.00    +0.012 A 
ATOM     12  C   UNL     1      -2.727   8.697  -1.661  0.00  0.00    +0.024 A 
ATOM     13  C   UNL     1      -2.305   9.818  -0.955  0.00  0.00    +0.029 A 
ATOM     14  C   UNL     1      -1.572   9.671   0.217  0.00  0.00    +0.024 A 
ATOM     15  C   UNL     1      -1.268   8.412   0.687  0.00  0.00    +0.012 A 
BRANCH  13  16
ATOM     16  N   UNL     1      -2.618  11.095  -1.425  0.00  0.00    -0.336 N 
ATOM     17  C   UNL     1      -3.390  11.252  -2.661  0.00  0.00    +0.129 C 
ATOM     18  C   UNL     1      -2.174  12.277  -0.683  0.00  0.00    +0.129 C 
ENDBRANCH  13  16
ENDBRANCH   7  10
BRANCH   1  19
ATOM     19  C   UNL     1       0.055  -0.007   2.379  0.00  0.00    +0.163 C 
BRANCH  19  20
ATOM     20  N   UNL     1       0.305  -0.369   3.777  0.00  0.00    -0.288 N 
ATOM     21  C   UNL     1       0.039  -1.619   4.207  0.00  0.00    +0.300 C 
ATOM     22  O   UNL     1      -0.408  -2.445   3.435  0.00  0.00    -0.253 OA
ATOM     23  N   UNL     1       0.269  -1.952   5.492  0.00  0.00    -0.300 N 
ATOM     24  H   UNL     1       0.661   0.290   4.392  0.00  0.00    +0.151 HD
ATOM     25  H   UNL     1       0.625  -1.292   6.108  0.00  0.00    +0.150 HD
BRANCH  23  26
ATOM     26  C   UNL     1      -0.020  -3.310   5.960  0.00  0.00    +0.102 C 
ATOM     27  C   UNL     1       0.328  -3.422   7.446  0.00  0.00    +0.024 C 
ENDBRANCH  23  26
ENDBRANCH  19  20
BRANCH  19  28
ATOM     28  C   UNL     1       1.264  -0.400   1.527  0.00  0.00    +0.015 C 
ATOM     29  C   UNL     1       2.530   0.219   2.122  0.00  0.00    +0.010 C 
BRANCH  28  31
ATOM     30  C   UNL     1       0.213  -2.533   0.760  0.00  0.00    +0.004 C 
ATOM     31  C   UNL     1       1.401  -1.923   1.508  0.00  0.00    +0.002 C 
ENDBRANCH  28  31
ENDBRANCH  19  28
ENDBRANCH   1  19
TORSDOF 7
