REMARK  Name = ZINC62828508
REMARK  4 active torsions:
REMARK  status: ('A' for Active; 'I' for Inactive)
REMARK    1  A    between atoms: C_4  and  N_9
REMARK    2  A    between atoms: C_5  and  C_6
REMARK    3  A    between atoms: N_12  and  C_13
REMARK    4  A    between atoms: C_18  and  O_21
REMARK                            x       y       z     vdW  Elec       q    Type
REMARK                         _______ _______ _______ _____ _____    ______ ____
ROOT
ATOM      1  N   UNL     1       1.550  -1.959  -0.024  0.00  0.00    -0.263 N 
ATOM      2  C   UNL     1       2.834  -2.369  -0.039  0.00  0.00    +0.304 C 
ATOM      3  O   UNL     1       3.733  -1.551  -0.043  0.00  0.00    -0.252 OA
ATOM      4  N   UNL     1       3.121  -3.686  -0.050  0.00  0.00    -0.296 N 
ATOM      5  H   UNL     1       0.833  -2.612  -0.021  0.00  0.00    +0.157 HD
ATOM      6  H   UNL     1       2.404  -4.338  -0.047  0.00  0.00    +0.151 HD
ENDROOT
BRANCH   4   7
ATOM      7  C   UNL     1       4.516  -4.131  -0.066  0.00  0.00    +0.077 C 
ATOM      8  C   UNL     1       5.027  -4.158  -1.508  0.00  0.00    +0.022 C 
ATOM      9  C   UNL     1       6.484  -4.623  -1.525  0.00  0.00    +0.004 C 
ATOM     10  C   UNL     1       6.578  -6.027  -0.925  0.00  0.00    +0.031 C 
ATOM     11  C   UNL     1       6.068  -6.001   0.517  0.00  0.00    +0.116 C 
ATOM     12  C   UNL     1       4.611  -5.535   0.534  0.00  0.00    +0.053 C 
BRANCH  11  13
ATOM     13  O   UNL     1       6.156  -7.312   1.078  0.00  0.00    -0.392 OA
ATOM     14  H   UNL     1       7.053  -7.671   1.100  0.00  0.00    +0.210 HD
ENDBRANCH  11  13
ENDBRANCH   4   7
BRANCH   1  18
ATOM     15  C   UNL     1      -0.018   1.442   0.010  0.00  0.00    +0.024 A 
ATOM     16  C   UNL     1       1.184   2.046   0.002  0.00  0.00    +0.048 A 
ATOM     17  S   UNL     1       2.329   0.684  -0.017  0.00  0.00    -0.081 S 
ATOM     18  C   UNL     1       1.256  -0.606  -0.013  0.00  0.00    +0.087 A 
ATOM     19  C   UNL     1       0.002  -0.004   0.002  0.00  0.00    +0.092 A 
BRANCH  19  20
ATOM     20  C   UNL     1      -1.192  -0.767   0.010  0.00  0.00    +0.389 C 
ATOM     21  O   UNL     1      -2.280  -0.203   0.023  0.00  0.00    -0.241 OA
ATOM     22  O   UNL     1      -1.138  -1.991   0.003  0.00  0.00    -0.241 OA
ENDBRANCH  19  20
ENDBRANCH   1  18
TORSDOF 4
