REMARK  Name = ZINC63775744
REMARK  7 active torsions:
REMARK  status: ('A' for Active; 'I' for Inactive)
REMARK    1  A    between atoms: C_7  and  C_10
REMARK    2  A    between atoms: C_10  and  C_11
REMARK    3  A    between atoms: N_15  and  C_19
REMARK    4  A    between atoms: C_19  and  C_20
REMARK    5  A    between atoms: N_22  and  C_23
REMARK    6  A    between atoms: C_26  and  S_29
REMARK    7  A    between atoms: S_29  and  C_30
REMARK                            x       y       z     vdW  Elec       q    Type
REMARK                         _______ _______ _______ _____ _____    ______ ____
ROOT
ATOM      1  C   UNL     1       0.459  -3.658  -1.465  0.00  0.00    +0.165 C 
ATOM      2  C   UNL     1      -0.431  -4.885  -1.493  0.00  0.00    +0.244 C 
ATOM      3  O   UNL     1      -0.200  -5.969  -1.001  0.00  0.00    -0.273 OA
ATOM      4  N   UNL     1      -1.533  -4.521  -2.178  0.00  0.00    -0.216 N 
ATOM      5  C   UNL     1      -1.464  -3.247  -2.583  0.00  0.00    +0.310 C 
ATOM      6  O   UNL     1      -2.338  -2.692  -3.218  0.00  0.00    -0.252 OA
ATOM      7  N   UNL     1      -0.315  -2.649  -2.208  0.00  0.00    -0.287 N 
ATOM      8  H   UNL     1      -0.049  -1.734  -2.390  0.00  0.00    +0.151 HD
ENDROOT
BRANCH   1   9
ATOM      9  C   UNL     1       0.698  -3.200  -0.025  0.00  0.00    +0.065 C 
BRANCH   9  16
ATOM     10  C   UNL     1      -0.004   1.334   0.041  0.00  0.00    +0.001 A 
ATOM     11  C   UNL     1       1.179   2.086   0.034  0.00  0.00    +0.002 A 
ATOM     12  C   UNL     1       2.404   1.519   0.011  0.00  0.00    +0.026 A 
ATOM     13  C   UNL     1       2.540   0.103  -0.008  0.00  0.00    +0.043 A 
ATOM     14  N   UNL     1       3.597  -0.672  -0.032  0.00  0.00    -0.380 N 
ATOM     15  C   UNL     1       3.152  -2.070  -0.043  0.00  0.00    +0.144 C 
ATOM     16  C   UNL     1       1.641  -2.024  -0.022  0.00  0.00    -0.039 C 
ATOM     17  C   UNL     1       1.306  -0.714  -0.001  0.00  0.00    -0.001 A 
ATOM     18  C   UNL     1       0.013  -0.018   0.024  0.00  0.00    +0.010 A 
ATOM     19  H   UNL     1       4.519  -0.371  -0.041  0.00  0.00    +0.160 HD
ENDBRANCH   9  16
ENDBRANCH   1   9
BRANCH   4  20
ATOM     20  C   UNL     1      -2.666  -5.410  -2.448  0.00  0.00    +0.214 C 
BRANCH  20  21
ATOM     21  C   UNL     1      -3.669  -5.298  -1.329  0.00  0.00    +0.235 C 
ATOM     22  O   UNL     1      -3.459  -4.549  -0.398  0.00  0.00    -0.274 OA
ATOM     23  N   UNL     1      -4.801  -6.029  -1.363  0.00  0.00    -0.284 N 
ATOM     24  H   UNL     1      -5.001  -6.577  -2.138  0.00  0.00    +0.155 HD
BRANCH  23  25
ATOM     25  C   UNL     1      -5.688  -5.998  -0.278  0.00  0.00    +0.033 A 
ATOM     26  C   UNL     1      -6.382  -7.146   0.084  0.00  0.00    +0.024 A 
ATOM     27  C   UNL     1      -7.255  -7.116   1.152  0.00  0.00    +0.017 A 
ATOM     28  C   UNL     1      -7.440  -5.938   1.866  0.00  0.00    +0.013 A 
ATOM     29  C   UNL     1      -6.744  -4.791   1.504  0.00  0.00    +0.017 A 
ATOM     30  C   UNL     1      -5.867  -4.823   0.439  0.00  0.00    +0.024 A 
BRANCH  28  31
ATOM     31  S   UNL     1      -8.555  -5.900   3.229  0.00  0.00    -0.056 S 
BRANCH  31  32
ATOM     32  C   UNL     1      -8.459  -4.190   3.827  0.00  0.00    +0.404 C 
ATOM     33  F   UNL     1      -7.145  -3.904   4.213  0.00  0.00    -0.197 F 
ATOM     34  F   UNL     1      -8.845  -3.316   2.805  0.00  0.00    -0.197 F 
ENDBRANCH  31  32
ENDBRANCH  28  31
ENDBRANCH  23  25
ENDBRANCH  20  21
ENDBRANCH   4  20
TORSDOF 7
