REMARK  Name = ZINC47572084
REMARK  8 active torsions:
REMARK  status: ('A' for Active; 'I' for Inactive)
REMARK    1  A    between atoms: C_1  and  C_2
REMARK    2  A    between atoms: C_5  and  O_9
REMARK    3  A    between atoms: C_6  and  C_8
REMARK    4  A    between atoms: O_9  and  C_10
REMARK    5  A    between atoms: C_10  and  C_11
REMARK    6  A    between atoms: N_13  and  C_14
REMARK    7  A    between atoms: C_14  and  C_16
REMARK    8  A    between atoms: C_14  and  C_17
REMARK                            x       y       z     vdW  Elec       q    Type
REMARK                         _______ _______ _______ _____ _____    ______ ____
ROOT
ATOM      1  C   UNL     1       0.079  -6.266  -1.108  0.00  0.00    +0.251 C 
ATOM      2  O   UNL     1       0.090  -6.735   0.010  0.00  0.00    -0.272 OA
ATOM      3  N   UNL     1       0.084  -7.081  -2.182  0.00  0.00    -0.306 N 
ATOM      4  H   UNL     1       0.074  -6.705  -3.076  0.00  0.00    +0.149 HD
ENDROOT
BRANCH   3   5
ATOM      5  C   UNL     1       0.103  -8.534  -1.998  0.00  0.00    +0.100 C 
ATOM      6  C   UNL     1       1.548  -9.006  -1.816  0.00  0.00    +0.033 C 
BRANCH   5   7
ATOM      7  C   UNL     1      -0.494  -9.202  -3.209  0.00  0.00    -0.025 A 
ATOM      8  C   UNL     1      -0.207  -8.719  -4.474  0.00  0.00    +0.007 A 
ATOM      9  C   UNL     1      -0.751  -9.325  -5.590  0.00  0.00    +0.028 A 
ATOM     10  C   UNL     1      -1.587 -10.420  -5.443  0.00  0.00    +0.067 A 
ATOM     11  C   UNL     1      -1.877 -10.907  -4.167  0.00  0.00    +0.067 A 
ATOM     12  C   UNL     1      -1.322 -10.296  -3.052  0.00  0.00    +0.033 A 
ATOM     13  N   UNL     1      -2.729 -11.996  -4.335  0.00  0.00    -0.306 N 
ATOM     14  H   UNL     1      -3.101 -12.541  -3.624  0.00  0.00    +0.170 HD
ATOM     15  C   UNL     1      -2.947 -12.164  -5.653  0.00  0.00    +0.325 A 
ATOM     16  O   UNL     1      -3.649 -13.030  -6.142  0.00  0.00    -0.247 OA
ATOM     17  N   UNL     1      -2.272 -11.229  -6.347  0.00  0.00    -0.306 N 
ATOM     18  H   UNL     1      -2.264 -11.134  -7.312  0.00  0.00    +0.170 HD
ENDBRANCH   5   7
ENDBRANCH   3   5
BRANCH   1  19
ATOM     19  C   UNL     1       0.058  -4.771  -1.298  0.00  0.00    +0.324 C 
BRANCH  19  20
ATOM     20  O   UNL     1       0.057  -4.129  -0.021  0.00  0.00    -0.483 OA
BRANCH  20  25
ATOM     21  C   UNL     1      -0.018   1.503   0.010  0.00  0.00    +0.044 C 
ATOM     22  C   UNL     1       0.002  -0.004   0.002  0.00  0.00    -0.050 A 
ATOM     23  C   UNL     1       0.006  -0.688  -1.200  0.00  0.00    +0.007 A 
ATOM     24  C   UNL     1       0.024  -2.069  -1.210  0.00  0.00    +0.046 A 
ATOM     25  C   UNL     1       0.039  -2.770  -0.013  0.00  0.00    +0.124 A 
ATOM     26  C   UNL     1       0.036  -2.082   1.191  0.00  0.00    -0.009 A 
ATOM     27  C   UNL     1       0.023  -0.701   1.196  0.00  0.00    +0.010 A 
ATOM     28  C   UNL     1       0.052  -2.841   2.493  0.00  0.00    +0.047 C 
ENDBRANCH  20  25
ENDBRANCH  19  20
ENDBRANCH   1  19
TORSDOF 5
