REMARK  Name = ZINC30981437
REMARK  4 active torsions:
REMARK  status: ('A' for Active; 'I' for Inactive)
REMARK    1  A    between atoms: C_1  and  N_2
REMARK    2  A    between atoms: N_2  and  C_3
REMARK    3  A    between atoms: N_11  and  C_12
REMARK    4  A    between atoms: C_12  and  C_13
REMARK                            x       y       z     vdW  Elec       q    Type
REMARK                         _______ _______ _______ _____ _____    ______ ____
ROOT
ATOM      1  C   UNL     1      -2.111   2.512   5.891  0.00  0.00    +0.134 C 
ATOM      2  N   UNL     1      -0.915   1.679   6.031  0.00  0.00    -0.286 N 
ATOM      3  C   UNL     1      -0.270   1.236   4.933  0.00  0.00    +0.302 C 
ATOM      4  O   UNL     1       0.723   0.544   5.049  0.00  0.00    -0.253 OA
ATOM      5  N   UNL     1      -0.726   1.561   3.707  0.00  0.00    -0.296 N 
ATOM      6  H   UNL     1      -1.624   2.186   3.602  0.00  0.00    +0.150 HD
ENDROOT
BRANCH   2   7
ATOM      7  C   UNL     1      -0.419   1.326   7.364  0.00  0.00    +0.077 C 
ATOM      8  C   UNL     1      -1.499   0.551   8.121  0.00  0.00    +0.022 C 
ATOM      9  C   UNL     1      -0.982   0.183   9.513  0.00  0.00    +0.002 C 
ATOM     10  C   UNL     1      -0.635   1.460  10.282  0.00  0.00    +0.000 C 
ATOM     11  C   UNL     1       0.445   2.234   9.525  0.00  0.00    +0.002 C 
ATOM     12  C   UNL     1      -0.072   2.602   8.133  0.00  0.00    +0.022 C 
ENDBRANCH   2   7
BRANCH   5  13
ATOM     13  C   UNL     1      -0.025   1.080   2.514  0.00  0.00    +0.153 C 
BRANCH  13  14
ATOM     14  C   UNL     1      -0.743   1.587   1.262  0.00  0.00    +0.228 C 
ATOM     15  C   UNL     1      -0.013   1.086   0.008  0.00  0.00    +0.275 C 
ATOM     16  O   UNL     1      -0.716   1.565  -1.143  0.00  0.00    -0.485 OA
ATOM     17  C   UNL     1      -2.070   1.429  -1.134  0.00  0.00    +0.162 A 
ATOM     18  C   UNL     1      -2.773   1.530  -2.325  0.00  0.00    +0.049 A 
ATOM     19  C   UNL     1      -4.148   1.397  -2.332  0.00  0.00    +0.004 A 
ATOM     20  C   UNL     1      -4.828   1.161  -1.151  0.00  0.00    +0.004 A 
ATOM     21  C   UNL     1      -4.133   1.057   0.040  0.00  0.00    +0.049 A 
ATOM     22  C   UNL     1      -2.753   1.189   0.053  0.00  0.00    +0.163 A 
ATOM     23  O   UNL     1      -2.082   1.078   1.232  0.00  0.00    -0.480 OA
ENDBRANCH  13  14
ENDBRANCH   5  13
TORSDOF 3
