REMARK  Name = ZINC07000476
REMARK  4 active torsions:
REMARK  status: ('A' for Active; 'I' for Inactive)
REMARK    1  A    between atoms: C_9  and  C_10
REMARK    2  A    between atoms: C_11  and  C_12
REMARK    3  A    between atoms: C_12  and  C_14
REMARK    4  A    between atoms: C_18  and  N_20
REMARK                            x       y       z     vdW  Elec       q    Type
REMARK                         _______ _______ _______ _____ _____    ______ ____
ROOT
ATOM      1  C   UNL     1       1.119   7.409   0.033  0.00  0.00    +0.033 C 
ATOM      2  C   UNL     1       1.138   6.044   0.025  0.00  0.00    +0.053 C 
ENDROOT
BRANCH   1  11
ATOM      3  C   UNL     1       3.864  11.233  -2.190  0.00  0.00    +0.005 A 
ATOM      4  C   UNL     1       2.573  10.800  -2.520  0.00  0.00    +0.018 A 
ATOM      5  C   UNL     1       2.001   9.783  -1.835  0.00  0.00    +0.093 A 
ATOM      6  N   UNL     1       2.671   9.167  -0.824  0.00  0.00    -0.298 N 
ATOM      7  C   UNL     1       3.929   9.568  -0.474  0.00  0.00    +0.140 A 
ATOM      8  C   UNL     1       4.540  10.623  -1.175  0.00  0.00    +0.047 A 
ATOM      9  N   UNL     1       4.354   8.812   0.538  0.00  0.00    -0.216 NA
ATOM     10  C   UNL     1       3.420   7.935   0.868  0.00  0.00    +0.155 A 
ATOM     11  C   UNL     1       2.327   8.129   0.025  0.00  0.00    +0.085 A 
ATOM     12 CL   UNL     1       3.537   6.749   2.131  0.00  0.00    -0.060 Cl
ENDBRANCH   1  11
BRANCH   2  13
ATOM     13  C   UNL     1      -0.070   5.324   0.032  0.00  0.00    +0.186 C 
ATOM     14  O   UNL     1      -1.134   5.920   0.045  0.00  0.00    -0.287 OA
BRANCH  13  15
ATOM     15  C   UNL     1      -0.050   3.845   0.023  0.00  0.00    +0.024 A 
ATOM     16  C   UNL     1       1.166   3.160   0.008  0.00  0.00    +0.012 A 
ATOM     17  C   UNL     1       1.178   1.781   0.000  0.00  0.00    +0.003 A 
ATOM     18  C   UNL     1      -0.013   1.076   0.008  0.00  0.00    +0.033 A 
ATOM     19  C   UNL     1      -1.222   1.748   0.017  0.00  0.00    +0.127 A 
ATOM     20  C   UNL     1      -1.247   3.128   0.031  0.00  0.00    +0.044 A 
BRANCH  19  21
ATOM     21  N   UNL     1      -2.490   0.986   0.019  0.00  0.00    +0.056 N 
ATOM     22  O   UNL     1      -2.469  -0.232   0.013  0.00  0.00    -0.126 OA
ATOM     23  O   UNL     1      -3.556   1.577   0.028  0.00  0.00    -0.126 OA
ENDBRANCH  19  21
ENDBRANCH  13  15
ENDBRANCH   2  13
TORSDOF 4
