REMARK  Name = ZINC36591307
REMARK  18 active torsions:
REMARK  status: ('A' for Active; 'I' for Inactive)
REMARK    1  A    between atoms: C_1  and  C_2
REMARK    2  A    between atoms: C_2  and  C_3
REMARK    3  A    between atoms: C_2  and  C_4
REMARK    4  A    between atoms: C_2  and  C_5
REMARK    5  A    between atoms: C_5  and  C_6
REMARK    6  A    between atoms: C_6  and  C_7
REMARK    7  A    between atoms: C_6  and  C_8
REMARK    8  A    between atoms: C_6  and  N_9
REMARK    9  A    between atoms: C_10  and  C_12
REMARK   10  A    between atoms: C_12  and  C_14
REMARK   11  A    between atoms: C_12  and  N_23
REMARK   12  A    between atoms: N_23  and  C_36
REMARK   13  A    between atoms: C_24  and  C_26
REMARK   14  A    between atoms: C_26  and  N_27
REMARK   15  A    between atoms: C_28  and  C_30
REMARK   16  A    between atoms: C_36  and  C_37
REMARK   17  A    between atoms: C_36  and  C_38
REMARK   18  A    between atoms: C_36  and  C_39
REMARK                            x       y       z     vdW  Elec       q    Type
REMARK                         _______ _______ _______ _____ _____    ______ ____
ROOT
ATOM      1  C   UNL     1       4.498   0.634  -5.071  0.00  0.00    +0.193 C 
ENDROOT
BRANCH   1   2
ATOM      2  C   UNL     1       4.338  -0.369  -6.184  0.00  0.00    -0.015 A 
ATOM      3  C   UNL     1       5.312  -1.329  -6.393  0.00  0.00    +0.010 A 
ATOM      4  C   UNL     1       5.169  -2.252  -7.412  0.00  0.00    +0.050 A 
ATOM      5  C   UNL     1       4.050  -2.217  -8.228  0.00  0.00    +0.166 A 
ATOM      6  C   UNL     1       3.070  -1.250  -8.017  0.00  0.00    +0.167 A 
ATOM      7  C   UNL     1       3.216  -0.332  -6.990  0.00  0.00    +0.055 A 
ATOM      8  O   UNL     1       2.080  -1.425  -8.941  0.00  0.00    -0.453 OA
ATOM      9  C   UNL     1       2.658  -2.246  -9.973  0.00  0.00    +0.466 C 
ATOM     10  O   UNL     1       3.675  -2.997  -9.283  0.00  0.00    -0.453 OA
ENDBRANCH   1   2
BRANCH   1  12
ATOM     11  N   UNL     1       2.752  -0.461  -3.703  0.00  0.00    -0.308 N 
ATOM     12  C   UNL     1       4.003   0.035  -3.780  0.00  0.00    +0.239 C 
ATOM     13  O   UNL     1       4.729  -0.000  -2.809  0.00  0.00    -0.273 OA
ATOM     14  H   UNL     1       2.171  -0.432  -4.479  0.00  0.00    +0.149 HD
BRANCH  11  15
ATOM     15  C   UNL     1       2.270  -1.043  -2.448  0.00  0.00    +0.030 C 
ATOM     16  C   UNL     1       2.609  -0.105  -1.288  0.00  0.00    +0.031 C 
ATOM     17  C   UNL     1       2.944  -2.397  -2.222  0.00  0.00    +0.031 C 
BRANCH  15  18
ATOM     18  C   UNL     1       0.754  -1.234  -2.523  0.00  0.00    +0.031 C 
BRANCH  18  20
ATOM     19  C   UNL     1       0.208  -0.201  -4.732  0.00  0.00    +0.010 C 
ATOM     20  C   UNL     1       0.121  -0.024  -3.215  0.00  0.00    -0.036 C 
ATOM     21  C   UNL     1       0.869   1.246  -2.805  0.00  0.00    +0.010 C 
ATOM     22  C   UNL     1      -1.346   0.091  -2.798  0.00  0.00    +0.010 C 
ENDBRANCH  18  20
ENDBRANCH  15  18
ENDBRANCH  11  15
ENDBRANCH   1  12
BRANCH   1  23
ATOM     23  N   UNL     1       5.913   0.989  -4.933  0.00  0.00    -0.280 N 
ATOM     24  C   UNL     1       6.791   0.086  -4.454  0.00  0.00    +0.234 C 
ATOM     25  O   UNL     1       6.395  -0.979  -4.030  0.00  0.00    -0.274 OA
BRANCH  23  26
ATOM     26  C   UNL     1       6.373   2.326  -5.316  0.00  0.00    +0.030 C 
ATOM     27  C   UNL     1       5.267   3.043  -6.094  0.00  0.00    +0.031 C 
ATOM     28  C   UNL     1       6.714   3.128  -4.059  0.00  0.00    +0.031 C 
ATOM     29  C   UNL     1       7.619   2.204  -6.197  0.00  0.00    +0.031 C 
ENDBRANCH  23  26
BRANCH  24  30
ATOM     30  C   UNL     1       8.265   0.400  -4.444  0.00  0.00    +0.200 C 
BRANCH  30  31
ATOM     31  N   UNL     1       8.988  -0.674  -3.759  0.00  0.00    -0.303 N 
ATOM     32  C   UNL     1      10.328  -0.608  -3.628  0.00  0.00    +0.244 C 
ATOM     33  O   UNL     1      10.936   0.343  -4.080  0.00  0.00    -0.270 OA
ATOM     34  H   UNL     1       8.503  -1.433  -3.398  0.00  0.00    +0.150 HD
BRANCH  32  35
ATOM     35  C   UNL     1      11.058  -1.691  -2.936  0.00  0.00    +0.037 A 
ATOM     36  C   UNL     1      10.363  -2.787  -2.422  0.00  0.00    +0.013 A 
ATOM     37  C   UNL     1      11.050  -3.795  -1.777  0.00  0.00    +0.001 A 
ATOM     38  C   UNL     1      12.425  -3.721  -1.640  0.00  0.00    +0.000 A 
ATOM     39  C   UNL     1      13.120  -2.638  -2.148  0.00  0.00    +0.001 A 
ATOM     40  C   UNL     1      12.445  -1.626  -2.800  0.00  0.00    +0.013 A 
ENDBRANCH  32  35
ENDBRANCH  30  31
ENDBRANCH  24  30
ENDBRANCH   1  23
TORSDOF 10
