REMARK  Name = ZINC64966413
REMARK  8 active torsions:
REMARK  status: ('A' for Active; 'I' for Inactive)
REMARK    1  A    between atoms: C_1  and  C_2
REMARK    2  A    between atoms: C_7  and  N_8
REMARK    3  A    between atoms: C_9  and  C_11
REMARK    4  A    between atoms: C_11  and  N_12
REMARK    5  A    between atoms: C_15  and  S_28
REMARK    6  A    between atoms: S_28  and  N_31
REMARK    7  A    between atoms: N_31  and  C_32
REMARK    8  A    between atoms: N_31  and  C_33
REMARK                            x       y       z     vdW  Elec       q    Type
REMARK                         _______ _______ _______ _____ _____    ______ ____
ROOT
ATOM      1  N   UNL     1      -0.240  -0.901   5.989  0.00  0.00    -0.259 N 
ATOM      2  C   UNL     1      -1.486  -1.375   6.417  0.00  0.00    +0.060 A 
ATOM      3  C   UNL     1      -2.621  -1.165   5.650  0.00  0.00    +0.054 A 
ATOM      4  C   UNL     1      -3.846  -1.631   6.093  0.00  0.00    +0.107 A 
ATOM      5  C   UNL     1      -3.942  -2.305   7.297  0.00  0.00    +0.030 A 
ATOM      6  C   UNL     1      -2.813  -2.520   8.066  0.00  0.00    +0.027 A 
ATOM      7  C   UNL     1      -1.582  -2.059   7.626  0.00  0.00    +0.052 A 
ATOM      8  N   UNL     1      -0.427  -2.296   8.395  0.00  0.00    -0.317 N 
ATOM      9  C   UNL     1      -0.618  -2.587   9.815  0.00  0.00    +0.106 C 
ATOM     10  C   UNL     1       0.536  -2.042  10.651  0.00  0.00    +0.019 C 
ATOM     11  C   UNL     1       1.848  -2.563  10.054  0.00  0.00    +0.004 C 
ATOM     12  C   UNL     1       2.028  -1.948   8.671  0.00  0.00    +0.032 C 
ATOM     13  C   UNL     1       0.872  -2.282   7.744  0.00  0.00    +0.160 C 
ATOM     14  C   UNL     1       0.887  -1.321   6.583  0.00  0.00    +0.241 C 
ATOM     15  O   UNL     1       1.953  -0.911   6.176  0.00  0.00    -0.273 OA
ENDROOT
BRANCH   4  16
ATOM     16  S   UNL     1      -5.290  -1.367   5.118  0.00  0.00    +0.060 S 
ATOM     17  O   UNL     1      -6.396  -1.419   6.008  0.00  0.00    -0.153 OA
ATOM     18  O   UNL     1      -5.025  -0.236   4.298  0.00  0.00    -0.153 OA
BRANCH  16  19
ATOM     19  N   UNL     1      -5.439  -2.665   4.101  0.00  0.00    -0.183 NA
ATOM     20  C   UNL     1      -6.203  -3.841   4.522  0.00  0.00    +0.131 C 
ATOM     21  C   UNL     1      -4.806  -2.637   2.780  0.00  0.00    +0.131 C 
ENDBRANCH  16  19
ENDBRANCH   4  16
BRANCH   1  22
ATOM     22  C   UNL     1      -0.167   0.056   4.883  0.00  0.00    +0.209 C 
BRANCH  22  24
ATOM     23  N   UNL     1       0.026  -0.013   2.417  0.00  0.00    -0.284 N 
ATOM     24  C   UNL     1      -0.056  -0.692   3.579  0.00  0.00    +0.235 C 
ATOM     25  O   UNL     1      -0.040  -1.905   3.575  0.00  0.00    -0.274 OA
ATOM     26  H   UNL     1       0.079   0.956   2.425  0.00  0.00    +0.155 HD
BRANCH  23  33
ATOM     27  C   UNL     1      -1.265   1.183   0.182  0.00  0.00    +0.046 C 
ATOM     28  C   UNL     1      -0.584  -0.158   0.085  0.00  0.00    -0.027 A 
ATOM     29  C   UNL     1      -0.570  -0.840  -1.116  0.00  0.00    +0.043 A 
ATOM     30  C   UNL     1       0.055  -2.072  -1.206  0.00  0.00    +0.124 A 
ATOM     31  C   UNL     1       0.667  -2.623  -0.093  0.00  0.00    +0.040 A 
ATOM     32  C   UNL     1       0.655  -1.944   1.110  0.00  0.00    +0.026 A 
ATOM     33  C   UNL     1       0.034  -0.706   1.200  0.00  0.00    +0.037 A 
ATOM     34  F   UNL     1       0.068  -2.738  -2.382  0.00  0.00    -0.205 F 
ENDBRANCH  23  33
ENDBRANCH  22  24
ENDBRANCH   1  22
TORSDOF 5
