REMARK  Name = ZINC00333975
REMARK  3 active torsions:
REMARK  status: ('A' for Active; 'I' for Inactive)
REMARK    1  A    between atoms: C_6  and  C_11
REMARK    2  A    between atoms: C_12  and  C_25
REMARK    3  A    between atoms: C_15  and  O_24
REMARK                            x       y       z     vdW  Elec       q    Type
REMARK                         _______ _______ _______ _____ _____    ______ ____
ROOT
ATOM      1  C   UNL     1      -2.473   4.249   0.048  0.00  0.00    +0.146 A 
ATOM      2  C   UNL     1      -2.592   5.632   0.153  0.00  0.00    +0.068 A 
ATOM      3  C   UNL     1      -4.043   5.904   0.121  0.00  0.00    +0.035 A 
ATOM      4  C   UNL     1      -4.804   7.081   0.186  0.00  0.00    +0.058 A 
ATOM      5  C   UNL     1      -6.164   7.033   0.132  0.00  0.00    +0.125 A 
ATOM      6  C   UNL     1      -6.823   5.789   0.008  0.00  0.00    +0.027 A 
ATOM      7  C   UNL     1      -8.224   5.718  -0.050  0.00  0.00    +0.012 A 
ATOM      8  C   UNL     1      -8.835   4.506  -0.169  0.00  0.00    +0.001 A 
ATOM      9  C   UNL     1      -8.091   3.332  -0.235  0.00  0.00    +0.001 A 
ATOM     10  C   UNL     1      -6.730   3.363  -0.181  0.00  0.00    +0.012 A 
ATOM     11  C   UNL     1      -6.067   4.594  -0.058  0.00  0.00    +0.028 A 
ATOM     12  C   UNL     1      -4.657   4.659  -0.001  0.00  0.00    +0.144 A 
ATOM     13  O   UNL     1      -3.698   3.712  -0.046  0.00  0.00    -0.453 OA
ENDROOT
BRANCH   1  19
ATOM     14  C   UNL     1       3.285   1.516   0.963  0.00  0.00    +0.001 A 
ATOM     15  C   UNL     1       3.031   2.400   2.010  0.00  0.00    +0.001 A 
ATOM     16  C   UNL     1       1.873   3.113   2.058  0.00  0.00    +0.008 A 
ATOM     17  C   UNL     1       0.917   2.958   1.038  0.00  0.00    -0.017 A 
ATOM     18  C   UNL     1      -0.289   3.674   1.060  0.00  0.00    +0.020 A 
ATOM     19  C   UNL     1      -1.206   3.497   0.034  0.00  0.00    +0.019 A 
ATOM     20  C   UNL     1      -0.935   2.601  -1.018  0.00  0.00    +0.012 A 
ATOM     21  C   UNL     1       0.224   1.898  -1.052  0.00  0.00    +0.009 A 
ATOM     22  C   UNL     1       1.176   2.059  -0.027  0.00  0.00    -0.018 A 
ATOM     23  C   UNL     1       2.383   1.341  -0.042  0.00  0.00    +0.008 A 
ENDBRANCH   1  19
BRANCH   5  24
ATOM     24  O   UNL     1      -6.887   8.181   0.196  0.00  0.00    -0.506 OA
ATOM     25  H   UNL     1      -7.129   8.444   1.095  0.00  0.00    +0.292 HD
ENDBRANCH   5  24
BRANCH   2  26
ATOM     26  C   UNL     1      -1.544   6.577   0.267  0.00  0.00    +0.263 C 
ATOM     27  O   UNL     1      -0.388   6.214   0.188  0.00  0.00    -0.296 OA
ENDBRANCH   2  26
TORSDOF 3
