REMARK  Name = ZINC03528779
REMARK  11 active torsions:
REMARK  status: ('A' for Active; 'I' for Inactive)
REMARK    1  A    between atoms: C_1  and  C_2
REMARK    2  A    between atoms: C_5  and  C_30
REMARK    3  A    between atoms: C_10  and  C_12
REMARK    4  A    between atoms: C_12  and  S_13
REMARK    5  A    between atoms: S_13  and  C_14
REMARK    6  A    between atoms: C_17  and  C_20
REMARK    7  A    between atoms: N_18  and  N_19
REMARK    8  A    between atoms: C_23  and  C_26
REMARK    9  A    between atoms: C_26  and  C_27
REMARK   10  A    between atoms: C_26  and  C_28
REMARK   11  A    between atoms: C_26  and  C_29
REMARK                            x       y       z     vdW  Elec       q    Type
REMARK                         _______ _______ _______ _____ _____    ______ ____
ROOT
ATOM      1  C   UNL     1      -2.579  -3.190   0.010  0.00  0.00    +0.209 A 
ATOM      2  N   UNL     1      -3.690  -2.488   0.024  0.00  0.00    -0.121 NA
ATOM      3  N   UNL     1      -4.708  -3.272   0.029  0.00  0.00    -0.127 NA
ATOM      4  C   UNL     1      -4.310  -4.523   0.018  0.00  0.00    +0.182 A 
ATOM      5  N   UNL     1      -2.935  -4.509   0.000  0.00  0.00    -0.224 N 
ENDROOT
BRANCH   4   6
ATOM      6  C   UNL     1      -5.177  -5.721   0.021  0.00  0.00    +0.021 A 
ATOM      7  C   UNL     1      -4.639  -6.974   0.316  0.00  0.00    +0.012 A 
ATOM      8  C   UNL     1      -5.454  -8.088   0.321  0.00  0.00    +0.005 A 
ATOM      9  C   UNL     1      -6.800  -7.965   0.024  0.00  0.00    -0.042 A 
ATOM     10  C   UNL     1      -7.338  -6.726  -0.275  0.00  0.00    +0.005 A 
ATOM     11  C   UNL     1      -6.535  -5.604  -0.278  0.00  0.00    +0.012 A 
BRANCH   9  12
ATOM     12  C   UNL     1      -7.683  -9.186   0.025  0.00  0.00    -0.013 C 
ATOM     13  C   UNL     1      -8.297  -9.372  -1.364  0.00  0.00    +0.015 C 
ATOM     14  C   UNL     1      -6.849 -10.418   0.384  0.00  0.00    +0.015 C 
ATOM     15  C   UNL     1      -8.799  -9.007   1.056  0.00  0.00    +0.015 C 
ENDBRANCH   9  12
ENDBRANCH   4   6
BRANCH   5  16
ATOM     16  N   UNL     1      -2.098  -5.589  -0.020  0.00  0.00    -0.295 N 
ATOM     17  H   UNL     1      -1.867  -5.885   0.916  0.00  0.00    +0.163 HD
ATOM     18  H   UNL     1      -2.501  -6.348  -0.550  0.00  0.00    +0.163 HD
ENDBRANCH   5  16
BRANCH   1  19
ATOM     19  S   UNL     1      -0.938  -2.550  -0.003  0.00  0.00    -0.075 S 
BRANCH  19  20
ATOM     20  C   UNL     1      -1.293  -0.775   0.010  0.00  0.00    +0.173 C 
BRANCH  20  28
ATOM     21  C   UNL     1      -2.540   3.925   1.150  0.00  0.00    +0.009 C 
ATOM     22  C   UNL     1      -1.279   3.061   1.198  0.00  0.00    +0.004 C 
ATOM     23  C   UNL     1      -0.042   3.956   1.094  0.00  0.00    +0.009 C 
ATOM     24  C   UNL     1       1.221   3.095   1.174  0.00  0.00    +0.004 C 
ATOM     25  C   UNL     1       1.238   2.109   0.002  0.00  0.00    +0.111 C 
ATOM     26  N   UNL     1      -0.016   1.344   0.009  0.00  0.00    -0.300 N 
ATOM     27  C   UNL     1      -1.290   2.075   0.019  0.00  0.00    +0.111 C 
ATOM     28  C   UNL     1       0.002  -0.004   0.002  0.00  0.00    +0.226 C 
ATOM     29  O   UNL     1       1.060  -0.596  -0.011  0.00  0.00    -0.275 OA
ATOM     30  C   UNL     1       1.227   2.319   2.493  0.00  0.00    +0.009 C 
ENDBRANCH  20  28
ENDBRANCH  19  20
ENDBRANCH   1  19
TORSDOF 6
