REMARK  Name = ZINC58571983
REMARK  4 active torsions:
REMARK  status: ('A' for Active; 'I' for Inactive)
REMARK    1  A    between atoms: C_5  and  C_7
REMARK    2  A    between atoms: C_16  and  C_18
REMARK    3  A    between atoms: C_21  and  C_24
REMARK    4  A    between atoms: C_24  and  N_25
REMARK                            x       y       z     vdW  Elec       q    Type
REMARK                         _______ _______ _______ _____ _____    ______ ____
ROOT
ATOM      1  C   UNL     1       1.247  -2.164  -0.023  0.00  0.00    +0.005 A 
ATOM      2  C   UNL     1       0.761  -2.857  -1.081  0.00  0.00    +0.056 A 
ATOM      3  S   UNL     1       1.017  -4.558  -0.616  0.00  0.00    -0.076 S 
ATOM      4  C   UNL     1       1.764  -4.303   0.974  0.00  0.00    +0.116 A 
ATOM      5  C   UNL     1       1.802  -2.904   1.104  0.00  0.00    +0.080 A 
ATOM      6  C   UNL     1       2.372  -2.405   2.319  0.00  0.00    +0.261 A 
ATOM      7  O   UNL     1       2.443  -1.205   2.521  0.00  0.00    -0.267 OA
ATOM      8  N   UNL     1       2.829  -3.279   3.235  0.00  0.00    -0.306 N 
ATOM      9  H   UNL     1       3.216  -2.946   4.060  0.00  0.00    +0.170 HD
ATOM     10  C   UNL     1       2.756  -4.628   3.023  0.00  0.00    +0.142 A 
ATOM     11  N   UNL     1       2.228  -5.111   1.919  0.00  0.00    -0.222 NA
ENDROOT
BRANCH   1  16
ATOM     12  C   UNL     1      -0.017   1.376   0.010  0.00  0.00    +0.001 A 
ATOM     13  C   UNL     1       1.170   2.087   0.002  0.00  0.00    +0.001 A 
ATOM     14  C   UNL     1       2.382   1.421  -0.013  0.00  0.00    +0.020 A 
ATOM     15  C   UNL     1       2.414   0.040  -0.022  0.00  0.00    +0.049 A 
ATOM     16  C   UNL     1       1.220  -0.682  -0.014  0.00  0.00    +0.002 A 
ATOM     17  C   UNL     1       0.002  -0.004   0.002  0.00  0.00    +0.010 A 
ATOM     18 CL   UNL     1       3.936  -0.795  -0.042  0.00  0.00    -0.083 Cl
ENDBRANCH   1  16
BRANCH  10  19
ATOM     19  C   UNL     1       3.268  -5.556   4.053  0.00  0.00    +0.017 A 
ATOM     20  C   UNL     1       3.817  -5.057   5.236  0.00  0.00    +0.012 A 
ATOM     21  C   UNL     1       4.293  -5.929   6.193  0.00  0.00    +0.006 A 
ATOM     22  C   UNL     1       4.228  -7.295   5.983  0.00  0.00    -0.030 A 
ATOM     23  C   UNL     1       3.686  -7.796   4.813  0.00  0.00    +0.006 A 
ATOM     24  C   UNL     1       3.201  -6.936   3.850  0.00  0.00    +0.012 A 
BRANCH  22  25
ATOM     25  C   UNL     1       4.750  -8.241   7.033  0.00  0.00    +0.153 C 
BRANCH  25  26
ATOM     26  N   UNL     1       3.672  -8.579   7.965  0.00  0.00    -0.220 N 
ATOM     27  C   UNL     1       3.393  -7.884   9.086  0.00  0.00    +0.240 C 
ATOM     28  O   UNL     1       3.966  -6.897   9.496  0.00  0.00    -0.273 OA
ATOM     29  C   UNL     1       2.215  -8.591   9.725  0.00  0.00    +0.202 C 
ATOM     30  N   UNL     1       1.940  -9.707   8.804  0.00  0.00    -0.290 N 
ATOM     31  C   UNL     1       2.838  -9.614   7.807  0.00  0.00    +0.309 C 
ATOM     32  O   UNL     1       2.889 -10.385   6.869  0.00  0.00    -0.252 OA
ATOM     33  H   UNL     1       1.245 -10.377   8.897  0.00  0.00    +0.151 HD
ENDBRANCH  25  26
ENDBRANCH  22  25
ENDBRANCH  10  19
TORSDOF 4
