REMARK  Name = ZINC54624401
REMARK  14 active torsions:
REMARK  status: ('A' for Active; 'I' for Inactive)
REMARK    1  A    between atoms: C_1  and  C_2
REMARK    2  A    between atoms: C_2  and  C_3
REMARK    3  A    between atoms: C_3  and  C_4
REMARK    4  A    between atoms: C_4  and  O_5
REMARK    5  A    between atoms: O_5  and  C_6
REMARK    6  A    between atoms: C_10  and  C_12
REMARK    7  A    between atoms: C_14  and  C_32
REMARK    8  A    between atoms: C_15  and  C_31
REMARK    9  A    between atoms: C_20  and  S_22
REMARK   10  A    between atoms: S_22  and  C_23
REMARK   11  A    between atoms: C_23  and  C_24
REMARK   12  A    between atoms: C_32  and  O_34
REMARK   13  A    between atoms: O_34  and  C_35
REMARK   14  A    between atoms: C_35  and  C_36
REMARK                            x       y       z     vdW  Elec       q    Type
REMARK                         _______ _______ _______ _____ _____    ______ ____
ROOT
ATOM      1  C   UNL     1       2.997  -6.343   4.901  0.00  0.00    +0.179 C 
ATOM      2  C   UNL     1       1.972  -7.209   5.583  0.00  0.00    +0.082 C 
ATOM      3  C   UNL     1       2.090  -8.542   5.685  0.00  0.00    +0.020 C 
ATOM      4  N   UNL     1       3.171  -9.221   5.180  0.00  0.00    -0.287 N 
ATOM      5  C   UNL     1       4.271  -8.470   4.790  0.00  0.00    +0.219 A 
ATOM      6  N   UNL     1       4.208  -7.122   4.659  0.00  0.00    -0.220 N 
ATOM      7  N   UNL     1       5.477  -6.699   4.268  0.00  0.00    -0.141 NA
ATOM      8  C   UNL     1       6.225  -7.777   4.176  0.00  0.00    +0.211 A 
ATOM      9  N   UNL     1       5.485  -8.850   4.494  0.00  0.00    -0.187 NA
ATOM     10  C   UNL     1       1.001  -9.320   6.378  0.00  0.00    +0.061 C 
ATOM     11  H   UNL     1       3.166 -10.187   5.098  0.00  0.00    +0.155 HD
ENDROOT
BRANCH   1  16
ATOM     12  C   UNL     1       1.807  -4.042   2.151  0.00  0.00    +0.121 A 
ATOM     13  C   UNL     1       1.431  -4.953   1.174  0.00  0.00    +0.045 A 
ATOM     14  C   UNL     1       1.564  -6.308   1.407  0.00  0.00    +0.004 A 
ATOM     15  C   UNL     1       2.071  -6.756   2.613  0.00  0.00    +0.006 A 
ATOM     16  C   UNL     1       2.445  -5.851   3.588  0.00  0.00    -0.015 A 
ATOM     17  C   UNL     1       2.320  -4.494   3.358  0.00  0.00    +0.051 A 
BRANCH  12  18
ATOM     18  O   UNL     1       1.677  -2.708   1.924  0.00  0.00    -0.492 OA
BRANCH  18  19
ATOM     19  C   UNL     1       1.141  -2.315   0.659  0.00  0.00    +0.229 C 
BRANCH  19  20
ATOM     20  C   UNL     1       1.071  -0.788   0.587  0.00  0.00    +0.041 C 
BRANCH  20  22
ATOM     21  C   UNL     1       0.428   1.160  -0.839  0.00  0.00    +0.004 C 
ATOM     22  C   UNL     1       0.498  -0.367  -0.767  0.00  0.00    -0.000 C 
ENDBRANCH  20  22
ENDBRANCH  19  20
ENDBRANCH  18  19
ENDBRANCH  12  18
ENDBRANCH   1  16
BRANCH   2  23
ATOM     23  C   UNL     1       0.832  -6.590   6.142  0.00  0.00    +0.339 C 
ATOM     24  O   UNL     1       0.929  -5.958   7.178  0.00  0.00    -0.245 OA
BRANCH  23  25
ATOM     25  O   UNL     1      -0.365  -6.700   5.528  0.00  0.00    -0.462 OA
BRANCH  25  26
ATOM     26  C   UNL     1      -1.475  -6.048   6.149  0.00  0.00    +0.229 C 
ATOM     27  C   UNL     1      -2.736  -6.282   5.315  0.00  0.00    +0.048 C 
ENDBRANCH  25  26
ENDBRANCH  23  25
ENDBRANCH   2  23
BRANCH   8  28
ATOM     28  S   UNL     1       7.925  -7.808   3.712  0.00  0.00    -0.080 S 
BRANCH  28  29
ATOM     29  C   UNL     1       8.366  -9.566   3.777  0.00  0.00    +0.114 C 
BRANCH  29  30
ATOM     30  C   UNL     1       9.814  -9.735   3.397  0.00  0.00    -0.019 A 
ATOM     31  C   UNL     1      10.163  -9.929   2.073  0.00  0.00    +0.006 A 
ATOM     32  C   UNL     1      11.491 -10.084   1.724  0.00  0.00    +0.000 A 
ATOM     33  C   UNL     1      12.472 -10.045   2.698  0.00  0.00    +0.001 A 
ATOM     34  C   UNL     1      12.124  -9.851   4.022  0.00  0.00    +0.020 A 
ATOM     35  C   UNL     1      10.795  -9.691   4.371  0.00  0.00    +0.045 A 
ATOM     36 CL   UNL     1      10.358  -9.441   6.033  0.00  0.00    -0.083 Cl
ENDBRANCH  29  30
ENDBRANCH  28  29
ENDBRANCH   8  28
TORSDOF 11
