REMARK  Name = ZINC14506048
REMARK  3 active torsions:
REMARK  status: ('A' for Active; 'I' for Inactive)
REMARK    1  A    between atoms: C_5  and  C_7
REMARK    2  A    between atoms: C_12  and  C_20
REMARK    3  A    between atoms: C_13  and  C_15
REMARK                            x       y       z     vdW  Elec       q    Type
REMARK                         _______ _______ _______ _____ _____    ______ ____
ROOT
ATOM      1  C   UNL     1       1.250  -2.160  -0.023  0.00  0.00    +0.251 C 
ATOM      2  O   UNL     1       2.314  -2.748  -0.037  0.00  0.00    -0.270 OA
ATOM      3  N   UNL     1       0.096  -2.855  -0.015  0.00  0.00    -0.261 N 
ATOM      4  C   UNL     1       0.122  -4.242  -0.024  0.00  0.00    +0.166 A 
ATOM      5  N   UNL     1       1.163  -5.053  -0.034  0.00  0.00    -0.221 NA
ATOM      6  C   UNL     1       1.017  -6.368  -0.041  0.00  0.00    +0.126 A 
ATOM      7  C   UNL     1      -0.278  -6.896  -0.037  0.00  0.00    +0.086 A 
ATOM      8  S   UNL     1      -1.245  -5.393  -0.017  0.00  0.00    -0.048 S 
ATOM      9  H   UNL     1      -0.753  -2.386  -0.004  0.00  0.00    +0.157 HD
ENDROOT
BRANCH   1  14
ATOM     10  C   UNL     1      -0.017   1.375   0.010  0.00  0.00    +0.001 A 
ATOM     11  C   UNL     1       1.170   2.087   0.002  0.00  0.00    +0.001 A 
ATOM     12  C   UNL     1       2.383   1.422  -0.013  0.00  0.00    +0.016 A 
ATOM     13  C   UNL     1       2.417   0.042  -0.022  0.00  0.00    +0.030 A 
ATOM     14  C   UNL     1       1.222  -0.683  -0.014  0.00  0.00    +0.051 A 
ATOM     15  C   UNL     1       0.002  -0.004   0.002  0.00  0.00    +0.014 A 
ATOM     16 BR   UNL     1       4.076  -0.866  -0.044  0.00  0.00    -0.050 Br
ENDBRANCH   1  14
BRANCH   7  17
ATOM     17  C   UNL     1      -0.719  -8.295  -0.043  0.00  0.00    +0.144 A 
ATOM     18  C   UNL     1      -2.014  -8.727  -0.045  0.00  0.00    +0.050 A 
ATOM     19  C   UNL     1      -1.971 -10.135  -0.052  0.00  0.00    +0.042 A 
ATOM     20  C   UNL     1      -0.671 -10.492  -0.054  0.00  0.00    +0.196 A 
ATOM     21  O   UNL     1       0.083  -9.379  -0.054  0.00  0.00    -0.462 OA
ENDBRANCH   7  17
BRANCH   6  22
ATOM     22  C   UNL     1       2.192  -7.257  -0.052  0.00  0.00    +0.154 A 
ATOM     23  C   UNL     1       3.374  -7.012  -0.684  0.00  0.00    +0.051 A 
ATOM     24  C   UNL     1       4.207  -8.120  -0.431  0.00  0.00    +0.042 A 
ATOM     25  C   UNL     1       3.503  -8.977   0.334  0.00  0.00    +0.196 A 
ATOM     26  O   UNL     1       2.288  -8.450   0.566  0.00  0.00    -0.461 OA
ENDBRANCH   6  22
TORSDOF 3
