REMARK  Name = ZINC01077305
REMARK  7 active torsions:
REMARK  status: ('A' for Active; 'I' for Inactive)
REMARK    1  A    between atoms: C_1  and  C_2
REMARK    2  A    between atoms: C_2  and  O_3
REMARK    3  A    between atoms: O_3  and  C_4
REMARK    4  A    between atoms: C_7  and  C_12
REMARK    5  A    between atoms: C_9  and  O_10
REMARK    6  A    between atoms: O_10  and  C_11
REMARK    7  A    between atoms: C_17  and  C_27
REMARK                            x       y       z     vdW  Elec       q    Type
REMARK                         _______ _______ _______ _____ _____    ______ ____
ROOT
ATOM      1  C   UNL     1      -1.375   2.792   0.932  0.00  0.00    +0.032 C 
ATOM      2  C   UNL     1      -0.451   3.673   0.093  0.00  0.00    +0.059 C 
ATOM      3  C   UNL     1       0.945   3.071   0.058  0.00  0.00    +0.017 C 
ATOM      4  C   UNL     1       1.109   1.740   0.080  0.00  0.00    +0.036 C 
ATOM      5  C   UNL     1       2.428   1.006   0.004  0.00  0.00    +0.136 C 
ATOM      6  N   UNL     1       3.590   1.855   0.167  0.00  0.00    -0.331 N 
ATOM      7  C   UNL     1       3.889   2.849  -0.760  0.00  0.00    +0.049 A 
ATOM      8  C   UNL     1       5.027   2.779  -1.550  0.00  0.00    +0.025 A 
ATOM      9  C   UNL     1       5.263   3.764  -2.493  0.00  0.00    +0.002 A 
ATOM     10  C   UNL     1       4.373   4.811  -2.651  0.00  0.00    +0.002 A 
ATOM     11  C   UNL     1       3.245   4.894  -1.852  0.00  0.00    +0.025 A 
ATOM     12  C   UNL     1       3.020   3.921  -0.895  0.00  0.00    +0.052 A 
ATOM     13  N   UNL     1       1.950   3.984  -0.007  0.00  0.00    -0.316 N 
ATOM     14  C   UNL     1      -0.014   0.883   0.176  0.00  0.00    +0.163 C 
ATOM     15  O   UNL     1       0.165  -0.319   0.174  0.00  0.00    -0.292 OA
ATOM     16  C   UNL     1      -1.416   1.405   0.275  0.00  0.00    +0.088 C 
ATOM     17  H   UNL     1       4.169   1.728   0.935  0.00  0.00    +0.147 HD
ATOM     18  H   UNL     1       1.919   4.732   0.609  0.00  0.00    +0.152 HD
ENDROOT
BRANCH   5  19
ATOM     19  C   UNL     1       2.519   0.322  -1.335  0.00  0.00    -0.019 A 
ATOM     20  C   UNL     1       2.538   1.074  -2.494  0.00  0.00    +0.009 A 
ATOM     21  C   UNL     1       2.627   0.451  -3.725  0.00  0.00    +0.050 A 
ATOM     22  C   UNL     1       2.685  -0.931  -3.800  0.00  0.00    +0.166 A 
ATOM     23  C   UNL     1       2.660  -1.690  -2.632  0.00  0.00    +0.167 A 
ATOM     24  C   UNL     1       2.577  -1.058  -1.401  0.00  0.00    +0.055 A 
ATOM     25  O   UNL     1       2.728  -3.011  -2.968  0.00  0.00    -0.453 OA
ATOM     26  C   UNL     1       2.383  -3.071  -4.364  0.00  0.00    +0.466 C 
ATOM     27  O   UNL     1       2.769  -1.778  -4.867  0.00  0.00    -0.453 OA
ENDBRANCH   5  19
BRANCH   1  31
ATOM     28  C   UNL     1      -5.306   4.473   1.004  0.00  0.00    +0.162 A 
ATOM     29  C   UNL     1      -4.729   4.106  -0.201  0.00  0.00    +0.050 A 
ATOM     30  C   UNL     1      -3.457   3.563  -0.221  0.00  0.00    +0.008 A 
ATOM     31  C   UNL     1      -2.760   3.385   0.960  0.00  0.00    -0.040 A 
ATOM     32  C   UNL     1      -3.333   3.744   2.165  0.00  0.00    +0.053 A 
ATOM     33  C   UNL     1      -4.605   4.293   2.192  0.00  0.00    +0.162 A 
BRANCH  33  34
ATOM     34  O   UNL     1      -5.168   4.652   3.377  0.00  0.00    -0.491 OA
ATOM     35  C   UNL     1      -4.389   4.438   4.556  0.00  0.00    +0.277 C 
ENDBRANCH  33  34
BRANCH  28  36
ATOM     36  O   UNL     1      -6.557   5.007   1.025  0.00  0.00    -0.489 OA
BRANCH  36  38
ATOM     37  C   UNL     1      -8.602   5.773  -0.010  0.00  0.00    +0.048 C 
ATOM     38  C   UNL     1      -7.218   5.161  -0.233  0.00  0.00    +0.226 C 
ENDBRANCH  36  38
ENDBRANCH  28  36
ENDBRANCH   1  31
TORSDOF 5
