REMARK  Name = ZINC37350419
REMARK  3 active torsions:
REMARK  status: ('A' for Active; 'I' for Inactive)
REMARK    1  A    between atoms: C_4  and  C_8
REMARK    2  A    between atoms: C_9  and  C_14
REMARK    3  A    between atoms: C_10  and  N_13
REMARK                            x       y       z     vdW  Elec       q    Type
REMARK                         _______ _______ _______ _____ _____    ______ ____
ROOT
ATOM      1  C   UNL     1       3.700  -0.700  -0.154  0.00  0.00    +0.128 A 
ATOM      2  C   UNL     1       3.892  -2.138   0.049  0.00  0.00    +0.071 A 
ATOM      3  C   UNL     1       5.255  -2.351   0.104  0.00  0.00    +0.224 A 
ATOM      4  O   UNL     1       5.865  -1.166  -0.049  0.00  0.00    -0.339 OA
ATOM      5  N   UNL     1       4.892  -0.155  -0.213  0.00  0.00    -0.075 NA
ENDROOT
BRANCH   1   9
ATOM      6  C   UNL     1      -0.025   1.326  -0.508  0.00  0.00    +0.006 A 
ATOM      7  C   UNL     1       0.942   1.808   0.357  0.00  0.00    +0.039 A 
ATOM      8  C   UNL     1       2.154   1.154   0.476  0.00  0.00    +0.135 A 
ATOM      9  C   UNL     1       2.402   0.006  -0.277  0.00  0.00    +0.075 A 
ATOM     10  C   UNL     1       1.422  -0.475  -1.147  0.00  0.00    +0.135 A 
ATOM     11  C   UNL     1       0.214   0.189  -1.257  0.00  0.00    +0.039 A 
ATOM     12  F   UNL     1       1.654  -1.586  -1.880  0.00  0.00    -0.205 F 
ATOM     13  F   UNL     1       3.097   1.627   1.321  0.00  0.00    -0.205 F 
ENDBRANCH   1   9
BRANCH   2  14
ATOM     14  C   UNL     1       2.830  -3.164   0.172  0.00  0.00    -0.011 A 
ATOM     15  C   UNL     1       1.959  -3.142   1.261  0.00  0.00    +0.011 A 
ATOM     16  C   UNL     1       0.972  -4.100   1.371  0.00  0.00    +0.039 A 
ATOM     17  C   UNL     1       0.845  -5.082   0.402  0.00  0.00    +0.123 A 
ATOM     18  C   UNL     1       1.708  -5.108  -0.682  0.00  0.00    +0.039 A 
ATOM     19  C   UNL     1       2.695  -4.151  -0.803  0.00  0.00    +0.011 A 
ATOM     20  F   UNL     1      -0.123  -6.017   0.514  0.00  0.00    -0.205 F 
ENDBRANCH   2  14
BRANCH   3  21
ATOM     21  N   UNL     1       5.879  -3.568   0.285  0.00  0.00    -0.327 N 
ATOM     22  H   UNL     1       5.349  -4.374   0.387  0.00  0.00    +0.145 HD
ATOM     23  H   UNL     1       6.847  -3.618   0.309  0.00  0.00    +0.145 HD
ENDBRANCH   3  21
TORSDOF 3
