REMARK  Name = ZINC25763175
REMARK  3 active torsions:
REMARK  status: ('A' for Active; 'I' for Inactive)
REMARK    1  A    between atoms: C_1  and  C_2
REMARK    2  A    between atoms: C_3  and  C_21
REMARK    3  A    between atoms: C_4  and  C_14
REMARK                            x       y       z     vdW  Elec       q    Type
REMARK                         _______ _______ _______ _____ _____    ______ ____
ROOT
ATOM      1  C   UNL     1      -0.059   5.697   3.804  0.00  0.00    +0.061 C 
ATOM      2  C   UNL     1      -0.483   5.086   2.494  0.00  0.00    +0.014 C 
ATOM      3  C   UNL     1      -0.534   5.848   1.389  0.00  0.00    +0.043 C 
ATOM      4  C   UNL     1      -0.959   5.277   0.067  0.00  0.00    +0.090 C 
ATOM      5  C   UNL     1      -0.873   3.771   0.077  0.00  0.00    +0.024 C 
ATOM      6  C   UNL     1      -0.814   3.091   1.242  0.00  0.00    +0.015 C 
ATOM      7  N   UNL     1      -0.812   3.760   2.437  0.00  0.00    -0.321 N 
ATOM      8  C   UNL     1      -0.747   1.584   1.263  0.00  0.00    +0.051 C 
ATOM      9  C   UNL     1      -0.024   1.085   0.010  0.00  0.00    +0.014 C 
ATOM     10  C   UNL     1      -0.771   1.598  -1.225  0.00  0.00    +0.080 C 
ATOM     11  C   UNL     1      -0.861   3.098  -1.157  0.00  0.00    +0.162 C 
ATOM     12  O   UNL     1      -0.924   3.739  -2.187  0.00  0.00    -0.292 OA
ATOM     13  H   UNL     1      -1.078   3.220   3.357  0.00  0.00    +0.152 HD
ENDROOT
BRANCH   3  14
ATOM     14  C   UNL     1      -0.182   7.218   1.472  0.00  0.00    +0.248 C 
ATOM     15  O   UNL     1       0.164   7.693   2.538  0.00  0.00    -0.270 OA
ATOM     16  N   UNL     1      -0.229   7.994   0.371  0.00  0.00    -0.267 N 
ATOM     17  C   UNL     1       0.014   9.362   0.473  0.00  0.00    +0.125 A 
ATOM     18  C   UNL     1      -0.140  10.174  -0.646  0.00  0.00    +0.045 A 
ATOM     19  C   UNL     1       0.101  11.531  -0.531  0.00  0.00    +0.020 A 
ATOM     20  C   UNL     1       0.498  12.031   0.703  0.00  0.00    +0.036 A 
ATOM     21  C   UNL     1       0.636  11.166   1.771  0.00  0.00    +0.128 A 
ATOM     22  N   UNL     1       0.395   9.876   1.631  0.00  0.00    -0.239 NA
ATOM     23 BR   UNL     1       0.848  13.877   0.918  0.00  0.00    -0.049 Br
ATOM     24  H   UNL     1      -0.460   7.547  -0.607  0.00  0.00    +0.157 HD
ENDBRANCH   3  14
BRANCH   4  25
ATOM     25  C   UNL     1      -2.379   5.690  -0.218  0.00  0.00    -0.035 A 
ATOM     26  C   UNL     1      -3.397   5.294   0.629  0.00  0.00    +0.007 A 
ATOM     27  C   UNL     1      -4.700   5.676   0.371  0.00  0.00    +0.038 A 
ATOM     28  C   UNL     1      -4.987   6.447  -0.742  0.00  0.00    +0.123 A 
ATOM     29  C   UNL     1      -3.967   6.839  -1.593  0.00  0.00    +0.038 A 
ATOM     30  C   UNL     1      -2.665   6.460  -1.330  0.00  0.00    +0.007 A 
ATOM     31  F   UNL     1      -6.261   6.818  -0.998  0.00  0.00    -0.205 F 
ENDBRANCH   4  25
TORSDOF 2
