REMARK  Name = ZINC53095977
REMARK  6 active torsions:
REMARK  status: ('A' for Active; 'I' for Inactive)
REMARK    1  A    between atoms: C_1  and  C_2
REMARK    2  A    between atoms: N_5  and  S_8
REMARK    3  A    between atoms: S_8  and  N_11
REMARK    4  A    between atoms: N_11  and  C_12
REMARK    5  A    between atoms: C_12  and  C_18
REMARK    6  A    between atoms: C_18  and  O_19
REMARK                            x       y       z     vdW  Elec       q    Type
REMARK                         _______ _______ _______ _____ _____    ______ ____
ROOT
ATOM      1  N   UNL     1       4.245  -2.725  -0.280  0.00  0.00    -0.171 NA
ATOM      2  H   UNL     1       4.549  -2.390  -1.138  0.00  0.00    +0.150 HD
ENDROOT
BRANCH   1   3
ATOM      3  C   UNL     1       4.406  -1.906   0.924  0.00  0.00    +0.064 C 
ATOM      4  C   UNL     1       3.095  -1.175   1.222  0.00  0.00    +0.026 C 
ATOM      5  C   UNL     1       2.732  -0.276   0.039  0.00  0.00    +0.002 C 
ATOM      6  C   UNL     1       3.846   0.747  -0.186  0.00  0.00    +0.000 C 
ATOM      7  C   UNL     1       5.157   0.017  -0.484  0.00  0.00    +0.002 C 
ATOM      8  C   UNL     1       5.521  -0.882   0.700  0.00  0.00    +0.026 C 
BRANCH   3   9
ATOM      9  C   UNL     1       4.769  -2.804   2.108  0.00  0.00    +0.179 C 
BRANCH   9  10
ATOM     10  O   UNL     1       3.617  -3.545   2.515  0.00  0.00    -0.393 OA
ATOM     11  H   UNL     1       3.774  -4.137   3.263  0.00  0.00    +0.209 HD
ENDBRANCH   9  10
ENDBRANCH   3   9
ENDBRANCH   1   3
BRANCH   1  12
ATOM     12  S   UNL     1       3.546  -4.222  -0.175  0.00  0.00    +0.098 S 
ATOM     13  O   UNL     1       4.138  -4.870   0.942  0.00  0.00    -0.141 OA
ATOM     14  O   UNL     1       3.577  -4.777  -1.483  0.00  0.00    -0.141 OA
BRANCH  12  19
ATOM     15  C   UNL     1      -1.054  -1.525   1.936  0.00  0.00    +0.007 C 
ATOM     16  C   UNL     1      -0.333  -2.679   1.237  0.00  0.00    -0.012 C 
ATOM     17  C   UNL     1       0.353  -2.160  -0.029  0.00  0.00    +0.020 C 
ATOM     18  C   UNL     1       1.045  -3.325  -0.744  0.00  0.00    +0.111 C 
ATOM     19  N   UNL     1       1.950  -3.991   0.203  0.00  0.00    -0.167 NA
ATOM     20  C   UNL     1       1.412  -4.449   1.491  0.00  0.00    +0.111 C 
ATOM     21  C   UNL     1       0.716  -3.272   2.181  0.00  0.00    +0.020 C 
ENDBRANCH  12  19
ENDBRANCH   1  12
TORSDOF 5
