REMARK  Name = ZINC42870174
REMARK  4 active torsions:
REMARK  status: ('A' for Active; 'I' for Inactive)
REMARK    1  A    between atoms: C_1  and  C_2
REMARK    2  A    between atoms: C_8  and  C_10
REMARK    3  A    between atoms: C_10  and  N_11
REMARK    4  A    between atoms: C_17  and  C_20
REMARK                            x       y       z     vdW  Elec       q    Type
REMARK                         _______ _______ _______ _____ _____    ______ ____
ROOT
ATOM      1  N   UNL     1       0.796  -0.405   3.684  0.00  0.00    -0.299 N 
ATOM      2  C   UNL     1       0.357  -0.070   4.914  0.00  0.00    +0.302 C 
ATOM      3  O   UNL     1      -0.631   0.627   5.037  0.00  0.00    -0.253 OA
ATOM      4  N   UNL     1       1.014  -0.509   6.006  0.00  0.00    -0.286 N 
ATOM      5  C   UNL     1       2.275  -1.251   5.874  0.00  0.00    +0.110 C 
ATOM      6  C   UNL     1       3.343  -0.564   6.732  0.00  0.00    +0.034 C 
ATOM      7  C   UNL     1       2.834  -0.440   8.170  0.00  0.00    +0.105 C 
ATOM      8  C   UNL     1       1.569   0.421   8.193  0.00  0.00    +0.034 C 
ATOM      9  C   UNL     1       0.485  -0.249   7.352  0.00  0.00    +0.110 C 
ATOM     10  H   UNL     1       1.624  -0.900   3.583  0.00  0.00    +0.150 HD
ENDROOT
BRANCH   7  11
ATOM     11  C   UNL     1       3.896   0.204   9.024  0.00  0.00    +0.359 C 
ATOM     12  O   UNL     1       3.576   0.881   9.986  0.00  0.00    -0.246 OA
ATOM     13  O   UNL     1       5.074   0.048   8.753  0.00  0.00    -0.246 OA
ENDBRANCH   7  11
BRANCH   1  14
ATOM     14  C   UNL     1       0.023  -0.021   2.501  0.00  0.00    +0.109 C 
BRANCH  14  21
ATOM     15  C   UNL     1      -0.019   1.518   0.008  0.00  0.00    +0.008 C 
ATOM     16  C   UNL     1      -0.004  -0.012   0.002  0.00  0.00    -0.010 C 
ATOM     17  C   UNL     1       0.709  -0.510  -1.256  0.00  0.00    +0.003 C 
ATOM     18  C   UNL     1       0.724  -2.040  -1.262  0.00  0.00    +0.000 C 
ATOM     19  C   UNL     1       1.464  -2.547  -0.022  0.00  0.00    +0.000 C 
ATOM     20  C   UNL     1       0.751  -2.049   1.236  0.00  0.00    +0.005 C 
ATOM     21  C   UNL     1       0.736  -0.519   1.242  0.00  0.00    +0.009 C 
ENDBRANCH  14  21
ENDBRANCH   1  14
TORSDOF 3
