REMARK  Name = ZINC35292538
REMARK  15 active torsions:
REMARK  status: ('A' for Active; 'I' for Inactive)
REMARK    1  A    between atoms: C_1  and  C_2
REMARK    2  A    between atoms: C_8  and  C_10
REMARK    3  A    between atoms: C_10  and  N_11
REMARK    4  A    between atoms: C_17  and  C_19
REMARK    5  A    between atoms: C_19  and  C_20
REMARK    6  A    between atoms: C_20  and  C_21
REMARK    7  A    between atoms: C_23  and  C_32
REMARK    8  A    between atoms: C_24  and  O_31
REMARK    9  A    between atoms: C_25  and  C_27
REMARK   10  A    between atoms: C_27  and  C_28
REMARK   11  A    between atoms: C_27  and  C_29
REMARK   12  A    between atoms: C_27  and  C_30
REMARK   13  A    between atoms: C_32  and  C_33
REMARK   14  A    between atoms: C_32  and  C_34
REMARK   15  A    between atoms: C_32  and  C_35
REMARK                            x       y       z     vdW  Elec       q    Type
REMARK                         _______ _______ _______ _____ _____    ______ ____
ROOT
ATOM      1  N   UNL     1      -5.059  -3.987   0.003  0.00  0.00    -0.291 NA
ATOM      2  C   UNL     1      -5.405  -3.308   1.259  0.00  0.00    +0.104 C 
ATOM      3  C   UNL     1      -6.827  -2.748   1.157  0.00  0.00    +0.123 C 
ATOM      4  N   UNL     1      -7.733  -3.840   0.771  0.00  0.00    -0.299 N 
ATOM      5  C   UNL     1      -7.380  -4.656  -0.400  0.00  0.00    +0.123 C 
ATOM      6  C   UNL     1      -5.935  -5.141  -0.237  0.00  0.00    +0.104 C 
ATOM      7  C   UNL     1      -8.858  -4.086   1.472  0.00  0.00    +0.216 C 
ATOM      8  O   UNL     1      -9.134  -3.403   2.435  0.00  0.00    -0.276 OA
ENDROOT
BRANCH   1   9
ATOM      9  C   UNL     1      -3.646  -4.389  -0.006  0.00  0.00    +0.181 C 
BRANCH   9  17
ATOM     10  C   UNL     1      -0.018   1.503   0.010  0.00  0.00    +0.089 C 
ATOM     11  C   UNL     1       0.002  -0.004   0.002  0.00  0.00    +0.136 A 
ATOM     12  C   UNL     1      -1.076  -0.808   0.003  0.00  0.00    +0.091 A 
ATOM     13  C   UNL     1      -0.625  -2.147  -0.007  0.00  0.00    +0.168 A 
ATOM     14  N   UNL     1       0.683  -2.130  -0.013  0.00  0.00    -0.063 NA
ATOM     15  O   UNL     1       1.100  -0.776  -0.013  0.00  0.00    -0.358 OA
ATOM     16  N   UNL     1      -1.432  -3.285  -0.010  0.00  0.00    -0.267 N 
ATOM     17  C   UNL     1      -2.774  -3.159  -0.003  0.00  0.00    +0.232 C 
ATOM     18  O   UNL     1      -3.280  -2.057   0.006  0.00  0.00    -0.274 OA
ATOM     19  H   UNL     1      -1.027  -4.166  -0.017  0.00  0.00    +0.156 HD
ENDBRANCH   9  17
ENDBRANCH   1   9
BRANCH   7  20
ATOM     20  C   UNL     1      -9.772  -5.211   1.058  0.00  0.00    +0.100 C 
BRANCH  20  21
ATOM     21  C   UNL     1     -10.966  -5.274   2.013  0.00  0.00    +0.044 C 
BRANCH  21  22
ATOM     22  C   UNL     1     -11.880  -6.399   1.600  0.00  0.00    -0.046 A 
ATOM     23  C   UNL     1     -12.902  -6.162   0.698  0.00  0.00    +0.011 A 
ATOM     24  C   UNL     1     -13.741  -7.191   0.318  0.00  0.00    -0.000 A 
ATOM     25  C   UNL     1     -13.559  -8.463   0.841  0.00  0.00    +0.124 A 
ATOM     26  C   UNL     1     -12.533  -8.698   1.746  0.00  0.00    -0.000 A 
ATOM     27  C   UNL     1     -11.693  -7.667   2.119  0.00  0.00    +0.011 A 
BRANCH  26  28
ATOM     28  C   UNL     1     -12.332 -10.078   2.316  0.00  0.00    -0.009 C 
ATOM     29  C   UNL     1     -11.144 -10.064   3.280  0.00  0.00    +0.015 C 
ATOM     30  C   UNL     1     -13.594 -10.507   3.069  0.00  0.00    +0.015 C 
ATOM     31  C   UNL     1     -12.056 -11.065   1.180  0.00  0.00    +0.015 C 
ENDBRANCH  26  28
BRANCH  24  32
ATOM     32  C   UNL     1     -14.854  -6.933  -0.664  0.00  0.00    -0.009 C 
ATOM     33  C   UNL     1     -14.835  -5.461  -1.082  0.00  0.00    +0.015 C 
ATOM     34  C   UNL     1     -14.661  -7.815  -1.899  0.00  0.00    +0.015 C 
ATOM     35  C   UNL     1     -16.198  -7.259  -0.009  0.00  0.00    +0.015 C 
ENDBRANCH  24  32
BRANCH  25  36
ATOM     36  O   UNL     1     -14.384  -9.477   0.469  0.00  0.00    -0.506 OA
ATOM     37  H   UNL     1     -14.079  -9.967  -0.306  0.00  0.00    +0.292 HD
ENDBRANCH  25  36
ENDBRANCH  21  22
ENDBRANCH  20  21
ENDBRANCH   7  20
TORSDOF 8
