REMARK  Name = ZINC38656821
REMARK  12 active torsions:
REMARK  status: ('A' for Active; 'I' for Inactive)
REMARK    1  A    between atoms: C_1  and  O_2
REMARK    2  A    between atoms: O_2  and  C_3
REMARK    3  A    between atoms: C_6  and  C_11
REMARK    4  A    between atoms: C_7  and  O_9
REMARK    5  A    between atoms: O_9  and  C_10
REMARK    6  A    between atoms: C_16  and  O_25
REMARK    7  A    between atoms: C_20  and  N_24
REMARK    8  A    between atoms: C_21  and  C_22
REMARK    9  A    between atoms: O_25  and  C_26
REMARK   10  A    between atoms: C_26  and  C_28
REMARK   11  A    between atoms: C_28  and  O_29
REMARK   12  A    between atoms: O_29  and  C_30
REMARK                            x       y       z     vdW  Elec       q    Type
REMARK                         _______ _______ _______ _____ _____    ______ ____
ROOT
ATOM      1  C   UNL     1      -5.007  -2.565   0.010  0.00  0.00    +0.101 C 
ATOM      2  C   UNL     1      -5.760  -2.187   1.258  0.00  0.00    +0.008 A 
ATOM      3  C   UNL     1      -5.468  -2.828   2.449  0.00  0.00    +0.012 A 
ATOM      4  C   UNL     1      -6.148  -2.495   3.604  0.00  0.00    +0.047 A 
ATOM      5  C   UNL     1      -7.130  -1.514   3.572  0.00  0.00    +0.135 A 
ATOM      6  C   UNL     1      -7.425  -0.871   2.381  0.00  0.00    +0.093 A 
ATOM      7  C   UNL     1      -6.739  -1.207   1.221  0.00  0.00    +0.138 A 
ATOM      8  O   UNL     1      -7.040  -0.568   0.064  0.00  0.00    -0.441 OA
ATOM      9  C   UNL     1      -6.694  -1.115  -1.114  0.00  0.00    +0.199 C 
ATOM     10  C   UNL     1      -5.737  -2.065  -1.205  0.00  0.00    +0.098 C 
ENDROOT
BRANCH   1  14
ATOM     11  C   UNL     1      -1.102  -0.824   0.132  0.00  0.00    +0.124 A 
ATOM     12  C   UNL     1      -2.229  -0.014   0.163  0.00  0.00    +0.046 A 
ATOM     13  C   UNL     1      -3.489  -0.579   0.122  0.00  0.00    +0.012 A 
ATOM     14  C   UNL     1      -3.631  -1.952   0.052  0.00  0.00    +0.007 A 
ATOM     15  C   UNL     1      -2.508  -2.766   0.022  0.00  0.00    +0.128 A 
ATOM     16  C   UNL     1      -1.242  -2.201   0.056  0.00  0.00    +0.091 A 
BRANCH  11  18
ATOM     17  C   UNL     1       0.206   1.157   0.250  0.00  0.00    +0.277 C 
ATOM     18  O   UNL     1       0.137  -0.268   0.172  0.00  0.00    -0.495 OA
ENDBRANCH  11  18
BRANCH  15  19
ATOM     19  O   UNL     1      -2.649  -4.116  -0.047  0.00  0.00    -0.495 OA
ATOM     20  C   UNL     1      -1.450  -4.892  -0.075  0.00  0.00    +0.277 C 
ENDBRANCH  15  19
ENDBRANCH   1  14
BRANCH   9  21
ATOM     21  N   UNL     1      -7.330  -0.697  -2.256  0.00  0.00    -0.328 N 
ATOM     22  H   UNL     1      -8.018  -0.015  -2.205  0.00  0.00    +0.145 HD
ATOM     23  H   UNL     1      -7.091  -1.082  -3.113  0.00  0.00    +0.145 HD
ENDBRANCH   9  21
BRANCH  10  24
ATOM     24  C   UNL     1      -5.414  -2.607  -2.490  0.00  0.00    +0.101 C 
ATOM     25  N   UNL     1      -5.158  -3.037  -3.510  0.00  0.00    -0.191 NA
ENDBRANCH  10  24
BRANCH   5  26
ATOM     26  O   UNL     1      -7.800  -1.186   4.708  0.00  0.00    -0.423 OA
BRANCH  26  27
ATOM     27  C   UNL     1      -9.098  -1.520   4.792  0.00  0.00    +0.350 C 
ATOM     28  O   UNL     1      -9.608  -2.186   3.922  0.00  0.00    -0.247 OA
BRANCH  27  29
ATOM     29  C   UNL     1      -9.918  -1.066   5.972  0.00  0.00    +0.349 C 
BRANCH  29  30
ATOM     30  O   UNL     1     -11.257  -1.544   5.834  0.00  0.00    -0.481 OA
BRANCH  30  31
ATOM     31  C   UNL     1     -12.133  -1.219   6.821  0.00  0.00    +0.121 A 
ATOM     32  C   UNL     1     -11.713  -0.452   7.898  0.00  0.00    +0.048 A 
ATOM     33  C   UNL     1     -12.604  -0.123   8.901  0.00  0.00    +0.042 A 
ATOM     34  C   UNL     1     -13.917  -0.559   8.832  0.00  0.00    +0.124 A 
ATOM     35  C   UNL     1     -14.338  -1.326   7.759  0.00  0.00    +0.042 A 
ATOM     36  C   UNL     1     -13.450  -1.651   6.751  0.00  0.00    +0.048 A 
ATOM     37  F   UNL     1     -14.787  -0.237   9.814  0.00  0.00    -0.205 F 
ENDBRANCH  30  31
ENDBRANCH  29  30
ENDBRANCH  27  29
ENDBRANCH  26  27
ENDBRANCH   5  26
TORSDOF 10
