REMARK  Name = ZINC05056967
REMARK  5 active torsions:
REMARK  status: ('A' for Active; 'I' for Inactive)
REMARK    1  A    between atoms: C_1  and  C_2
REMARK    2  A    between atoms: C_6  and  N_8
REMARK    3  A    between atoms: N_13  and  C_16
REMARK    4  A    between atoms: C_16  and  C_17
REMARK    5  A    between atoms: C_22  and  C_23
REMARK                            x       y       z     vdW  Elec       q    Type
REMARK                         _______ _______ _______ _____ _____    ______ ____
ROOT
ATOM      1  N   UNL     1      -1.451  -0.987  -0.897  0.00  0.00    -0.194 N 
ATOM      2  C   UNL     1      -2.472  -0.608  -0.075  0.00  0.00    +0.190 A 
ATOM      3  C   UNL     1      -3.545  -1.458  -0.372  0.00  0.00    +0.196 A 
ATOM      4  C   UNL     1      -4.792  -1.272   0.374  0.00  0.00    +0.284 A 
ATOM      5  O   UNL     1      -5.764  -1.976   0.165  0.00  0.00    -0.265 OA
ATOM      6  N   UNL     1      -4.825  -0.289   1.303  0.00  0.00    -0.293 N 
ATOM      7  C   UNL     1      -3.733   0.485   1.521  0.00  0.00    +0.204 A 
ATOM      8  N   UNL     1      -2.618   0.334   0.868  0.00  0.00    -0.216 NA
ATOM      9  N   UNL     1      -3.152  -2.302  -1.337  0.00  0.00    -0.122 NA
ATOM     10  N   UNL     1      -1.934  -2.051  -1.673  0.00  0.00    -0.058 NA
ENDROOT
BRANCH   1  16
ATOM     11  C   UNL     1       3.392  -1.527  -1.561  0.00  0.00    +0.044 C 
ATOM     12  C   UNL     1       2.193  -0.659  -1.279  0.00  0.00    -0.048 A 
ATOM     13  C   UNL     1       2.356   0.700  -1.081  0.00  0.00    +0.003 A 
ATOM     14  C   UNL     1       1.259   1.500  -0.822  0.00  0.00    +0.002 A 
ATOM     15  C   UNL     1      -0.004   0.944  -0.760  0.00  0.00    +0.028 A 
ATOM     16  C   UNL     1      -0.171  -0.420  -0.959  0.00  0.00    +0.070 A 
ATOM     17  C   UNL     1       0.933  -1.221  -1.218  0.00  0.00    +0.031 A 
ENDBRANCH   1  16
BRANCH   6  18
ATOM     18  C   UNL     1      -6.047  -0.060   2.078  0.00  0.00    +0.161 C 
BRANCH  18  19
ATOM     19  C   UNL     1      -6.979   0.828   1.295  0.00  0.00    -0.025 A 
ATOM     20  C   UNL     1      -8.040   0.277   0.601  0.00  0.00    +0.005 A 
ATOM     21  C   UNL     1      -8.894   1.091  -0.117  0.00  0.00    +0.000 A 
ATOM     22  C   UNL     1      -8.690   2.459  -0.140  0.00  0.00    +0.000 A 
ATOM     23  C   UNL     1      -7.630   3.010   0.555  0.00  0.00    +0.004 A 
ATOM     24  C   UNL     1      -6.777   2.196   1.276  0.00  0.00    -0.046 A 
ATOM     25  C   UNL     1      -5.625   2.798   2.038  0.00  0.00    +0.044 C 
ENDBRANCH  18  19
ENDBRANCH   6  18
TORSDOF 3
