REMARK  Name = ZINC39665932
REMARK  11 active torsions:
REMARK  status: ('A' for Active; 'I' for Inactive)
REMARK    1  A    between atoms: C_1  and  C_2
REMARK    2  A    between atoms: C_5  and  O_8
REMARK    3  A    between atoms: O_8  and  C_9
REMARK    4  A    between atoms: C_9  and  C_11
REMARK    5  A    between atoms: C_9  and  C_12
REMARK    6  A    between atoms: C_12  and  N_13
REMARK    7  A    between atoms: C_14  and  C_16
REMARK    8  A    between atoms: C_27  and  C_29
REMARK    9  A    between atoms: C_34  and  O_35
REMARK   10  A    between atoms: O_35  and  C_36
REMARK   11  A    between atoms: C_36  and  C_38
REMARK                            x       y       z     vdW  Elec       q    Type
REMARK                         _______ _______ _______ _____ _____    ______ ____
ROOT
ATOM      1  C   UNL     1       5.111  -6.866   0.133  0.00  0.00    +0.100 C 
ATOM      2  C   UNL     1       5.170  -5.853  -1.032  0.00  0.00    +0.121 C 
ATOM      3  N   UNL     1       6.377  -6.238  -1.802  0.00  0.00    -0.296 N 
ATOM      4  C   UNL     1       6.364  -7.720  -1.789  0.00  0.00    +0.115 C 
ATOM      5  C   UNL     1       5.895  -8.090  -0.368  0.00  0.00    -0.004 C 
ATOM      6  C   UNL     1       4.987  -9.316  -0.415  0.00  0.00    -0.010 C 
ATOM      7  C   UNL     1       5.803 -10.533  -0.860  0.00  0.00    -0.082 C 
ATOM      8  N   UNL     1       6.908 -10.754   0.080  0.00  0.00    +0.379 N 
ATOM      9  C   UNL     1       7.827  -9.609   0.050  0.00  0.00    -0.082 C 
ATOM     10  C   UNL     1       7.097  -8.353   0.534  0.00  0.00    -0.010 C 
ATOM     11  C   UNL     1       7.281  -5.424  -2.382  0.00  0.00    +0.250 C 
ATOM     12  O   UNL     1       8.269  -5.894  -2.912  0.00  0.00    -0.270 OA
ATOM     13  H   UNL     1       6.538 -10.862   1.013  0.00  0.00    -0.086 HD
ATOM     14  H   UNL     1       7.407 -11.591  -0.180  0.00  0.00    -0.086 HD
ENDROOT
BRANCH  11  15
ATOM     15  C   UNL     1       7.071  -3.963  -2.375  0.00  0.00    +0.079 A 
ATOM     16  C   UNL     1       5.780  -3.439  -2.462  0.00  0.00    +0.017 A 
ATOM     17  C   UNL     1       5.590  -2.074  -2.454  0.00  0.00    +0.001 A 
ATOM     18  C   UNL     1       6.676  -1.218  -2.360  0.00  0.00    +0.004 A 
ATOM     19  C   UNL     1       7.958  -1.724  -2.273  0.00  0.00    +0.047 A 
ATOM     20  C   UNL     1       8.166  -3.095  -2.275  0.00  0.00    +0.144 A 
BRANCH  20  21
ATOM     21  O   UNL     1       9.425  -3.594  -2.184  0.00  0.00    -0.425 OA
BRANCH  21  22
ATOM     22  C   UNL     1       9.883  -3.933  -0.968  0.00  0.00    +0.309 C 
ATOM     23  O   UNL     1       9.153  -3.868  -0.008  0.00  0.00    -0.251 OA
ATOM     24  C   UNL     1      11.307  -4.396  -0.801  0.00  0.00    +0.136 C 
ENDBRANCH  21  22
ENDBRANCH  20  21
ENDBRANCH  11  15
BRANCH   1  26
ATOM     25  N   UNL     1       3.325  -7.604   1.677  0.00  0.00    -0.312 N 
ATOM     26  C   UNL     1       3.682  -7.242   0.428  0.00  0.00    +0.218 C 
ATOM     27  O   UNL     1       2.853  -7.220  -0.457  0.00  0.00    -0.275 OA
ATOM     28  H   UNL     1       3.987  -7.622   2.385  0.00  0.00    +0.149 HD
BRANCH  25  29
ATOM     29  C   UNL     1       1.935  -7.970   1.964  0.00  0.00    +0.148 C 
BRANCH  29  30
ATOM     30  C   UNL     1       1.800  -8.337   3.443  0.00  0.00    +0.187 C 
ATOM     31  C   UNL     1       0.380  -8.838   3.716  0.00  0.00    +0.053 C 
BRANCH  30  32
ATOM     32  O   UNL     1       2.060  -7.183   4.245  0.00  0.00    -0.488 OA
BRANCH  32  37
ATOM     33  C   UNL     1       3.840  -8.081   9.513  0.00  0.00    +0.044 C 
ATOM     34  C   UNL     1       3.364  -7.841   8.104  0.00  0.00    -0.050 A 
ATOM     35  C   UNL     1       2.994  -8.910   7.308  0.00  0.00    +0.007 A 
ATOM     36  C   UNL     1       2.558  -8.692   6.016  0.00  0.00    +0.046 A 
ATOM     37  C   UNL     1       2.489  -7.400   5.516  0.00  0.00    +0.121 A 
ATOM     38  C   UNL     1       2.860  -6.329   6.317  0.00  0.00    +0.046 A 
ATOM     39  C   UNL     1       3.291  -6.551   7.610  0.00  0.00    +0.007 A 
ENDBRANCH  32  37
ENDBRANCH  30  32
ENDBRANCH  29  30
ENDBRANCH  25  29
ENDBRANCH   1  26
TORSDOF 8
