REMARK  Name = ZINC02188849
REMARK  8 active torsions:
REMARK  status: ('A' for Active; 'I' for Inactive)
REMARK    1  A    between atoms: C_1  and  C_2
REMARK    2  A    between atoms: C_2  and  C_37
REMARK    3  A    between atoms: C_6  and  C_25
REMARK    4  A    between atoms: C_8  and  C_23
REMARK    5  A    between atoms: C_9  and  N_22
REMARK    6  A    between atoms: N_10  and  C_11
REMARK    7  A    between atoms: C_12  and  C_20
REMARK    8  A    between atoms: C_29  and  N_31
REMARK                            x       y       z     vdW  Elec       q    Type
REMARK                         _______ _______ _______ _____ _____    ______ ____
ROOT
ATOM      1  C   UNL     1      -0.064   0.683   2.460  0.00  0.00    +0.011 C 
ATOM      2  C   UNL     1      -0.759   1.320   1.254  0.00  0.00    -0.023 C 
ATOM      3  C   UNL     1      -0.040   0.906  -0.032  0.00  0.00    +0.058 C 
ATOM      4  C   UNL     1      -0.756   1.494  -1.223  0.00  0.00    +0.025 C 
ATOM      5  C   UNL     1      -2.088   1.711  -1.197  0.00  0.00    +0.025 C 
ATOM      6  C   UNL     1      -2.800   2.303  -2.387  0.00  0.00    +0.097 C 
ATOM      7  C   UNL     1      -1.969   2.185  -3.630  0.00  0.00    +0.077 C 
ATOM      8  C   UNL     1      -0.634   1.947  -3.563  0.00  0.00    +0.107 C 
ATOM      9  N   UNL     1      -0.020   1.800  -2.338  0.00  0.00    -0.253 N 
ATOM     10  C   UNL     1      -2.851   1.397  -0.058  0.00  0.00    +0.162 C 
ATOM     11  O   UNL     1      -4.051   1.585  -0.074  0.00  0.00    -0.292 OA
ATOM     12  C   UNL     1      -2.209   0.832   1.179  0.00  0.00    +0.086 C 
ATOM     13  C   UNL     1      -0.735   2.844   1.389  0.00  0.00    +0.011 C 
ENDROOT
BRANCH   9  14
ATOM     14  C   UNL     1       1.355   1.964  -2.233  0.00  0.00    +0.095 A 
ATOM     15  C   UNL     1       2.351   1.013  -2.397  0.00  0.00    +0.084 A 
ATOM     16  C   UNL     1       3.727   1.446  -2.232  0.00  0.00    -0.018 A 
ATOM     17  C   UNL     1       3.887   2.754  -1.931  0.00  0.00    -0.004 A 
ATOM     18  S   UNL     1       2.243   3.408  -1.874  0.00  0.00    -0.076 S 
ATOM     19  C   UNL     1       5.178   3.478  -1.703  0.00  0.00    +0.043 C 
ATOM     20  C   UNL     1       6.286   2.435  -1.494  0.00  0.00    +0.005 C 
ATOM     21  C   UNL     1       6.182   1.376  -2.595  0.00  0.00    +0.005 C 
ATOM     22  C   UNL     1       4.930   0.523  -2.380  0.00  0.00    +0.037 C 
BRANCH  15  23
ATOM     23  C   UNL     1       2.034  -0.346  -2.718  0.00  0.00    +0.102 C 
ATOM     24  N   UNL     1       1.782  -1.424  -2.972  0.00  0.00    -0.191 NA
ENDBRANCH  15  23
ENDBRANCH   9  14
BRANCH   6  25
ATOM     25  C   UNL     1      -3.083   3.759  -2.119  0.00  0.00    -0.033 A 
ATOM     26  C   UNL     1      -2.040   4.633  -1.880  0.00  0.00    +0.005 A 
ATOM     27  C   UNL     1      -2.299   5.968  -1.635  0.00  0.00    +0.003 A 
ATOM     28  C   UNL     1      -3.603   6.429  -1.630  0.00  0.00    +0.033 A 
ATOM     29  C   UNL     1      -4.646   5.555  -1.869  0.00  0.00    +0.126 A 
ATOM     30  C   UNL     1      -4.386   4.220  -2.119  0.00  0.00    +0.037 A 
BRANCH  29  31
ATOM     31  N   UNL     1      -6.042   6.048  -1.862  0.00  0.00    +0.056 N 
ATOM     32  O   UNL     1      -6.271   7.225  -1.647  0.00  0.00    -0.126 OA
ATOM     33  O   UNL     1      -6.961   5.278  -2.073  0.00  0.00    -0.126 OA
ENDBRANCH  29  31
ENDBRANCH   6  25
BRANCH   8  34
ATOM     34  N   UNL     1       0.106   1.853  -4.717  0.00  0.00    -0.345 N 
ATOM     35  H   UNL     1      -0.338   1.869  -5.580  0.00  0.00    +0.144 HD
ATOM     36  H   UNL     1       1.071   1.770  -4.670  0.00  0.00    +0.144 HD
ENDBRANCH   8  34
BRANCH   7  37
ATOM     37  C   UNL     1      -2.595   2.326  -4.911  0.00  0.00    +0.099 C 
ATOM     38  N   UNL     1      -3.091   2.438  -5.926  0.00  0.00    -0.191 NA
ENDBRANCH   7  37
TORSDOF 6
