REMARK  Name = ZINC02381727
REMARK  8 active torsions:
REMARK  status: ('A' for Active; 'I' for Inactive)
REMARK    1  A    between atoms: C_1  and  C_2
REMARK    2  A    between atoms: C_2  and  C_33
REMARK    3  A    between atoms: C_6  and  C_21
REMARK    4  A    between atoms: C_8  and  C_19
REMARK    5  A    between atoms: C_9  and  N_18
REMARK    6  A    between atoms: N_10  and  C_11
REMARK    7  A    between atoms: C_11  and  C_12
REMARK    8  A    between atoms: C_25  and  N_27
REMARK                            x       y       z     vdW  Elec       q    Type
REMARK                         _______ _______ _______ _____ _____    ______ ____
ROOT
ATOM      1  C   UNL     1      -3.399   3.938  -2.296  0.00  0.00    +0.011 C 
ATOM      2  C   UNL     1      -3.704   5.407  -1.996  0.00  0.00    -0.023 C 
ATOM      3  C   UNL     1      -2.552   6.019  -1.196  0.00  0.00    +0.058 C 
ATOM      4  C   UNL     1      -1.282   5.959  -2.010  0.00  0.00    +0.020 C 
ATOM      5  C   UNL     1      -1.317   6.022  -3.358  0.00  0.00    +0.025 C 
ATOM      6  C   UNL     1      -0.048   5.961  -4.169  0.00  0.00    +0.097 C 
ATOM      7  C   UNL     1       1.152   6.260  -3.320  0.00  0.00    +0.077 C 
ATOM      8  C   UNL     1       1.088   6.193  -1.963  0.00  0.00    +0.103 C 
ATOM      9  N   UNL     1      -0.090   5.843  -1.347  0.00  0.00    -0.287 N 
ATOM     10  C   UNL     1      -2.537   6.142  -4.046  0.00  0.00    +0.162 C 
ATOM     11  O   UNL     1      -2.532   6.215  -5.259  0.00  0.00    -0.292 OA
ATOM     12  C   UNL     1      -3.848   6.182  -3.310  0.00  0.00    +0.086 C 
ATOM     13  C   UNL     1      -5.000   5.509  -1.189  0.00  0.00    +0.011 C 
ENDROOT
BRANCH   6  14
ATOM     14  C   UNL     1       0.097   4.582  -4.758  0.00  0.00    -0.033 A 
ATOM     15  C   UNL     1       0.173   3.479  -3.927  0.00  0.00    +0.005 A 
ATOM     16  C   UNL     1       0.305   2.214  -4.467  0.00  0.00    +0.003 A 
ATOM     17  C   UNL     1       0.361   2.050  -5.838  0.00  0.00    +0.033 A 
ATOM     18  C   UNL     1       0.285   3.152  -6.670  0.00  0.00    +0.126 A 
ATOM     19  C   UNL     1       0.147   4.417  -6.129  0.00  0.00    +0.037 A 
BRANCH  18  20
ATOM     20  N   UNL     1       0.346   2.977  -8.138  0.00  0.00    +0.056 N 
ATOM     21  O   UNL     1       0.462   1.862  -8.614  0.00  0.00    -0.126 OA
ATOM     22  O   UNL     1       0.279   3.948  -8.870  0.00  0.00    -0.126 OA
ENDBRANCH  18  20
ENDBRANCH   6  14
BRANCH   8  23
ATOM     23  N   UNL     1       2.201   6.469  -1.206  0.00  0.00    -0.345 N 
ATOM     24  H   UNL     1       2.148   6.414  -0.109  0.00  0.00    +0.144 HD
ATOM     25  H   UNL     1       3.146   6.745  -1.698  0.00  0.00    +0.144 HD
ENDBRANCH   8  23
BRANCH   7  26
ATOM     26  C   UNL     1       2.385   6.630  -3.948  0.00  0.00    +0.099 C 
ATOM     27  N   UNL     1       3.363   6.923  -4.446  0.00  0.00    -0.191 NA
ENDBRANCH   7  26
BRANCH   9  28
ATOM     28  C   UNL     1      -0.070   5.347   0.031  0.00  0.00    +0.147 C 
BRANCH  28  29
ATOM     29  C   UNL     1       0.108   3.851   0.024  0.00  0.00    -0.030 A 
ATOM     30  C   UNL     1       1.378   3.306   0.055  0.00  0.00    +0.005 A 
ATOM     31  C   UNL     1       1.542   1.933   0.049  0.00  0.00    +0.000 A 
ATOM     32  C   UNL     1       0.435   1.105   0.012  0.00  0.00    +0.000 A 
ATOM     33  C   UNL     1      -0.835   1.650  -0.024  0.00  0.00    +0.000 A 
ATOM     34  C   UNL     1      -0.999   3.023  -0.013  0.00  0.00    +0.005 A 
ENDBRANCH  28  29
ENDBRANCH   9  28
TORSDOF 6
