REMARK  Name = ZINC04256032
REMARK  7 active torsions:
REMARK  status: ('A' for Active; 'I' for Inactive)
REMARK    1  A    between atoms: C_1  and  C_2
REMARK    2  A    between atoms: C_7  and  O_9
REMARK    3  A    between atoms: O_9  and  C_10
REMARK    4  A    between atoms: C_10  and  C_12
REMARK    5  A    between atoms: C_13  and  C_29
REMARK    6  A    between atoms: C_18  and  C_20
REMARK    7  A    between atoms: C_23  and  N_26
REMARK                            x       y       z     vdW  Elec       q    Type
REMARK                         _______ _______ _______ _____ _____    ______ ____
ROOT
ATOM      1  C   UNL     1       1.403  -2.842   1.359  0.00  0.00    +0.078 C 
ATOM      2  C   UNL     1       2.606  -3.405   1.606  0.00  0.00    +0.021 C 
ATOM      3  N   UNL     1       3.525  -3.570   0.610  0.00  0.00    -0.273 N 
ATOM      4  C   UNL     1       3.319  -3.198  -0.660  0.00  0.00    +0.304 C 
ATOM      5  O   UNL     1       4.198  -3.386  -1.478  0.00  0.00    -0.252 OA
ATOM      6  N   UNL     1       2.168  -2.623  -1.061  0.00  0.00    -0.288 N 
ATOM      7  C   UNL     1       1.110  -2.401  -0.061  0.00  0.00    +0.143 C 
ATOM      8  C   UNL     1       2.938  -3.859   3.004  0.00  0.00    +0.061 C 
ATOM      9  H   UNL     1       4.375  -3.978   0.835  0.00  0.00    +0.156 HD
ATOM     10  H   UNL     1       2.039  -2.361  -1.986  0.00  0.00    +0.151 HD
ENDROOT
BRANCH   7  11
ATOM     11  C   UNL     1       0.798  -0.926  -0.034  0.00  0.00    -0.022 A 
ATOM     12  C   UNL     1      -0.515  -0.496  -0.067  0.00  0.00    +0.008 A 
ATOM     13  C   UNL     1      -0.800   0.856  -0.041  0.00  0.00    +0.033 A 
ATOM     14  C   UNL     1       0.227   1.778   0.018  0.00  0.00    +0.126 A 
ATOM     15  C   UNL     1       1.541   1.349   0.050  0.00  0.00    +0.033 A 
ATOM     16  C   UNL     1       1.826  -0.004   0.025  0.00  0.00    +0.008 A 
BRANCH  14  17
ATOM     17  N   UNL     1      -0.079   3.226   0.046  0.00  0.00    +0.056 N 
ATOM     18  O   UNL     1      -1.236   3.605   0.016  0.00  0.00    -0.126 OA
ATOM     19  O   UNL     1       0.827   4.039   0.098  0.00  0.00    -0.126 OA
ENDBRANCH  14  17
ENDBRANCH   7  11
BRANCH   1  20
ATOM     20  C   UNL     1       0.450  -2.672   2.390  0.00  0.00    +0.339 C 
ATOM     21  O   UNL     1       0.659  -3.135   3.495  0.00  0.00    -0.245 OA
BRANCH  20  22
ATOM     22  O   UNL     1      -0.693  -1.995   2.147  0.00  0.00    -0.458 OA
BRANCH  22  28
ATOM     23  C   UNL     1      -2.210   0.330   4.312  0.00  0.00    +0.011 C 
ATOM     24  C   UNL     1      -2.418  -0.559   3.085  0.00  0.00    +0.027 C 
ATOM     25  C   UNL     1      -3.900  -0.970   2.975  0.00  0.00    +0.007 C 
ATOM     26  C   UNL     1      -3.961  -2.360   3.656  0.00  0.00    +0.004 C 
ATOM     27  C   UNL     1      -2.630  -3.018   3.210  0.00  0.00    +0.045 C 
ATOM     28  C   UNL     1      -1.611  -1.861   3.234  0.00  0.00    +0.180 C 
ENDBRANCH  22  28
ENDBRANCH  20  22
ENDBRANCH   1  20
TORSDOF 5
