REMARK  Name = ZINC12816814
REMARK  9 active torsions:
REMARK  status: ('A' for Active; 'I' for Inactive)
REMARK    1  A    between atoms: C_1  and  C_2
REMARK    2  A    between atoms: C_7  and  C_9
REMARK    3  A    between atoms: C_7  and  C_28
REMARK    4  A    between atoms: C_7  and  N_63
REMARK    5  A    between atoms: C_9  and  N_10
REMARK    6  A    between atoms: C_11  and  C_13
REMARK    7  A    between atoms: C_13  and  N_14
REMARK    8  A    between atoms: C_15  and  C_17
REMARK    9  A    between atoms: C_17  and  C_18
REMARK                            x       y       z     vdW  Elec       q    Type
REMARK                         _______ _______ _______ _____ _____    ______ ____
ROOT
ATOM      1  N   UNL     1       4.867   1.623  -0.275  0.00  0.00    -0.315 N 
ATOM      2  C   UNL     1       3.570   1.981  -0.341  0.00  0.00    +0.230 C 
ATOM      3  O   UNL     1       3.258   3.150  -0.255  0.00  0.00    -0.274 OA
ATOM      4  H   UNL     1       5.117   0.688  -0.343  0.00  0.00    +0.149 HD
ENDROOT
BRANCH   1   5
ATOM      5  C   UNL     1       5.902   2.646  -0.099  0.00  0.00    +0.094 C 
BRANCH   5   6
ATOM      6  C   UNL     1       7.264   1.970   0.069  0.00  0.00    -0.013 C 
BRANCH   6  13
ATOM      7  C   UNL     1       7.610  -1.115   4.869  0.00  0.00    +0.007 C 
ATOM      8  C   UNL     1       7.791  -0.017   3.818  0.00  0.00    -0.018 C 
ATOM      9  C   UNL     1       6.427   0.587   3.470  0.00  0.00    -0.015 C 
ATOM     10  C   UNL     1       6.606   1.642   2.376  0.00  0.00    -0.078 C 
ATOM     11  C   UNL     1       8.535   0.474   1.486  0.00  0.00    -0.078 C 
ATOM     12  C   UNL     1       8.413  -0.615   2.554  0.00  0.00    -0.015 C 
ATOM     13  N   UNL     1       7.186   0.997   1.179  0.00  0.00    +0.386 N 
ATOM     14  H   UNL     1       6.583   0.216   0.895  0.00  0.00    -0.081 HD
ENDBRANCH   6  13
BRANCH   6  15
ATOM     15  C   UNL     1       8.312   3.015   0.353  0.00  0.00    -0.022 A 
ATOM     16  C   UNL     1       9.212   3.573  -0.493  0.00  0.00    +0.009 A 
ATOM     17  C   UNL     1      10.085   4.528  -0.007  0.00  0.00    +0.008 A 
ATOM     18  C   UNL     1      10.023   4.870   1.303  0.00  0.00    +0.045 A 
ATOM     19  S   UNL     1       8.694   3.834   1.893  0.00  0.00    -0.103 S 
ENDBRANCH   6  15
ENDBRANCH   5   6
ENDBRANCH   1   5
BRANCH   2  20
ATOM     20  C   UNL     1       2.506   0.929  -0.521  0.00  0.00    +0.200 C 
BRANCH  20  21
ATOM     21  N   UNL     1       1.189   1.569  -0.562  0.00  0.00    -0.306 N 
ATOM     22  C   UNL     1       0.080   0.818  -0.718  0.00  0.00    +0.218 C 
ATOM     23  O   UNL     1       0.173  -0.386  -0.824  0.00  0.00    -0.275 OA
ATOM     24  H   UNL     1       1.114   2.532  -0.477  0.00  0.00    +0.149 HD
BRANCH  22  25
ATOM     25  C   UNL     1      -1.275   1.477  -0.766  0.00  0.00    +0.131 C 
BRANCH  25  26
ATOM     26  C   UNL     1      -2.338   0.425  -0.953  0.00  0.00    -0.031 A 
ATOM     27  C   UNL     1      -2.798   0.131  -2.199  0.00  0.00    +0.005 A 
ATOM     28  C   UNL     1      -3.781  -0.838  -2.391  0.00  0.00    +0.001 A 
ATOM     29  C   UNL     1      -4.309  -1.519  -1.337  0.00  0.00    +0.008 A 
ATOM     30  C   UNL     1      -3.859  -1.242  -0.035  0.00  0.00    -0.018 A 
ATOM     31  C   UNL     1      -2.856  -0.260   0.160  0.00  0.00    -0.014 A 
ATOM     32  C   UNL     1      -2.409   0.020   1.462  0.00  0.00    +0.009 A 
ATOM     33  C   UNL     1      -2.938  -0.660   2.516  0.00  0.00    +0.001 A 
ATOM     34  C   UNL     1      -3.921  -1.629   2.324  0.00  0.00    +0.001 A 
ATOM     35  C   UNL     1      -4.381  -1.923   1.078  0.00  0.00    +0.008 A 
ENDBRANCH  25  26
ENDBRANCH  22  25
ENDBRANCH  20  21
ENDBRANCH   2  20
TORSDOF 8
