REMARK  Name = ZINC12494291
REMARK  7 active torsions:
REMARK  status: ('A' for Active; 'I' for Inactive)
REMARK    1  A    between atoms: C_3  and  C_6
REMARK    2  A    between atoms: C_7  and  C_27
REMARK    3  A    between atoms: C_10  and  S_12
REMARK    4  A    between atoms: S_12  and  C_13
REMARK    5  A    between atoms: C_13  and  C_14
REMARK    6  A    between atoms: N_16  and  N_17
REMARK    7  A    between atoms: C_18  and  C_20
REMARK                            x       y       z     vdW  Elec       q    Type
REMARK                         _______ _______ _______ _____ _____    ______ ____
ROOT
ATOM      1  S   UNL     1      -4.798   4.791   0.099  0.00  0.00    -0.075 S 
ENDROOT
BRANCH   1   6
ATOM      2  C   UNL     1      -2.388   1.795  -0.675  0.00  0.00    +0.139 A 
ATOM      3  C   UNL     1      -1.221   2.192   0.020  0.00  0.00    +0.157 A 
ATOM      4  N   UNL     1      -1.232   3.343   0.687  0.00  0.00    -0.141 NA
ATOM      5  N   UNL     1      -2.284   4.085   0.691  0.00  0.00    -0.122 NA
ATOM      6  C   UNL     1      -3.390   3.732   0.047  0.00  0.00    +0.210 A 
ATOM      7  N   UNL     1      -3.454   2.596  -0.636  0.00  0.00    -0.215 NA
BRANCH   2  10
ATOM      8  C   UNL     1      -3.093  -1.383  -2.343  0.00  0.00    +0.042 A 
ATOM      9  C   UNL     1      -3.504  -0.296  -1.550  0.00  0.00    +0.051 A 
ATOM     10  C   UNL     1      -2.425   0.526  -1.423  0.00  0.00    +0.155 A 
ATOM     11  O   UNL     1      -1.397  -0.026  -2.096  0.00  0.00    -0.461 OA
ATOM     12  C   UNL     1      -1.796  -1.179  -2.653  0.00  0.00    +0.196 A 
ENDBRANCH   2  10
BRANCH   3  13
ATOM     13  C   UNL     1      -0.016   1.343   0.009  0.00  0.00    +0.157 A 
ATOM     14  C   UNL     1       1.272   1.784  -0.001  0.00  0.00    +0.051 A 
ATOM     15  C   UNL     1       2.092   0.639  -0.015  0.00  0.00    +0.042 A 
ATOM     16  C   UNL     1       1.275  -0.433  -0.012  0.00  0.00    +0.196 A 
ATOM     17  O   UNL     1       0.002  -0.004   0.002  0.00  0.00    -0.461 OA
ENDBRANCH   3  13
ENDBRANCH   1   6
BRANCH   1  18
ATOM     18  C   UNL     1      -4.147   6.128   1.131  0.00  0.00    +0.174 C 
BRANCH  18  19
ATOM     19  C   UNL     1      -5.209   7.181   1.317  0.00  0.00    +0.239 C 
ATOM     20  O   UNL     1      -6.298   7.041   0.802  0.00  0.00    -0.273 OA
ATOM     21  N   UNL     1      -4.948   8.277   2.055  0.00  0.00    -0.233 N 
ATOM     22  H   UNL     1      -4.077   8.389   2.467  0.00  0.00    +0.173 HD
BRANCH  21  23
ATOM     23  N   UNL     1      -5.935   9.256   2.228  0.00  0.00    -0.230 N 
ATOM     24  C   UNL     1      -5.675  10.353   2.967  0.00  0.00    +0.260 C 
ATOM     25  O   UNL     1      -4.583  10.493   3.483  0.00  0.00    -0.269 OA
ATOM     26  H   UNL     1      -6.806   9.145   1.817  0.00  0.00    +0.173 HD
BRANCH  24  27
ATOM     27  C   UNL     1      -6.716  11.386   3.149  0.00  0.00    +0.038 A 
ATOM     28  C   UNL     1      -7.969  11.231   2.553  0.00  0.00    +0.014 A 
ATOM     29  C   UNL     1      -8.938  12.195   2.732  0.00  0.00    +0.021 A 
ATOM     30  C   UNL     1      -8.667  13.321   3.491  0.00  0.00    +0.041 A 
ATOM     31  C   UNL     1      -7.424  13.483   4.080  0.00  0.00    +0.021 A 
ATOM     32  C   UNL     1      -6.449  12.523   3.914  0.00  0.00    +0.014 A 
ATOM     33 CL   UNL     1      -9.891  14.534   3.706  0.00  0.00    -0.084 Cl
ENDBRANCH  24  27
ENDBRANCH  21  23
ENDBRANCH  18  19
ENDBRANCH   1  18
TORSDOF 7
