REMARK  Name = ZINC09055539
REMARK  11 active torsions:
REMARK  status: ('A' for Active; 'I' for Inactive)
REMARK    1  A    between atoms: C_1  and  C_2
REMARK    2  A    between atoms: C_2  and  O_3
REMARK    3  A    between atoms: O_3  and  C_4
REMARK    4  A    between atoms: C_4  and  C_6
REMARK    5  A    between atoms: C_7  and  C_14
REMARK    6  A    between atoms: C_8  and  C_12
REMARK    7  A    between atoms: C_9  and  N_11
REMARK    8  A    between atoms: C_14  and  O_15
REMARK    9  A    between atoms: O_15  and  C_16
REMARK   10  A    between atoms: C_16  and  C_18
REMARK   11  A    between atoms: C_22  and  N_24
REMARK                            x       y       z     vdW  Elec       q    Type
REMARK                         _______ _______ _______ _____ _____    ______ ____
ROOT
ATOM      1  C   UNL     1      -5.952   2.801   0.043  0.00  0.00    +0.340 C 
ATOM      2  O   UNL     1      -5.760   4.001   0.049  0.00  0.00    -0.245 OA
ENDROOT
BRANCH   1   3
ATOM      3  C   UNL     1      -4.804   1.871   0.033  0.00  0.00    +0.061 A 
ATOM      4  C   UNL     1      -5.021   0.491   0.025  0.00  0.00    +0.015 A 
ATOM      5  C   UNL     1      -3.948  -0.376   0.016  0.00  0.00    +0.003 A 
ATOM      6  C   UNL     1      -2.656   0.116   0.013  0.00  0.00    +0.024 A 
ATOM      7  C   UNL     1      -2.429   1.487   0.020  0.00  0.00    +0.045 A 
ATOM      8  C   UNL     1      -3.500   2.366   0.035  0.00  0.00    +0.039 A 
BRANCH   7   9
ATOM      9  N   UNL     1      -1.117   1.980   0.018  0.00  0.00    -0.202 N 
ATOM     10  C   UNL     1      -0.014   1.210   0.009  0.00  0.00    +0.258 C 
ATOM     11  O   UNL     1       0.002  -0.004   0.002  0.00  0.00    -0.269 OA
ATOM     12  C   UNL     1       1.174   2.089   0.002  0.00  0.00    +0.050 A 
ATOM     13  C   UNL     1       2.542   1.867  -0.013  0.00  0.00    +0.014 A 
ATOM     14  C   UNL     1       3.413   2.946  -0.015  0.00  0.00    +0.001 A 
ATOM     15  C   UNL     1       2.926   4.240  -0.004  0.00  0.00    +0.001 A 
ATOM     16  C   UNL     1       1.560   4.477   0.011  0.00  0.00    +0.014 A 
ATOM     17  C   UNL     1       0.678   3.409   0.014  0.00  0.00    +0.050 A 
ATOM     18  C   UNL     1      -0.795   3.287   0.027  0.00  0.00    +0.258 C 
ATOM     19  O   UNL     1      -1.583   4.211   0.040  0.00  0.00    -0.269 OA
ENDBRANCH   7   9
ENDBRANCH   1   3
BRANCH   1  20
ATOM     20  O   UNL     1      -7.210   2.320   0.045  0.00  0.00    -0.456 OA
BRANCH  20  21
ATOM     21  C   UNL     1      -8.288   3.292   0.056  0.00  0.00    +0.270 C 
BRANCH  21  23
ATOM     22  C   UNL     1     -10.238   2.225   1.238  0.00  0.00    +0.106 A 
ATOM     23  C   UNL     1      -9.612   2.574   0.057  0.00  0.00    +0.030 A 
ATOM     24  C   UNL     1     -10.253   2.243  -1.125  0.00  0.00    +0.087 A 
ATOM     25  C   UNL     1     -11.478   1.572  -1.040  0.00  0.00    +0.082 A 
ATOM     26  S   UNL     1     -11.725   1.424   0.669  0.00  0.00    -0.066 S 
BRANCH  25  27
ATOM     27  N   UNL     1     -12.291   1.140  -2.063  0.00  0.00    -0.352 N 
ATOM     28  H   UNL     1     -13.125   0.687  -1.862  0.00  0.00    +0.143 HD
ATOM     29  H   UNL     1     -12.030   1.289  -2.985  0.00  0.00    +0.143 HD
ENDBRANCH  25  27
BRANCH  22  30
ATOM     30  C   UNL     1      -9.805   2.449   2.569  0.00  0.00    +0.346 C 
ATOM     31  O   UNL     1      -8.751   3.020   2.779  0.00  0.00    -0.244 OA
BRANCH  30  32
ATOM     32  O   UNL     1     -10.563   2.030   3.604  0.00  0.00    -0.461 OA
BRANCH  32  34
ATOM     33  C   UNL     1     -11.053   1.745   5.954  0.00  0.00    +0.048 C 
ATOM     34  C   UNL     1     -10.066   2.289   4.919  0.00  0.00    +0.229 C 
ENDBRANCH  32  34
ENDBRANCH  30  32
ENDBRANCH  22  30
BRANCH  24  35
ATOM     35  C   UNL     1      -9.678   2.572  -2.394  0.00  0.00    +0.102 C 
ATOM     36  N   UNL     1      -9.221   2.834  -3.401  0.00  0.00    -0.191 NA
ENDBRANCH  24  35
ENDBRANCH  21  23
ENDBRANCH  20  21
ENDBRANCH   1  20
TORSDOF 10
