REMARK  Name = ZINC04130519
REMARK  6 active torsions:
REMARK  status: ('A' for Active; 'I' for Inactive)
REMARK    1  A    between atoms: C_1  and  C_2
REMARK    2  A    between atoms: C_6  and  C_15
REMARK    3  A    between atoms: C_13  and  C_14
REMARK    4  A    between atoms: C_15  and  N_47
REMARK    5  A    between atoms: C_16  and  N_47
REMARK    6  A    between atoms: C_22  and  C_24
REMARK                            x       y       z     vdW  Elec       q    Type
REMARK                         _______ _______ _______ _____ _____    ______ ____
ROOT
ATOM      1  C   UNL     1      -4.869   0.167   5.593  0.00  0.00    +0.044 C 
ATOM      2  C   UNL     1      -3.848   1.001   4.863  0.00  0.00    -0.047 A 
ATOM      3  C   UNL     1      -3.243   0.504   3.743  0.00  0.00    +0.013 A 
ATOM      4  C   UNL     1      -2.296   1.278   3.066  0.00  0.00    -0.001 A 
ATOM      5  C   UNL     1      -1.628   0.776   1.863  0.00  0.00    +0.017 A 
ATOM      6  C   UNL     1      -0.718   1.572   1.248  0.00  0.00    +0.001 A 
ATOM      7  C   UNL     1      -0.425   2.851   1.768  0.00  0.00    +0.251 A 
ATOM      8  O   UNL     1       0.400   3.547   1.202  0.00  0.00    -0.268 OA
ATOM      9  N   UNL     1      -1.038   3.323   2.868  0.00  0.00    -0.322 N 
ATOM     10  H   UNL     1      -0.812   4.237   3.203  0.00  0.00    +0.169 HD
ATOM     11  C   UNL     1      -1.972   2.563   3.540  0.00  0.00    +0.049 A 
ATOM     12  C   UNL     1      -2.601   3.049   4.681  0.00  0.00    +0.030 A 
ATOM     13  C   UNL     1      -3.531   2.268   5.333  0.00  0.00    -0.046 A 
ATOM     14  C   UNL     1      -4.212   2.796   6.570  0.00  0.00    +0.044 C 
ENDROOT
BRANCH   6  15
ATOM     15  C   UNL     1      -0.013   1.086   0.008  0.00  0.00    -0.041 C 
BRANCH  15  16
ATOM     16  N   UNL     1      -0.732   1.579  -1.182  0.00  0.00    +0.384 N 
ATOM     17  H   UNL     1      -0.746   2.605  -1.168  0.00  0.00    -0.085 HD
ATOM     18  H   UNL     1      -1.695   1.223  -1.167  0.00  0.00    -0.085 HD
BRANCH  16  19
ATOM     19  C   UNL     1      -0.062   1.117  -2.413  0.00  0.00    -0.069 C 
ATOM     20  C   UNL     1      -0.560  -0.285  -2.770  0.00  0.00    -0.015 C 
ATOM     21  C   UNL     1       0.128  -0.759  -4.051  0.00  0.00    -0.002 C 
ATOM     22  C   UNL     1      -0.200   0.205  -5.193  0.00  0.00    +0.000 C 
ATOM     23  C   UNL     1       0.297   1.607  -4.836  0.00  0.00    +0.002 C 
ATOM     24  C   UNL     1      -0.391   2.081  -3.554  0.00  0.00    -0.028 C 
ATOM     25  C   UNL     1      -1.905   2.117  -3.772  0.00  0.00    +0.006 C 
ENDBRANCH  16  19
ENDBRANCH  15  16
ENDBRANCH   6  15
TORSDOF 3
