REMARK  Name = ZINC39678351
REMARK  10 active torsions:
REMARK  status: ('A' for Active; 'I' for Inactive)
REMARK    1  A    between atoms: C_1  and  C_2
REMARK    2  A    between atoms: C_2  and  C_3
REMARK    3  A    between atoms: C_3  and  C_4
REMARK    4  A    between atoms: C_4  and  C_5
REMARK    5  A    between atoms: C_5  and  C_7
REMARK    6  A    between atoms: C_5  and  C_8
REMARK    7  A    between atoms: C_12  and  C_21
REMARK    8  A    between atoms: N_23  and  C_24
REMARK    9  A    between atoms: C_24  and  C_25
REMARK   10  A    between atoms: C_30  and  N_31
REMARK                            x       y       z     vdW  Elec       q    Type
REMARK                         _______ _______ _______ _____ _____    ______ ____
ROOT
ATOM      1  C   UNL     1       1.784  -3.853  -1.790  0.00  0.00    +0.218 C 
ATOM      2  O   UNL     1       1.379  -4.575  -0.903  0.00  0.00    -0.275 OA
ATOM      3  N   UNL     1       2.205  -4.386  -2.954  0.00  0.00    -0.300 N 
ATOM      4  C   UNL     1       2.652  -3.670  -4.172  0.00  0.00    +0.121 C 
ATOM      5  C   UNL     1       3.847  -4.498  -4.695  0.00  0.00    +0.100 C 
ATOM      6  C   UNL     1       3.627  -5.909  -4.124  0.00  0.00    -0.004 C 
ATOM      7  C   UNL     1       2.333  -5.821  -3.302  0.00  0.00    +0.115 C 
ATOM      8  C   UNL     1       4.792  -6.301  -3.222  0.00  0.00    -0.010 C 
ATOM      9  C   UNL     1       4.578  -7.729  -2.712  0.00  0.00    -0.082 C 
ATOM     10  N   UNL     1       4.485  -8.649  -3.852  0.00  0.00    +0.379 N 
ATOM     11  C   UNL     1       3.307  -8.321  -4.665  0.00  0.00    -0.082 C 
ATOM     12  C   UNL     1       3.467  -6.918  -5.257  0.00  0.00    -0.010 C 
ATOM     13  H   UNL     1       5.316  -8.566  -4.418  0.00  0.00    -0.086 HD
ATOM     14  H   UNL     1       4.405  -9.596  -3.513  0.00  0.00    -0.086 HD
ENDROOT
BRANCH   5  15
ATOM     15  C   UNL     1       5.145  -3.922  -4.191  0.00  0.00    +0.218 C 
ATOM     16  O   UNL     1       5.171  -3.309  -3.145  0.00  0.00    -0.275 OA
ATOM     17  N   UNL     1       6.277  -4.087  -4.903  0.00  0.00    -0.311 N 
ATOM     18  H   UNL     1       6.244  -4.513  -5.774  0.00  0.00    +0.149 HD
BRANCH  17  19
ATOM     19  C   UNL     1       7.557  -3.624  -4.362  0.00  0.00    +0.141 C 
BRANCH  19  20
ATOM     20  C   UNL     1       8.639  -3.821  -5.393  0.00  0.00    -0.009 A 
ATOM     21  C   UNL     1       9.503  -4.894  -5.293  0.00  0.00    +0.007 A 
ATOM     22  C   UNL     1      10.495  -5.074  -6.239  0.00  0.00    +0.000 A 
ATOM     23  C   UNL     1      10.627  -4.182  -7.287  0.00  0.00    +0.002 A 
ATOM     24  C   UNL     1       9.767  -3.107  -7.393  0.00  0.00    +0.023 A 
ATOM     25  C   UNL     1       8.765  -2.925  -6.447  0.00  0.00    +0.034 A 
BRANCH  25  26
ATOM     26  N   UNL     1       7.890  -1.842  -6.554  0.00  0.00    -0.330 N 
ATOM     27  C   UNL     1       8.199  -0.562  -5.902  0.00  0.00    +0.105 C 
ATOM     28  C   UNL     1       8.127   0.554  -6.948  0.00  0.00    +0.019 C 
ATOM     29  C   UNL     1       6.761   0.514  -7.638  0.00  0.00    +0.003 C 
ATOM     30  C   UNL     1       6.587  -0.828  -8.351  0.00  0.00    +0.019 C 
ATOM     31  C   UNL     1       6.645  -1.959  -7.326  0.00  0.00    +0.105 C 
ENDBRANCH  25  26
ENDBRANCH  19  20
ENDBRANCH  17  19
ENDBRANCH   5  15
BRANCH   1  32
ATOM     32  C   UNL     1       1.815  -2.359  -1.590  0.00  0.00    +0.072 C 
ATOM     33  C   UNL     1       0.455  -1.766  -1.966  0.00  0.00    +0.017 C 
BRANCH  32  34
ATOM     34  C   UNL     1       2.119  -2.047  -0.123  0.00  0.00    +0.012 C 
BRANCH  34  35
ATOM     35  C   UNL     1       2.232  -0.532   0.063  0.00  0.00    +0.000 C 
BRANCH  35  37
ATOM     36  C   UNL     1       2.647   1.294   1.716  0.00  0.00    +0.004 C 
ATOM     37  C   UNL     1       2.535  -0.220   1.530  0.00  0.00    -0.003 C 
ENDBRANCH  35  37
ENDBRANCH  34  35
ENDBRANCH  32  34
ENDBRANCH   1  32
TORSDOF 8
