REMARK  Name = ZINC28887031
REMARK  10 active torsions:
REMARK  status: ('A' for Active; 'I' for Inactive)
REMARK    1  A    between atoms: C_1  and  C_2
REMARK    2  A    between atoms: C_5  and  O_26
REMARK    3  A    between atoms: C_6  and  C_8
REMARK    4  A    between atoms: C_8  and  C_10
REMARK    5  A    between atoms: C_8  and  N_11
REMARK    6  A    between atoms: N_11  and  C_12
REMARK    7  A    between atoms: C_12  and  C_14
REMARK    8  A    between atoms: C_12  and  C_15
REMARK    9  A    between atoms: N_20  and  C_21
REMARK   10  A    between atoms: O_26  and  C_27
REMARK                            x       y       z     vdW  Elec       q    Type
REMARK                         _______ _______ _______ _____ _____    ______ ____
ROOT
ATOM      1  C   UNL     1       8.276   2.216   0.663  0.00  0.00    +0.014 C 
ATOM      2  C   UNL     1       8.547   2.984  -0.633  0.00  0.00    -0.004 C 
ENDROOT
BRANCH   1   3
ATOM      3  C   UNL     1       6.805   2.275   0.983  0.00  0.00    +0.206 C 
ATOM      4  O   UNL     1       6.431   2.773   2.023  0.00  0.00    -0.277 OA
ATOM      5  N   UNL     1       5.905   1.773   0.114  0.00  0.00    -0.242 N 
ATOM      6  C   UNL     1       4.590   1.825   0.401  0.00  0.00    +0.306 C 
ATOM      7  O   UNL     1       4.214   2.325   1.444  0.00  0.00    -0.252 OA
ATOM      8  N   UNL     1       3.690   1.324  -0.468  0.00  0.00    -0.296 N 
ATOM      9  H   UNL     1       6.245   1.321  -0.829  0.00  0.00    +0.159 HD
ATOM     10  H   UNL     1       4.030   0.872  -1.412  0.00  0.00    +0.151 HD
BRANCH   8  11
ATOM     11  C   UNL     1       2.260   1.381  -0.156  0.00  0.00    +0.074 C 
ATOM     12  C   UNL     1       1.624   2.673  -0.727  0.00  0.00    +0.022 C 
ATOM     13  C   UNL     1       0.129   2.325  -0.877  0.00  0.00    +0.002 C 
ATOM     14  C   UNL     1       0.044   0.793  -0.990  0.00  0.00    +0.002 C 
ATOM     15  C   UNL     1       1.490   0.263  -0.903  0.00  0.00    +0.022 C 
ENDBRANCH   8  11
ENDBRANCH   1   3
BRANCH   1  16
ATOM     16  N   UNL     1       9.041   2.823   1.760  0.00  0.00    +0.391 N 
ATOM     17  H   UNL     1       8.527   2.611   2.708  0.00  0.00    -0.084 HD
ATOM     18  H   UNL     1       9.083   3.911   1.601  0.00  0.00    -0.084 HD
BRANCH  16  19
ATOM     19  C   UNL     1      10.406   2.283   1.812  0.00  0.00    -0.039 C 
ATOM     20  C   UNL     1      11.343   3.322   2.432  0.00  0.00    -0.009 C 
BRANCH  19  26
ATOM     21  C   UNL     1       8.292  -0.619   5.297  0.00  0.00    +0.044 C 
ATOM     22  C   UNL     1       9.409  -0.358   4.319  0.00  0.00    -0.050 A 
ATOM     23  C   UNL     1      10.442  -1.268   4.193  0.00  0.00    +0.007 A 
ATOM     24  C   UNL     1      11.466  -1.032   3.296  0.00  0.00    +0.046 A 
ATOM     25  C   UNL     1      11.455   0.118   2.519  0.00  0.00    +0.122 A 
ATOM     26  C   UNL     1      10.419   1.031   2.651  0.00  0.00    -0.020 A 
ATOM     27  C   UNL     1       9.397   0.790   3.549  0.00  0.00    +0.009 A 
BRANCH  25  28
ATOM     28  O   UNL     1      12.459   0.350   1.633  0.00  0.00    -0.495 OA
ATOM     29  C   UNL     1      13.492  -0.633   1.550  0.00  0.00    +0.277 C 
ENDBRANCH  25  28
ENDBRANCH  19  26
ENDBRANCH  16  19
ENDBRANCH   1  16
TORSDOF 6
