REMARK  Name = ZINC09408794
REMARK  9 active torsions:
REMARK  status: ('A' for Active; 'I' for Inactive)
REMARK    1  A    between atoms: C_1  and  O_2
REMARK    2  A    between atoms: O_2  and  C_3
REMARK    3  A    between atoms: C_6  and  C_9
REMARK    4  A    between atoms: C_9  and  C_11
REMARK    5  A    between atoms: C_12  and  N_33
REMARK    6  A    between atoms: C_13  and  C_20
REMARK    7  A    between atoms: C_22  and  C_25
REMARK    8  A    between atoms: C_30  and  O_31
REMARK    9  A    between atoms: O_31  and  C_32
REMARK                            x       y       z     vdW  Elec       q    Type
REMARK                         _______ _______ _______ _____ _____    ______ ____
ROOT
ATOM      1  C   UNL     1      -3.093  -5.952   0.369  0.00  0.00    +0.116 A 
ATOM      2  C   UNL     1      -2.367  -4.765   0.262  0.00  0.00    +0.064 A 
ATOM      3  C   UNL     1      -1.010  -5.112   0.164  0.00  0.00    +0.054 A 
ATOM      4  C   UNL     1      -0.934  -6.519   0.208  0.00  0.00    +0.058 A 
ATOM      5  N   UNL     1      -2.203  -7.014   0.339  0.00  0.00    -0.311 N 
ATOM      6  C   UNL     1      -2.409  -8.361   0.410  0.00  0.00    +0.092 A 
ATOM      7  C   UNL     1      -1.369  -9.223   0.359  0.00  0.00    +0.018 A 
ATOM      8  C   UNL     1      -0.059  -8.742   0.232  0.00  0.00    +0.003 A 
ATOM      9  C   UNL     1       0.159  -7.396   0.160  0.00  0.00    +0.027 A 
ENDROOT
BRANCH   3  10
ATOM     10  C   UNL     1       0.122  -4.180   0.034  0.00  0.00    +0.113 A 
ATOM     11  N   UNL     1       0.117  -2.855  -0.013  0.00  0.00    -0.239 NA
ATOM     12  C   UNL     1       1.242  -2.171  -0.138  0.00  0.00    +0.082 A 
ATOM     13  C   UNL     1       2.433  -2.841  -0.210  0.00  0.00    +0.075 A 
ATOM     14  S   UNL     1       1.869  -4.535  -0.097  0.00  0.00    -0.075 S 
BRANCH  12  15
ATOM     15  C   UNL     1       1.214  -0.689  -0.194  0.00  0.00    +0.043 A 
ATOM     16  C   UNL     1       2.093   0.057   0.587  0.00  0.00    +0.013 A 
ATOM     17  C   UNL     1       2.063   1.436   0.531  0.00  0.00    +0.001 A 
ATOM     18  C   UNL     1       1.161   2.080  -0.297  0.00  0.00    +0.004 A 
ATOM     19  C   UNL     1       0.284   1.349  -1.076  0.00  0.00    +0.046 A 
ATOM     20  C   UNL     1       0.304  -0.035  -1.030  0.00  0.00    +0.129 A 
BRANCH  20  21
ATOM     21  O   UNL     1      -0.557  -0.755  -1.796  0.00  0.00    -0.494 OA
ATOM     22  C   UNL     1      -1.458  -0.019  -2.626  0.00  0.00    +0.277 C 
ENDBRANCH  20  21
ENDBRANCH  12  15
ENDBRANCH   3  10
BRANCH   2  23
ATOM     23  N   UNL     1      -2.890  -3.477   0.253  0.00  0.00    -0.356 N 
ATOM     24  H   UNL     1      -2.307  -2.719   0.091  0.00  0.00    +0.142 HD
ATOM     25  H   UNL     1      -3.837  -3.337   0.408  0.00  0.00    +0.142 HD
ENDBRANCH   2  23
BRANCH   1  26
ATOM     26  C   UNL     1      -4.493  -6.053   0.488  0.00  0.00    +0.212 C 
ATOM     27  O   UNL     1      -5.182  -6.181  -0.510  0.00  0.00    -0.285 OA
BRANCH  26  31
ATOM     28  C   UNL     1      -6.315  -5.910   4.324  0.00  0.00    +0.120 A 
ATOM     29  C   UNL     1      -7.106  -5.949   3.182  0.00  0.00    +0.046 A 
ATOM     30  C   UNL     1      -6.519  -5.996   1.937  0.00  0.00    +0.015 A 
ATOM     31  C   UNL     1      -5.127  -6.003   1.823  0.00  0.00    +0.024 A 
ATOM     32  C   UNL     1      -4.335  -5.969   2.973  0.00  0.00    +0.015 A 
ATOM     33  C   UNL     1      -4.929  -5.917   4.215  0.00  0.00    +0.046 A 
BRANCH  28  35
ATOM     34  C   UNL     1      -6.024  -5.826   6.681  0.00  0.00    +0.277 C 
ATOM     35  O   UNL     1      -6.897  -5.865   5.550  0.00  0.00    -0.495 OA
ENDBRANCH  28  35
ENDBRANCH  26  31
ENDBRANCH   1  26
TORSDOF 7
