REMARK  Name = ZINC19720093
REMARK  12 active torsions:
REMARK  status: ('A' for Active; 'I' for Inactive)
REMARK    1  A    between atoms: C_1  and  C_2
REMARK    2  A    between atoms: C_2  and  C_3
REMARK    3  A    between atoms: C_2  and  C_4
REMARK    4  A    between atoms: C_4  and  C_5
REMARK    5  A    between atoms: C_8  and  C_26
REMARK    6  A    between atoms: C_12  and  C_15
REMARK    7  A    between atoms: C_15  and  O_16
REMARK    8  A    between atoms: O_16  and  C_17
REMARK    9  A    between atoms: N_19  and  C_20
REMARK   10  A    between atoms: C_26  and  C_27
REMARK   11  A    between atoms: C_27  and  C_28
REMARK   12  A    between atoms: C_27  and  C_29
REMARK                            x       y       z     vdW  Elec       q    Type
REMARK                         _______ _______ _______ _____ _____    ______ ____
ROOT
ATOM      1  C   UNL     1      -0.086   1.491   1.724  0.00  0.00    +0.192 C 
ATOM      2  N   UNL     1       0.593   0.958   0.523  0.00  0.00    -0.238 NA
ATOM      3  C   UNL     1       2.058   0.982   0.728  0.00  0.00    +0.192 C 
ATOM      4  O   UNL     1       2.381  -0.266   1.378  0.00  0.00    -0.359 OA
ATOM      5  C   UNL     1       1.549  -1.237   0.704  0.00  0.00    +0.190 C 
ATOM      6  C   UNL     1       0.224  -0.485   0.462  0.00  0.00    +0.107 C 
ATOM      7  C   UNL     1      -0.703  -0.700   1.677  0.00  0.00    +0.190 C 
ATOM      8  O   UNL     1      -1.215   0.623   1.956  0.00  0.00    -0.359 OA
ENDROOT
BRANCH   1   9
ATOM      9  C   UNL     1      -0.564   2.922   1.469  0.00  0.00    +0.051 C 
BRANCH   9  11
ATOM     10  C   UNL     1      -1.514   4.971   2.536  0.00  0.00    +0.007 C 
ATOM     11  C   UNL     1      -1.151   3.502   2.757  0.00  0.00    -0.013 C 
ATOM     12  C   UNL     1      -2.407   2.718   3.143  0.00  0.00    +0.007 C 
ENDBRANCH   9  11
ENDBRANCH   1   9
BRANCH   6  13
ATOM     13  C   UNL     1      -0.433  -0.869  -0.866  0.00  0.00    +0.260 C 
BRANCH  13  14
ATOM     14  O   UNL     1      -0.764  -2.283  -0.851  0.00  0.00    -0.448 OA
BRANCH  14  15
ATOM     15  C   UNL     1      -1.353  -2.784  -1.953  0.00  0.00    +0.405 C 
ATOM     16  O   UNL     1      -1.584  -2.061  -2.901  0.00  0.00    -0.226 OA
ATOM     17  N   UNL     1      -1.685  -4.090  -2.005  0.00  0.00    -0.251 N 
ATOM     18  H   UNL     1      -1.546  -4.728  -1.120  0.00  0.00    +0.158 HD
BRANCH  17  19
ATOM     19  C   UNL     1      -2.207  -4.633  -3.185  0.00  0.00    +0.036 A 
ATOM     20  C   UNL     1      -3.047  -3.873  -3.988  0.00  0.00    +0.023 A 
ATOM     21  C   UNL     1      -3.556  -4.410  -5.154  0.00  0.00    +0.002 A 
ATOM     22  C   UNL     1      -3.239  -5.706  -5.517  0.00  0.00    +0.000 A 
ATOM     23  C   UNL     1      -2.407  -6.467  -4.716  0.00  0.00    +0.002 A 
ATOM     24  C   UNL     1      -1.890  -5.934  -3.551  0.00  0.00    +0.023 A 
ENDBRANCH  17  19
ENDBRANCH  14  15
ENDBRANCH  13  14
ENDBRANCH   6  13
BRANCH   3  25
ATOM     25  C   UNL     1       2.448   2.161   1.622  0.00  0.00    +0.051 C 
BRANCH  25  26
ATOM     26  C   UNL     1       3.972   2.259   1.702  0.00  0.00    -0.013 C 
ATOM     27  C   UNL     1       4.535   2.596   0.320  0.00  0.00    +0.007 C 
ATOM     28  C   UNL     1       4.362   3.357   2.694  0.00  0.00    +0.007 C 
ENDBRANCH  25  26
ENDBRANCH   3  25
TORSDOF 8
