REMARK  Name = ZINC50362023
REMARK  8 active torsions:
REMARK  status: ('A' for Active; 'I' for Inactive)
REMARK    1  A    between atoms: C_1  and  C_2
REMARK    2  A    between atoms: C_7  and  C_8
REMARK    3  A    between atoms: C_8  and  N_9
REMARK    4  A    between atoms: N_9  and  C_10
REMARK    5  A    between atoms: N_9  and  C_11
REMARK    6  A    between atoms: C_11  and  C_13
REMARK    7  A    between atoms: C_11  and  C_15
REMARK    8  A    between atoms: C_13  and  N_14
REMARK                            x       y       z     vdW  Elec       q    Type
REMARK                         _______ _______ _______ _____ _____    ______ ____
ROOT
ATOM      1  C   UNL     1      -1.135   0.988   4.094  0.00  0.00    -0.019 C 
ENDROOT
BRANCH   1   2
ATOM      2  C   UNL     1      -0.477   2.315   3.817  0.00  0.00    +0.092 A 
ATOM      3  C   UNL     1       0.443   2.913   4.595  0.00  0.00    +0.059 A 
ATOM      4  C   UNL     1       0.785   4.131   3.962  0.00  0.00    +0.070 A 
ATOM      5  C   UNL     1       0.053   4.203   2.834  0.00  0.00    +0.184 A 
ATOM      6  O   UNL     1      -0.706   3.098   2.750  0.00  0.00    -0.454 OA
ATOM      7 BR   UNL     1       0.090   5.617   1.579  0.00  0.00    -0.007 Br
ATOM      8 BR   UNL     1       2.032   5.412   4.580  0.00  0.00    -0.046 Br
ENDBRANCH   1   2
BRANCH   1   9
ATOM      9  N   UNL     1      -1.256   0.230   2.841  0.00  0.00    +0.386 N 
ATOM     10  C   UNL     1      -1.855  -1.082   3.118  0.00  0.00    -0.095 C 
ATOM     11  H   UNL     1      -1.842   0.739   2.196  0.00  0.00    -0.081 HD
BRANCH   9  12
ATOM     12  C   UNL     1       0.077   0.046   2.250  0.00  0.00    -0.042 C 
BRANCH  12  19
ATOM     13  C   UNL     1      -0.657   1.603  -0.070  0.00  0.00    +0.044 C 
ATOM     14  C   UNL     1      -0.409   0.123  -0.204  0.00  0.00    -0.049 A 
ATOM     15  C   UNL     1      -0.526  -0.489  -1.438  0.00  0.00    +0.003 A 
ATOM     16  C   UNL     1      -0.299  -1.847  -1.561  0.00  0.00    +0.000 A 
ATOM     17  C   UNL     1       0.047  -2.593  -0.449  0.00  0.00    +0.000 A 
ATOM     18  C   UNL     1       0.166  -1.981   0.784  0.00  0.00    +0.002 A 
ATOM     19  C   UNL     1      -0.058  -0.622   0.906  0.00  0.00    -0.061 A 
ENDBRANCH  12  19
ENDBRANCH   9  12
ENDBRANCH   1   9
BRANCH   1  20
ATOM     20  C   UNL     1      -2.527   1.222   4.684  0.00  0.00    -0.094 C 
BRANCH  20  21
ATOM     21  N   UNL     1      -2.399   1.863   6.000  0.00  0.00    +0.377 N 
ATOM     22  H   UNL     1      -1.890   1.255   6.623  0.00  0.00    -0.090 HD
ATOM     23  H   UNL     1      -1.903   2.736   5.901  0.00  0.00    -0.090 HD
ATOM     24  H   UNL     1      -3.318   2.040   6.378  0.00  0.00    -0.090 HD
ENDBRANCH  20  21
ENDBRANCH   1  20
TORSDOF 6
