REMARK  Name = ZINC04044444
REMARK  9 active torsions:
REMARK  status: ('A' for Active; 'I' for Inactive)
REMARK    1  A    between atoms: C_1  and  C_2
REMARK    2  A    between atoms: C_17  and  C_36
REMARK    3  A    between atoms: C_22  and  C_23
REMARK    4  A    between atoms: C_22  and  O_35
REMARK    5  A    between atoms: C_23  and  N_24
REMARK    6  A    between atoms: C_25  and  C_26
REMARK    7  A    between atoms: C_30  and  O_33
REMARK    8  A    between atoms: C_31  and  O_32
REMARK    9  A    between atoms: O_33  and  C_34
REMARK                            x       y       z     vdW  Elec       q    Type
REMARK                         _______ _______ _______ _____ _____    ______ ____
ROOT
ATOM      1  C   UNL     1       0.009   1.537   0.024  0.00  0.00    +0.012 C 
ATOM      2  C   UNL     1       0.039   0.007   0.022  0.00  0.00    -0.026 C 
ATOM      3  C   UNL     1      -1.393  -0.531   0.043  0.00  0.00    +0.007 C 
ATOM      4  C   UNL     1      -1.363  -2.061   0.044  0.00  0.00    +0.001 C 
ATOM      5  C   UNL     1      -0.614  -2.556   1.283  0.00  0.00    +0.000 C 
ATOM      6  C   UNL     1       0.819  -2.018   1.261  0.00  0.00    +0.004 C 
ATOM      7  C   UNL     1       0.789  -0.489   1.261  0.00  0.00    -0.005 C 
ATOM      8  C   UNL     1       2.221   0.050   1.239  0.00  0.00    +0.004 C 
ATOM      9  C   UNL     1       2.933  -0.447  -0.021  0.00  0.00    +0.004 C 
ATOM     10  C   UNL     1       2.183   0.048  -1.260  0.00  0.00    -0.004 C 
ATOM     11  C   UNL     1       0.752  -0.488  -1.238  0.00  0.00    -0.001 C 
ATOM     12  C   UNL     1       0.017   0.040  -2.474  0.00  0.00    +0.005 C 
ATOM     13  C   UNL     1       0.700  -0.517  -3.721  0.00  0.00    +0.010 C 
ATOM     14  C   UNL     1       2.148  -0.031  -3.810  0.00  0.00    +0.001 C 
ATOM     15  C   UNL     1       2.900  -0.381  -2.517  0.00  0.00    +0.001 C 
ATOM     16  C   UNL     1       3.100  -1.906  -2.595  0.00  0.00    +0.007 C 
ATOM     17  C   UNL     1       3.411  -2.153  -4.089  0.00  0.00    +0.037 C 
ATOM     18  C   UNL     1       2.853  -0.920  -4.869  0.00  0.00    +0.089 C 
ATOM     19  C   UNL     1       2.223   1.453  -4.174  0.00  0.00    +0.014 C 
ENDROOT
BRANCH  18  20
ATOM     20  O   UNL     1       1.903  -1.388  -5.828  0.00  0.00    -0.386 OA
ATOM     21  H   UNL     1       2.284  -1.950  -6.517  0.00  0.00    +0.210 HD
ENDBRANCH  18  20
BRANCH  18  22
ATOM     22  C   UNL     1       3.960  -0.129  -5.567  0.00  0.00    +0.147 C 
BRANCH  22  23
ATOM     23  N   UNL     1       4.616  -0.980  -6.562  0.00  0.00    -0.387 N 
ATOM     24  C   UNL     1       4.530  -0.689  -7.820  0.00  0.00    +0.090 C 
ATOM     25  H   UNL     1       5.115  -1.762  -6.278  0.00  0.00    +0.159 HD
BRANCH  24  26
ATOM     26  C   UNL     1       5.280  -1.480  -8.813  0.00  0.00    +0.036 A 
ATOM     27  C   UNL     1       5.282  -1.099 -10.158  0.00  0.00    +0.013 A 
ATOM     28  C   UNL     1       5.985  -1.840 -11.083  0.00  0.00    +0.004 A 
ATOM     29  C   UNL     1       6.691  -2.964 -10.687  0.00  0.00    +0.049 A 
ATOM     30  C   UNL     1       6.698  -3.354  -9.359  0.00  0.00    +0.162 A 
ATOM     31  C   UNL     1       5.998  -2.613  -8.412  0.00  0.00    +0.167 A 
BRANCH  31  32
ATOM     32  O   UNL     1       6.008  -2.989  -7.107  0.00  0.00    -0.503 OA
ATOM     33  H   UNL     1       5.297  -3.599  -6.869  0.00  0.00    +0.292 HD
ENDBRANCH  31  32
BRANCH  30  34
ATOM     34  O   UNL     1       7.394  -4.459  -8.978  0.00  0.00    -0.491 OA
ATOM     35  C   UNL     1       8.094  -5.170 -10.001  0.00  0.00    +0.277 C 
ENDBRANCH  30  34
ENDBRANCH  24  26
ENDBRANCH  22  23
ENDBRANCH  18  22
TORSDOF 6
