REMARK  Name = ZINC12470729
REMARK  9 active torsions:
REMARK  status: ('A' for Active; 'I' for Inactive)
REMARK    1  A    between atoms: C_1  and  C_2
REMARK    2  A    between atoms: C_7  and  C_19
REMARK    3  A    between atoms: C_15  and  O_18
REMARK    4  A    between atoms: C_19  and  N_20
REMARK    5  A    between atoms: N_20  and  C_21
REMARK    6  A    between atoms: C_21  and  C_22
REMARK    7  A    between atoms: C_22  and  C_23
REMARK    8  A    between atoms: C_23  and  N_24
REMARK    9  A    between atoms: C_30  and  C_32
REMARK                            x       y       z     vdW  Elec       q    Type
REMARK                         _______ _______ _______ _____ _____    ______ ____
ROOT
ATOM      1  C   UNL     1       1.353  -4.239   6.683  0.00  0.00    +0.044 C 
ATOM      2  C   UNL     1       0.718  -3.423   5.587  0.00  0.00    -0.048 A 
ATOM      3  C   UNL     1       0.418  -4.027   4.368  0.00  0.00    +0.004 A 
ATOM      4  C   UNL     1      -0.156  -3.315   3.359  0.00  0.00    +0.010 A 
ATOM      5  C   UNL     1      -0.449  -1.956   3.547  0.00  0.00    -0.001 A 
ATOM      6  C   UNL     1      -1.049  -1.189   2.527  0.00  0.00    +0.018 A 
ATOM      7  C   UNL     1      -1.303   0.127   2.774  0.00  0.00    +0.008 A 
ATOM      8  C   UNL     1      -0.977   0.679   4.021  0.00  0.00    +0.104 A 
ATOM      9  C   UNL     1      -0.144  -1.339   4.785  0.00  0.00    +0.048 A 
ATOM     10  C   UNL     1       0.448  -2.106   5.803  0.00  0.00    +0.029 A 
ATOM     11  N   UNL     1      -1.246   2.019   4.259  0.00  0.00    -0.314 N 
ATOM     12  C   UNL     1      -0.212   2.620   5.111  0.00  0.00    +0.106 C 
ATOM     13  C   UNL     1      -0.461   4.125   5.233  0.00  0.00    +0.021 C 
ATOM     14  C   UNL     1      -1.847   4.361   5.838  0.00  0.00    +0.034 C 
ATOM     15  C   UNL     1      -2.901   3.684   4.957  0.00  0.00    +0.132 C 
ATOM     16  C   UNL     1      -2.582   2.192   4.844  0.00  0.00    +0.137 C 
ATOM     17  N   UNL     1      -0.405  -0.011   5.038  0.00  0.00    -0.343 N 
ATOM     18  H   UNL     1      -0.180   0.428   5.939  0.00  0.00    +0.167 HD
ENDROOT
BRANCH  15  19
ATOM     19  O   UNL     1      -4.193   3.853   5.545  0.00  0.00    -0.390 OA
ATOM     20  H   UNL     1      -4.492   4.772   5.580  0.00  0.00    +0.210 HD
ENDBRANCH  15  19
BRANCH   7  21
ATOM     21  C   UNL     1      -1.938   0.985   1.710  0.00  0.00    +0.146 C 
BRANCH  21  22
ATOM     22  N   UNL     1      -2.075   0.210   0.474  0.00  0.00    -0.293 N 
ATOM     23  C   UNL     1      -1.043   0.132  -0.390  0.00  0.00    +0.255 C 
ATOM     24  O   UNL     1      -1.189  -0.426  -1.462  0.00  0.00    -0.269 OA
BRANCH  23  25
ATOM     25  C   UNL     1       0.254   0.719  -0.038  0.00  0.00    +0.093 A 
ATOM     26  C   UNL     1       1.398   0.845  -0.795  0.00  0.00    +0.131 A 
ATOM     27  N   UNL     1       2.439   1.415  -0.245  0.00  0.00    -0.255 NA
ATOM     28  C   UNL     1       2.409   1.860   0.994  0.00  0.00    +0.156 A 
ATOM     29  S   UNL     1       0.789   1.478   1.489  0.00  0.00    -0.071 S 
ENDBRANCH  23  25
BRANCH  22  30
ATOM     30  C   UNL     1      -3.333  -0.479   0.178  0.00  0.00    +0.110 C 
BRANCH  30  31
ATOM     31  C   UNL     1      -4.301   0.493  -0.499  0.00  0.00    +0.038 C 
BRANCH  31  32
ATOM     32  C   UNL     1      -5.614  -0.227  -0.808  0.00  0.00    +0.109 C 
BRANCH  32  33
ATOM     33  N   UNL     1      -6.541   0.704  -1.456  0.00  0.00    -0.301 N 
ATOM     34  C   UNL     1      -7.502   1.550  -0.738  0.00  0.00    +0.108 C 
ATOM     35  C   UNL     1      -7.923   2.641  -1.750  0.00  0.00    +0.028 C 
ATOM     36  C   UNL     1      -7.678   1.929  -3.100  0.00  0.00    +0.097 C 
ATOM     37  C   UNL     1      -6.625   0.889  -2.785  0.00  0.00    +0.216 C 
ATOM     38  O   UNL     1      -5.954   0.308  -3.611  0.00  0.00    -0.276 OA
ENDBRANCH  32  33
ENDBRANCH  31  32
ENDBRANCH  30  31
ENDBRANCH  22  30
ENDBRANCH  21  22
ENDBRANCH   7  21
TORSDOF 8
