REMARK  Name = ZINC57406012
REMARK  6 active torsions:
REMARK  status: ('A' for Active; 'I' for Inactive)
REMARK    1  A    between atoms: C_1  and  C_2
REMARK    2  A    between atoms: C_15  and  C_17
REMARK    3  A    between atoms: C_17  and  C_19
REMARK    4  A    between atoms: C_17  and  N_20
REMARK    5  A    between atoms: C_22  and  C_29
REMARK    6  A    between atoms: C_25  and  C_28
REMARK                            x       y       z     vdW  Elec       q    Type
REMARK                         _______ _______ _______ _____ _____    ______ ____
ROOT
ATOM      1  C   UNL     1      -1.496   1.075   0.591  0.00  0.00    +0.008 C 
ATOM      2  C   UNL     1      -1.244  -0.431   0.508  0.00  0.00    -0.009 C 
ATOM      3  C   UNL     1      -0.525  -0.761  -0.804  0.00  0.00    +0.008 C 
ATOM      4  C   UNL     1      -0.491  -2.275  -1.011  0.00  0.00    +0.037 C 
ATOM      5  C   UNL     1       0.093  -2.932   0.237  0.00  0.00    -0.023 A 
ATOM      6  C   UNL     1       0.130  -2.262   1.413  0.00  0.00    -0.004 A 
ATOM      7  S   UNL     1       0.876  -3.387   2.565  0.00  0.00    -0.073 S 
ATOM      8  C   UNL     1       1.136  -4.748   1.472  0.00  0.00    +0.116 A 
ATOM      9  C   UNL     1       0.630  -4.280   0.239  0.00  0.00    +0.075 A 
ATOM     10  C   UNL     1       0.700  -5.180  -0.878  0.00  0.00    +0.260 A 
ATOM     11  O   UNL     1       0.291  -4.873  -1.984  0.00  0.00    -0.267 OA
ATOM     12  N   UNL     1       1.249  -6.391  -0.622  0.00  0.00    -0.309 N 
ATOM     13  H   UNL     1       1.317  -7.031  -1.349  0.00  0.00    +0.170 HD
ATOM     14  C   UNL     1       1.709  -6.752   0.600  0.00  0.00    +0.128 A 
ATOM     15  N   UNL     1       1.662  -5.957   1.646  0.00  0.00    -0.225 NA
ATOM     16  C   UNL     1      -0.357  -0.871   1.682  0.00  0.00    +0.046 C 
ENDROOT
BRANCH  14  17
ATOM     17  C   UNL     1       2.301  -8.127   0.768  0.00  0.00    +0.120 C 
ATOM     18  C   UNL     1       3.412  -8.334  -0.263  0.00  0.00    +0.032 C 
BRANCH  17  19
ATOM     19  N   UNL     1       2.859  -8.258   2.121  0.00  0.00    -0.288 NA
ATOM     20  C   UNL     1       3.146  -9.665   2.439  0.00  0.00    +0.116 C 
ATOM     21  C   UNL     1       3.667  -9.762   3.875  0.00  0.00    +0.130 C 
ATOM     22  O   UNL     1       4.821  -8.928   4.015  0.00  0.00    -0.371 OA
ATOM     23  C   UNL     1       4.577  -7.552   3.714  0.00  0.00    +0.130 C 
ATOM     24  C   UNL     1       4.065  -7.432   2.276  0.00  0.00    +0.116 C 
ATOM     25  C   UNL     1       5.877  -6.758   3.862  0.00  0.00    +0.039 C 
ATOM     26  C   UNL     1       4.042 -11.212   4.185  0.00  0.00    +0.039 C 
ENDBRANCH  17  19
ENDBRANCH  14  17
TORSDOF 2
