REMARK  Name = ZINC08185775
REMARK  9 active torsions:
REMARK  status: ('A' for Active; 'I' for Inactive)
REMARK    1  A    between atoms: C_1  and  C_2
REMARK    2  A    between atoms: C_2  and  C_4
REMARK    3  A    between atoms: C_2  and  N_54
REMARK    4  A    between atoms: C_9  and  C_11
REMARK    5  A    between atoms: C_9  and  C_12
REMARK    6  A    between atoms: C_9  and  N_54
REMARK    7  A    between atoms: N_14  and  C_15
REMARK    8  A    between atoms: C_18  and  S_21
REMARK    9  A    between atoms: S_21  and  N_24
REMARK                            x       y       z     vdW  Elec       q    Type
REMARK                         _______ _______ _______ _____ _____    ______ ____
ROOT
ATOM      1  C   UNL     1       3.301   9.102   1.819  0.00  0.00    +0.203 C 
ATOM      2  O   UNL     1       3.771  10.216   1.719  0.00  0.00    -0.277 OA
ATOM      3  N   UNL     1       4.073   8.081   2.241  0.00  0.00    -0.287 N 
ATOM      4  H   UNL     1       3.681   7.205   2.386  0.00  0.00    +0.155 HD
ENDROOT
BRANCH   3   5
ATOM      5  C   UNL     1       5.438   8.284   2.471  0.00  0.00    +0.033 A 
ATOM      6  C   UNL     1       6.348   7.271   2.196  0.00  0.00    +0.025 A 
ATOM      7  C   UNL     1       7.695   7.476   2.419  0.00  0.00    +0.030 A 
ATOM      8  C   UNL     1       8.138   8.685   2.924  0.00  0.00    +0.106 A 
ATOM      9  C   UNL     1       7.234   9.693   3.204  0.00  0.00    +0.030 A 
ATOM     10  C   UNL     1       5.886   9.496   2.979  0.00  0.00    +0.025 A 
BRANCH   8  11
ATOM     11  S   UNL     1       9.857   8.940   3.212  0.00  0.00    +0.061 S 
ATOM     12  O   UNL     1      10.550   8.041   2.358  0.00  0.00    -0.153 OA
ATOM     13  O   UNL     1      10.071  10.345   3.175  0.00  0.00    -0.153 OA
BRANCH  11  14
ATOM     14  N   UNL     1      10.171   8.455   4.764  0.00  0.00    -0.177 NA
ATOM     15  C   UNL     1      10.075   9.407   5.880  0.00  0.00    +0.109 C 
ATOM     16  C   UNL     1       9.136   8.819   6.944  0.00  0.00    +0.017 C 
ATOM     17  C   UNL     1       9.636   7.429   7.346  0.00  0.00    +0.003 C 
ATOM     18  C   UNL     1       9.617   6.506   6.125  0.00  0.00    +0.017 C 
ATOM     19  C   UNL     1      10.556   7.067   5.052  0.00  0.00    +0.109 C 
ENDBRANCH  11  14
ENDBRANCH   8  11
ENDBRANCH   3   5
BRANCH   1  20
ATOM     20  C   UNL     1       1.855   8.861   1.472  0.00  0.00    +0.014 C 
ATOM     21  C   UNL     1       1.767   7.838   0.338  0.00  0.00    -0.004 C 
BRANCH  20  22
ATOM     22  N   UNL     1       1.242  10.131   1.039  0.00  0.00    +0.391 N 
ATOM     23  H   UNL     1       1.651  10.905   1.577  0.00  0.00    -0.084 HD
ATOM     24  H   UNL     1       1.429  10.273   0.039  0.00  0.00    -0.084 HD
BRANCH  22  26
ATOM     25  C   UNL     1      -0.521  10.515   2.702  0.00  0.00    -0.008 C 
ATOM     26  C   UNL     1      -0.215  10.099   1.262  0.00  0.00    -0.036 C 
BRANCH  26  27
ATOM     27  C   UNL     1      -0.883  11.058   0.310  0.00  0.00    -0.024 A 
ATOM     28  C   UNL     1      -2.041  10.909  -0.378  0.00  0.00    +0.009 A 
ATOM     29  C   UNL     1      -2.469  11.936  -1.200  0.00  0.00    +0.008 A 
ATOM     30  C   UNL     1      -1.711  13.055  -1.301  0.00  0.00    +0.045 A 
ATOM     31  S   UNL     1      -0.353  12.683  -0.204  0.00  0.00    -0.103 S 
ENDBRANCH  26  27
ENDBRANCH  22  26
ENDBRANCH  20  22
ENDBRANCH   1  20
TORSDOF 7
