REMARK  Name = ZINC00779991
REMARK  11 active torsions:
REMARK  status: ('A' for Active; 'I' for Inactive)
REMARK    1  A    between atoms: C_1  and  C_2
REMARK    2  A    between atoms: C_2  and  O_3
REMARK    3  A    between atoms: O_3  and  C_4
REMARK    4  A    between atoms: C_7  and  C_10
REMARK    5  A    between atoms: C_12  and  C_19
REMARK    6  A    between atoms: C_13  and  C_18
REMARK    7  A    between atoms: N_21  and  C_22
REMARK    8  A    between atoms: C_25  and  O_30
REMARK    9  A    between atoms: C_27  and  O_28
REMARK   10  A    between atoms: O_28  and  C_29
REMARK   11  A    between atoms: O_30  and  C_31
REMARK                            x       y       z     vdW  Elec       q    Type
REMARK                         _______ _______ _______ _____ _____    ______ ____
ROOT
ATOM      1  C   UNL     1       7.550   5.203  -0.032  0.00  0.00    +0.142 C 
ATOM      2  C   UNL     1       7.537   3.689  -0.085  0.00  0.00    +0.056 C 
ATOM      3  C   UNL     1       8.723   3.054  -0.189  0.00  0.00    +0.019 C 
ATOM      4  N   UNL     1       9.896   3.753  -0.239  0.00  0.00    -0.273 N 
ATOM      5  C   UNL     1       9.966   5.090  -0.191  0.00  0.00    +0.304 C 
ATOM      6  O   UNL     1      11.057   5.623  -0.242  0.00  0.00    -0.252 OA
ATOM      7  N   UNL     1       8.866   5.862  -0.087  0.00  0.00    -0.288 N 
ATOM      8  C   UNL     1       8.754   1.548  -0.250  0.00  0.00    +0.061 C 
ATOM      9  H   UNL     1      10.724   3.254  -0.314  0.00  0.00    +0.156 HD
ATOM     10  H   UNL     1       8.940   6.828  -0.053  0.00  0.00    +0.151 HD
ENDROOT
BRANCH   1  14
ATOM     11  C   UNL     1       5.637   6.411   3.593  0.00  0.00    +0.121 A 
ATOM     12  C   UNL     1       4.948   6.471   2.390  0.00  0.00    +0.046 A 
ATOM     13  C   UNL     1       5.569   6.080   1.220  0.00  0.00    +0.009 A 
ATOM     14  C   UNL     1       6.875   5.629   1.246  0.00  0.00    -0.022 A 
ATOM     15  C   UNL     1       7.563   5.564   2.444  0.00  0.00    +0.009 A 
ATOM     16  C   UNL     1       6.948   5.959   3.617  0.00  0.00    +0.046 A 
BRANCH  11  17
ATOM     17  O   UNL     1       5.029   6.796   4.746  0.00  0.00    -0.492 OA
BRANCH  17  19
ATOM     18  C   UNL     1       4.953   7.180   7.130  0.00  0.00    +0.048 C 
ATOM     19  C   UNL     1       5.799   6.708   5.946  0.00  0.00    +0.225 C 
ENDBRANCH  17  19
ENDBRANCH  11  17
ENDBRANCH   1  14
BRANCH   2  20
ATOM     20  C   UNL     1       6.320   2.965  -0.034  0.00  0.00    +0.248 C 
ATOM     21  O   UNL     1       5.593   2.926  -1.009  0.00  0.00    -0.270 OA
ATOM     22  N   UNL     1       5.968   2.318   1.095  0.00  0.00    -0.279 N 
ATOM     23  H   UNL     1       6.495   2.429   1.902  0.00  0.00    +0.155 HD
BRANCH  22  24
ATOM     24  C   UNL     1       4.840   1.485   1.104  0.00  0.00    +0.076 A 
ATOM     25  C   UNL     1       3.764   1.765   0.274  0.00  0.00    +0.030 A 
ATOM     26  C   UNL     1       2.655   0.940   0.278  0.00  0.00    +0.047 A 
ATOM     27  C   UNL     1       2.610  -0.162   1.119  0.00  0.00    +0.124 A 
ATOM     28  C   UNL     1       3.683  -0.445   1.951  0.00  0.00    +0.093 A 
ATOM     29  C   UNL     1       4.799   0.376   1.945  0.00  0.00    +0.145 A 
BRANCH  29  30
ATOM     30  O   UNL     1       5.852   0.099   2.760  0.00  0.00    -0.493 OA
ATOM     31  C   UNL     1       5.740  -1.055   3.595  0.00  0.00    +0.277 C 
ENDBRANCH  29  30
BRANCH  27  32
ATOM     32  O   UNL     1       1.515  -0.968   1.124  0.00  0.00    -0.495 OA
ATOM     33  C   UNL     1       0.447  -0.616   0.243  0.00  0.00    +0.277 C 
ENDBRANCH  27  32
ENDBRANCH  22  24
ENDBRANCH   2  20
TORSDOF 7
