REMARK  Name = ZINC01064848
REMARK  2 active torsions:
REMARK  status: ('A' for Active; 'I' for Inactive)
REMARK    1  A    between atoms: C_3  and  C_7
REMARK    2  A    between atoms: C_9  and  C_32
REMARK                            x       y       z     vdW  Elec       q    Type
REMARK                         _______ _______ _______ _____ _____    ______ ____
ROOT
ATOM      1  C   UNL     1       2.076   0.952   0.012  0.00  0.00    +0.099 C 
ATOM      2  C   UNL     1       2.170   0.174  -1.282  0.00  0.00    +0.082 C 
ATOM      3  C   UNL     1       2.555  -1.163  -1.212  0.00  0.00    +0.147 C 
ATOM      4  N   UNL     1       2.635  -1.857  -2.356  0.00  0.00    -0.215 NA
ATOM      5  C   UNL     1       2.996  -3.123  -2.402  0.00  0.00    +0.128 C 
ATOM      6  C   UNL     1       3.334  -3.831  -1.149  0.00  0.00    +0.047 A 
ATOM      7  C   UNL     1       3.765  -5.223  -0.980  0.00  0.00    -0.025 A 
ATOM      8  C   UNL     1       4.008  -5.633   0.282  0.00  0.00    -0.005 A 
ATOM      9  S   UNL     1       3.699  -4.209   1.295  0.00  0.00    -0.077 S 
ATOM     10  C   UNL     1       3.234  -3.074   0.015  0.00  0.00    +0.089 A 
ATOM     11  N   UNL     1       2.846  -1.756  -0.003  0.00  0.00    -0.250 N 
ATOM     12  C   UNL     1       2.769  -1.095   1.200  0.00  0.00    +0.025 C 
ATOM     13  C   UNL     1       2.403   0.199   1.285  0.00  0.00    +0.025 C 
ATOM     14  C   UNL     1       2.315   0.870   2.514  0.00  0.00    +0.162 C 
ATOM     15  O   UNL     1       1.996   2.042   2.537  0.00  0.00    -0.292 OA
ATOM     16  C   UNL     1       2.610   0.154   3.807  0.00  0.00    +0.080 C 
ATOM     17  C   UNL     1       2.299  -1.335   3.629  0.00  0.00    +0.014 C 
ATOM     18  C   UNL     1       3.116  -1.870   2.451  0.00  0.00    +0.052 C 
ATOM     19  C   UNL     1       4.440  -6.990   0.742  0.00  0.00    +0.043 C 
ATOM     20  C   UNL     1       5.631  -7.457  -0.106  0.00  0.00    +0.005 C 
ATOM     21  C   UNL     1       5.091  -8.203  -1.323  0.00  0.00    +0.001 C 
ATOM     22  C   UNL     1       3.757  -7.598  -1.757  0.00  0.00    +0.005 C 
ATOM     23  C   UNL     1       3.940  -6.146  -2.183  0.00  0.00    +0.037 C 
ATOM     24  N   UNL     1       3.056  -3.781  -3.607  0.00  0.00    -0.343 N 
ATOM     25  H   UNL     1       3.642  -4.548  -3.712  0.00  0.00    +0.144 HD
ATOM     26  H   UNL     1       2.514  -3.480  -4.353  0.00  0.00    +0.144 HD
ENDROOT
BRANCH   1  29
ATOM     27  C   UNL     1      -0.873   3.295   0.256  0.00  0.00    +0.020 A 
ATOM     28  C   UNL     1       0.436   2.850   0.141  0.00  0.00    +0.007 A 
ATOM     29  C   UNL     1       0.671   1.484   0.134  0.00  0.00    -0.017 A 
ATOM     30  C   UNL     1      -0.400   0.616   0.240  0.00  0.00    +0.115 A 
ATOM     31  N   UNL     1      -1.632   1.074   0.342  0.00  0.00    -0.263 NA
ATOM     32  C   UNL     1      -1.892   2.367   0.358  0.00  0.00    +0.111 A 
ENDBRANCH   1  29
BRANCH   2  33
ATOM     33  C   UNL     1       1.873   0.792  -2.540  0.00  0.00    +0.099 C 
ATOM     34  N   UNL     1       1.638   1.282  -3.537  0.00  0.00    -0.191 NA
ENDBRANCH   2  33
TORSDOF 2
