REMARK  Name = ZINC31362179
REMARK  13 active torsions:
REMARK  status: ('A' for Active; 'I' for Inactive)
REMARK    1  A    between atoms: C_1  and  C_2
REMARK    2  A    between atoms: C_2  and  C_3
REMARK    3  A    between atoms: N_5  and  C_6
REMARK    4  A    between atoms: C_11  and  N_12
REMARK    5  A    between atoms: N_13  and  C_14
REMARK    6  A    between atoms: C_15  and  C_26
REMARK    7  A    between atoms: C_17  and  N_23
REMARK    8  A    between atoms: C_19  and  N_20
REMARK    9  A    between atoms: C_28  and  C_37
REMARK   10  A    between atoms: C_31  and  C_35
REMARK   11  A    between atoms: C_31  and  C_36
REMARK   12  A    between atoms: N_32  and  C_33
REMARK   13  A    between atoms: C_33  and  C_34
REMARK                            x       y       z     vdW  Elec       q    Type
REMARK                         _______ _______ _______ _____ _____    ______ ____
ROOT
ATOM      1  C   UNL     1      -3.259  -2.818   1.077  0.00  0.00    +0.063 A 
ATOM      2  C   UNL     1      -4.435  -2.184   1.434  0.00  0.00    +0.049 A 
ATOM      3  C   UNL     1      -5.571  -2.933   1.724  0.00  0.00    +0.035 A 
ATOM      4  C   UNL     1      -5.535  -4.323   1.655  0.00  0.00    -0.021 A 
ATOM      5  C   UNL     1      -4.374  -4.960   1.305  0.00  0.00    +0.037 A 
ATOM      6  C   UNL     1      -3.224  -4.223   1.006  0.00  0.00    +0.108 A 
ATOM      7  C   UNL     1      -6.755  -5.156   1.954  0.00  0.00    +0.020 C 
ATOM      8  C   UNL     1      -7.757  -4.357   2.787  0.00  0.00    +0.033 C 
ATOM      9  C   UNL     1      -8.009  -3.009   2.099  0.00  0.00    +0.030 C 
ATOM     10  N   UNL     1      -6.742  -2.267   2.087  0.00  0.00    -0.325 N 
ATOM     11  C   UNL     1      -9.065  -2.220   2.878  0.00  0.00    +0.031 C 
ATOM     12  C   UNL     1      -8.488  -3.241   0.665  0.00  0.00    +0.031 C 
ATOM     13  C   UNL     1      -6.336  -6.404   2.734  0.00  0.00    +0.012 C 
ENDROOT
BRANCH   1  16
ATOM     14  C   UNL     1      -1.888  -0.911   1.431  0.00  0.00    +0.217 C 
ATOM     15  O   UNL     1      -2.715  -0.471   2.201  0.00  0.00    -0.275 OA
ATOM     16  N   UNL     1      -2.118  -2.071   0.784  0.00  0.00    -0.284 N 
ATOM     17  H   UNL     1      -1.491  -2.385   0.114  0.00  0.00    +0.155 HD
BRANCH  14  19
ATOM     18  C   UNL     1      -0.592   1.111   2.048  0.00  0.00    +0.013 C 
ATOM     19  C   UNL     1      -0.601  -0.162   1.198  0.00  0.00    +0.093 C 
ENDBRANCH  14  19
ENDBRANCH   1  16
BRANCH   6  20
ATOM     20  N   UNL     1      -2.076  -4.861   0.653  0.00  0.00    -0.147 NA
ATOM     21  N   UNL     1      -2.128  -5.931  -0.066  0.00  0.00    -0.146 NA
BRANCH  21  22
ATOM     22  C   UNL     1      -3.306  -6.313  -0.636  0.00  0.00    +0.134 A 
ATOM     23  C   UNL     1      -3.974  -5.452  -1.532  0.00  0.00    +0.083 A 
ATOM     24  C   UNL     1      -5.178  -5.858  -2.107  0.00  0.00    +0.054 A 
ATOM     25  C   UNL     1      -5.708  -7.095  -1.799  0.00  0.00    +0.130 A 
ATOM     26  C   UNL     1      -5.052  -7.941  -0.919  0.00  0.00    +0.067 A 
ATOM     27  C   UNL     1      -3.857  -7.561  -0.343  0.00  0.00    +0.157 A 
BRANCH  27  28
ATOM     28  N   UNL     1      -3.163  -8.476   0.591  0.00  0.00    +0.059 N 
ATOM     29  O   UNL     1      -3.641  -9.557   0.846  0.00  0.00    -0.126 OA
ATOM     30  O   UNL     1      -2.118  -8.142   1.100  0.00  0.00    -0.126 OA
ENDBRANCH  27  28
BRANCH  25  31
ATOM     31  N   UNL     1      -6.986  -7.520  -2.412  0.00  0.00    +0.057 N 
ATOM     32  O   UNL     1      -7.515  -6.827  -3.250  0.00  0.00    -0.126 OA
ATOM     33  O   UNL     1      -7.501  -8.560  -2.075  0.00  0.00    -0.126 OA
ENDBRANCH  25  31
BRANCH  23  34
ATOM     34  C   UNL     1      -3.420  -4.170  -1.848  0.00  0.00    +0.101 C 
ATOM     35  N   UNL     1      -2.981  -3.153  -2.099  0.00  0.00    -0.191 NA
ENDBRANCH  23  34
ENDBRANCH  21  22
ENDBRANCH   6  20
BRANCH  10  36
ATOM     36  C   UNL     1      -6.708  -0.848   2.450  0.00  0.00    +0.102 C 
ATOM     37  C   UNL     1      -6.920   0.004   1.196  0.00  0.00    +0.024 C 
ENDBRANCH  10  36
TORSDOF 8
