REMARK  Name = ZINC13506657
REMARK  11 active torsions:
REMARK  status: ('A' for Active; 'I' for Inactive)
REMARK    1  A    between atoms: C_1  and  C_2
REMARK    2  A    between atoms: C_5  and  N_9
REMARK    3  A    between atoms: C_7  and  C_8
REMARK    4  A    between atoms: N_9  and  C_10
REMARK    5  A    between atoms: C_10  and  C_12
REMARK    6  A    between atoms: C_10  and  C_18
REMARK    7  A    between atoms: C_15  and  C_17
REMARK    8  A    between atoms: N_20  and  C_21
REMARK    9  A    between atoms: C_26  and  C_28
REMARK   10  A    between atoms: C_28  and  N_29
REMARK   11  A    between atoms: C_30  and  C_32
REMARK                            x       y       z     vdW  Elec       q    Type
REMARK                         _______ _______ _______ _____ _____    ______ ____
ROOT
ATOM      1  N   UNL     1       2.363   3.910  -0.349  0.00  0.00    -0.251 N 
ATOM      2  C   UNL     1       2.336   5.233  -0.095  0.00  0.00    +0.238 C 
ATOM      3  O   UNL     1       3.369   5.830   0.120  0.00  0.00    -0.273 OA
ENDROOT
BRANCH   1   8
ATOM      4  C   UNL     1      -2.489   0.990  -0.692  0.00  0.00    +0.044 C 
ATOM      5  C   UNL     1      -1.200   1.764  -0.598  0.00  0.00    -0.047 A 
ATOM      6  C   UNL     1      -0.004   1.158  -0.938  0.00  0.00    +0.005 A 
ATOM      7  C   UNL     1       1.178   1.867  -0.858  0.00  0.00    +0.024 A 
ATOM      8  C   UNL     1       1.167   3.188  -0.431  0.00  0.00    +0.038 A 
ATOM      9  C   UNL     1      -0.035   3.793  -0.086  0.00  0.00    +0.027 A 
ATOM     10  C   UNL     1      -1.214   3.078  -0.168  0.00  0.00    -0.046 A 
ATOM     11  C   UNL     1      -2.519   3.733   0.207  0.00  0.00    +0.044 C 
ENDBRANCH   1   8
BRANCH   1  12
ATOM     12  C   UNL     1       3.644   3.227  -0.540  0.00  0.00    +0.233 C 
BRANCH  12  13
ATOM     13  C   UNL     1       3.685   2.609  -1.914  0.00  0.00    +0.135 A 
ATOM     14  C   UNL     1       4.748   2.590  -2.737  0.00  0.00    +0.047 A 
ATOM     15  C   UNL     1       4.346   1.912  -3.911  0.00  0.00    +0.045 A 
ATOM     16  C   UNL     1       3.058   1.565  -3.738  0.00  0.00    +0.102 A 
ATOM     17  O   UNL     1       2.663   1.989  -2.527  0.00  0.00    -0.462 OA
ATOM     18  C   UNL     1       2.204   0.825  -4.735  0.00  0.00    +0.086 C 
ENDBRANCH  12  13
BRANCH  12  19
ATOM     19  C   UNL     1       3.798   2.147   0.500  0.00  0.00    +0.242 C 
ATOM     20  O   UNL     1       2.924   1.967   1.321  0.00  0.00    -0.273 OA
ATOM     21  N   UNL     1       4.908   1.383   0.519  0.00  0.00    -0.311 N 
ATOM     22  H   UNL     1       5.608   1.527  -0.137  0.00  0.00    +0.149 HD
BRANCH  21  23
ATOM     23  C   UNL     1       5.058   0.334   1.531  0.00  0.00    +0.073 C 
ATOM     24  C   UNL     1       5.701   0.917   2.806  0.00  0.00    +0.022 C 
ATOM     25  C   UNL     1       6.630  -0.213   3.314  0.00  0.00    +0.002 C 
ATOM     26  C   UNL     1       7.200  -0.803   2.000  0.00  0.00    +0.002 C 
ATOM     27  C   UNL     1       6.011  -0.760   1.019  0.00  0.00    +0.022 C 
ENDBRANCH  21  23
ENDBRANCH  12  19
ENDBRANCH   1  12
BRANCH   2  28
ATOM     28  C   UNL     1       1.022   5.971  -0.079  0.00  0.00    +0.201 C 
BRANCH  28  29
ATOM     29  N   UNL     1       1.259   7.397  -0.314  0.00  0.00    -0.300 N 
ATOM     30  C   UNL     1       0.222   8.257  -0.342  0.00  0.00    +0.280 C 
ATOM     31  O   UNL     1      -0.912   7.849  -0.173  0.00  0.00    -0.267 OA
ATOM     32  H   UNL     1       2.163   7.722  -0.449  0.00  0.00    +0.150 HD
BRANCH  30  33
ATOM     33  C   UNL     1       0.460   9.685  -0.578  0.00  0.00    +0.189 A 
ATOM     34  C   UNL     1      -0.495  10.659  -0.631  0.00  0.00    +0.054 A 
ATOM     35  C   UNL     1       0.175  11.869  -0.875  0.00  0.00    +0.042 A 
ATOM     36  C   UNL     1       1.493  11.583  -0.958  0.00  0.00    +0.196 A 
ATOM     37  O   UNL     1       1.662  10.267  -0.773  0.00  0.00    -0.458 OA
ENDBRANCH  30  33
ENDBRANCH  28  29
ENDBRANCH   2  28
TORSDOF 8
