REMARK  Name = ZINC08973120
REMARK  12 active torsions:
REMARK  status: ('A' for Active; 'I' for Inactive)
REMARK    1  A    between atoms: C_1  and  C_2
REMARK    2  A    between atoms: C_5  and  C_31
REMARK    3  A    between atoms: C_6  and  C_8
REMARK    4  A    between atoms: C_8  and  C_10
REMARK    5  A    between atoms: C_11  and  O_30
REMARK    6  A    between atoms: N_14  and  C_25
REMARK    7  A    between atoms: C_15  and  C_17
REMARK    8  A    between atoms: C_25  and  C_26
REMARK    9  A    between atoms: C_26  and  C_27
REMARK   10  A    between atoms: C_27  and  N_57
REMARK   11  A    between atoms: C_28  and  N_57
REMARK   12  A    between atoms: C_29  and  N_57
REMARK                            x       y       z     vdW  Elec       q    Type
REMARK                         _______ _______ _______ _____ _____    ______ ____
ROOT
ATOM      1  C   UNL     1      -0.133  -0.956  -3.817  0.00  0.00    +0.071 C 
ATOM      2  C   UNL     1      -0.260  -0.518  -5.091  0.00  0.00    +0.188 C 
ATOM      3  C   UNL     1      -0.406  -1.681  -5.992  0.00  0.00    +0.282 C 
ATOM      4  O   UNL     1      -0.536  -1.617  -7.198  0.00  0.00    -0.267 OA
ATOM      5  N   UNL     1      -0.379  -2.821  -5.278  0.00  0.00    -0.284 N 
ATOM      6  C   UNL     1      -0.207  -2.465  -3.865  0.00  0.00    +0.144 C 
ENDROOT
BRANCH   6   7
ATOM      7  C   UNL     1       1.068  -3.063  -3.330  0.00  0.00    -0.021 A 
ATOM      8  C   UNL     1       1.077  -3.676  -2.091  0.00  0.00    +0.007 A 
ATOM      9  C   UNL     1       2.246  -4.226  -1.599  0.00  0.00    +0.022 A 
ATOM     10  C   UNL     1       3.408  -4.163  -2.346  0.00  0.00    +0.059 A 
ATOM     11  C   UNL     1       3.399  -3.549  -3.587  0.00  0.00    +0.060 A 
ATOM     12  C   UNL     1       2.227  -3.004  -4.080  0.00  0.00    +0.027 A 
ATOM     13 CL   UNL     1       4.857  -3.468  -4.527  0.00  0.00    -0.082 Cl
ATOM     14 CL   UNL     1       4.877  -4.852  -1.729  0.00  0.00    -0.082 Cl
ENDBRANCH   6   7
BRANCH   1  15
ATOM     15  C   UNL     1       0.037  -0.127  -2.620  0.00  0.00    +0.195 C 
ATOM     16  O   UNL     1       0.172   1.077  -2.728  0.00  0.00    -0.287 OA
BRANCH  15  22
ATOM     17  C   UNL     1       2.538  -1.647   1.423  0.00  0.00    +0.044 C 
ATOM     18  C   UNL     1       1.244  -1.487   0.667  0.00  0.00    -0.050 A 
ATOM     19  C   UNL     1       0.059  -1.935   1.224  0.00  0.00    +0.003 A 
ATOM     20  C   UNL     1      -1.134  -1.793   0.537  0.00  0.00    +0.004 A 
ATOM     21  C   UNL     1      -1.149  -1.203  -0.710  0.00  0.00    -0.040 A 
ATOM     22  C   UNL     1       0.044  -0.754  -1.281  0.00  0.00    +0.025 A 
ATOM     23  C   UNL     1       1.244  -0.896  -0.579  0.00  0.00    +0.015 A 
ATOM     24  C   UNL     1      -2.448  -1.049  -1.457  0.00  0.00    +0.044 C 
ENDBRANCH  15  22
ENDBRANCH   1  15
BRANCH   2  25
ATOM     25  O   UNL     1      -0.250   0.778  -5.479  0.00  0.00    -0.502 OA
ATOM     26  H   UNL     1      -0.361   0.829  -6.471  0.00  0.00    +0.292 HD
ENDBRANCH   2  25
BRANCH   5  27
ATOM     27  C   UNL     1      -0.500  -4.178  -5.816  0.00  0.00    +0.107 C 
BRANCH  27  28
ATOM     28  C   UNL     1      -1.974  -4.586  -5.845  0.00  0.00    +0.000 C 
BRANCH  28  29
ATOM     29  C   UNL     1      -2.101  -6.003  -6.407  0.00  0.00    -0.078 C 
BRANCH  29  32
ATOM     30  C   UNL     1      -4.271  -5.572  -7.389  0.00  0.00    -0.097 C 
ATOM     31  C   UNL     1      -3.661  -7.824  -6.742  0.00  0.00    -0.097 C 
ATOM     32  N   UNL     1      -3.527  -6.390  -6.409  0.00  0.00    +0.376 N 
ATOM     33  H   UNL     1      -3.918  -6.227  -5.474  0.00  0.00    -0.083 HD
ENDBRANCH  29  32
ENDBRANCH  28  29
ENDBRANCH  27  28
ENDBRANCH   5  27
TORSDOF 8
