REMARK  Name = ZINC32704127
REMARK  13 active torsions:
REMARK  status: ('A' for Active; 'I' for Inactive)
REMARK    1  A    between atoms: C_1  and  N_2
REMARK    2  A    between atoms: N_2  and  C_3
REMARK    3  A    between atoms: N_2  and  C_4
REMARK    4  A    between atoms: C_4  and  C_11
REMARK    5  A    between atoms: C_11  and  N_12
REMARK    6  A    between atoms: C_13  and  C_15
REMARK    7  A    between atoms: N_20  and  C_22
REMARK    8  A    between atoms: C_24  and  O_32
REMARK    9  A    between atoms: C_25  and  O_30
REMARK   10  A    between atoms: C_26  and  O_28
REMARK   11  A    between atoms: O_28  and  C_29
REMARK   12  A    between atoms: O_30  and  C_31
REMARK   13  A    between atoms: O_32  and  C_33
REMARK                            x       y       z     vdW  Elec       q    Type
REMARK                         _______ _______ _______ _____ _____    ______ ____
ROOT
ATOM      1  C   UNL     1       6.873  -0.248   1.310  0.00  0.00    +0.101 C 
ATOM      2  C   UNL     1       6.061  -1.472   1.792  0.00  0.00    +0.110 C 
ATOM      3  C   UNL     1       4.768  -0.880   2.307  0.00  0.00    +0.221 C 
ATOM      4  O   UNL     1       3.976  -1.458   3.022  0.00  0.00    -0.275 OA
ATOM      5  N   UNL     1       4.624   0.378   1.857  0.00  0.00    -0.270 N 
ATOM      6  C   UNL     1       5.751   0.771   1.003  0.00  0.00    +0.127 C 
ENDROOT
BRANCH   5   7
ATOM      7  C   UNL     1       3.536   1.206   2.161  0.00  0.00    +0.043 A 
ATOM      8  C   UNL     1       2.453   0.699   2.865  0.00  0.00    +0.073 A 
ATOM      9  C   UNL     1       1.375   1.517   3.165  0.00  0.00    +0.167 A 
ATOM     10  C   UNL     1       1.380   2.847   2.761  0.00  0.00    +0.204 A 
ATOM     11  C   UNL     1       2.465   3.355   2.056  0.00  0.00    +0.167 A 
ATOM     12  C   UNL     1       3.541   2.534   1.757  0.00  0.00    +0.073 A 
BRANCH  11  13
ATOM     13  O   UNL     1       2.470   4.656   1.661  0.00  0.00    -0.491 OA
ATOM     14  C   UNL     1       3.617   5.110   0.940  0.00  0.00    +0.277 C 
ENDBRANCH  11  13
BRANCH  10  15
ATOM     15  O   UNL     1       0.320   3.650   3.051  0.00  0.00    -0.488 OA
ATOM     16  C   UNL     1       0.366   4.365   4.288  0.00  0.00    +0.277 C 
ENDBRANCH  10  15
BRANCH   9  17
ATOM     17  O   UNL     1       0.315   1.019   3.856  0.00  0.00    -0.491 OA
ATOM     18  C   UNL     1       0.378  -0.356   4.239  0.00  0.00    +0.277 C 
ENDBRANCH   9  17
ENDBRANCH   5   7
BRANCH   1  20
ATOM     19  N   UNL     1       8.595  -1.541   0.092  0.00  0.00    -0.316 N 
ATOM     20  C   UNL     1       7.655  -0.576   0.063  0.00  0.00    +0.218 C 
ATOM     21  O   UNL     1       7.438   0.029  -0.965  0.00  0.00    -0.275 OA
ATOM     22  H   UNL     1       8.792  -2.090   1.025  0.00  0.00    +0.149 HD
BRANCH  19  23
ATOM     23  C   UNL     1       9.354  -1.859  -1.120  0.00  0.00    +0.092 C 
BRANCH  23  24
ATOM     24  C   UNL     1      10.281  -3.045  -0.844  0.00  0.00    -0.050 C 
ATOM     25  C   UNL     1      11.619  -2.801  -1.489  0.00  0.00    -0.010 C 
ATOM     26  C   UNL     1      11.522  -1.855  -2.703  0.00  0.00    -0.001 C 
ATOM     27  C   UNL     1      10.296  -2.140  -3.591  0.00  0.00    -0.000 C 
ATOM     28  C   UNL     1      10.063  -3.613  -3.794  0.00  0.00    -0.000 C 
ATOM     29  C   UNL     1       9.051  -4.099  -2.736  0.00  0.00    -0.001 C 
ATOM     30  C   UNL     1       9.671  -4.330  -1.440  0.00  0.00    -0.010 C 
BRANCH  24  32
ATOM     31  C   UNL     1      11.242  -4.410   0.910  0.00  0.00    -0.096 C 
ATOM     32  N   UNL     1      10.455  -3.208   0.606  0.00  0.00    +0.381 N 
ATOM     33  C   UNL     1      11.069  -2.013   1.200  0.00  0.00    -0.096 C 
ATOM     34  H   UNL     1       9.459  -3.334   1.054  0.00  0.00    -0.082 HD
ENDBRANCH  24  32
ENDBRANCH  23  24
ENDBRANCH  19  23
ENDBRANCH   1  20
TORSDOF 8
