REMARK  Name = ZINC39923316
REMARK  10 active torsions:
REMARK  status: ('A' for Active; 'I' for Inactive)
REMARK    1  A    between atoms: C_1  and  C_2
REMARK    2  A    between atoms: C_5  and  N_8
REMARK    3  A    between atoms: C_9  and  C_30
REMARK    4  A    between atoms: C_13  and  S_14
REMARK    5  A    between atoms: S_14  and  C_15
REMARK    6  A    between atoms: C_15  and  C_16
REMARK    7  A    between atoms: N_18  and  N_19
REMARK    8  A    between atoms: C_20  and  C_21
REMARK    9  A    between atoms: C_33  and  O_36
REMARK   10  A    between atoms: O_36  and  C_37
REMARK                            x       y       z     vdW  Elec       q    Type
REMARK                         _______ _______ _______ _____ _____    ______ ____
ROOT
ATOM      1  N   UNL     1       0.036  -4.197  -0.040  0.00  0.00    -0.254 N 
ATOM      2  C   UNL     1       0.172  -5.053   1.150  0.00  0.00    +0.213 C 
ATOM      3  N   UNL     1       0.162  -6.422   0.605  0.00  0.00    -0.242 N 
ATOM      4  N   UNL     1       0.029  -6.288  -0.782  0.00  0.00    -0.162 NA
ATOM      5  C   UNL     1      -0.045  -5.049  -1.133  0.00  0.00    +0.180 C 
ATOM      6  H   UNL     1       0.233  -7.249   1.107  0.00  0.00    +0.170 HD
ENDROOT
BRANCH   1  11
ATOM      7  C   UNL     1      -0.141   1.470  -0.141  0.00  0.00    +0.044 C 
ATOM      8  C   UNL     1      -0.094  -0.036  -0.114  0.00  0.00    -0.050 A 
ATOM      9  C   UNL     1       1.067  -0.683   0.266  0.00  0.00    +0.005 A 
ATOM     10  C   UNL     1       1.114  -2.063   0.291  0.00  0.00    +0.024 A 
ATOM     11  C   UNL     1      -0.008  -2.801  -0.065  0.00  0.00    +0.038 A 
ATOM     12  C   UNL     1      -1.173  -2.148  -0.445  0.00  0.00    +0.024 A 
ATOM     13  C   UNL     1      -1.214  -0.767  -0.464  0.00  0.00    +0.005 A 
ENDBRANCH   1  11
BRANCH   2  14
ATOM     14  C   UNL     1      -0.991  -4.845   2.086  0.00  0.00    -0.008 A 
ATOM     15  C   UNL     1      -2.272  -5.171   1.679  0.00  0.00    +0.011 A 
ATOM     16  C   UNL     1      -3.339  -4.981   2.535  0.00  0.00    +0.046 A 
ATOM     17  C   UNL     1      -3.126  -4.463   3.804  0.00  0.00    +0.120 A 
ATOM     18  C   UNL     1      -1.840  -4.137   4.210  0.00  0.00    +0.046 A 
ATOM     19  C   UNL     1      -0.775  -4.334   3.352  0.00  0.00    +0.011 A 
BRANCH  17  20
ATOM     20  O   UNL     1      -4.174  -4.274   4.648  0.00  0.00    -0.495 OA
ATOM     21  C   UNL     1      -3.880  -3.737   5.939  0.00  0.00    +0.277 C 
ENDBRANCH  17  20
ENDBRANCH   2  14
BRANCH   5  22
ATOM     22  S   UNL     1      -0.224  -4.503  -2.799  0.00  0.00    -0.079 S 
BRANCH  22  23
ATOM     23  C   UNL     1      -0.272  -6.040  -3.761  0.00  0.00    +0.174 C 
BRANCH  23  24
ATOM     24  C   UNL     1      -0.425  -5.713  -5.224  0.00  0.00    +0.242 C 
ATOM     25  O   UNL     1      -0.494  -4.556  -5.582  0.00  0.00    -0.273 OA
ATOM     26  N   UNL     1      -0.484  -6.705  -6.134  0.00  0.00    -0.206 N 
ATOM     27  H   UNL     1      -0.429  -7.630  -5.848  0.00  0.00    +0.177 HD
BRANCH  26  28
ATOM     28  N   UNL     1      -0.626  -6.400  -7.495  0.00  0.00    -0.188 NA
ATOM     29  C   UNL     1      -0.684  -7.363  -8.379  0.00  0.00    +0.136 C 
BRANCH  29  30
ATOM     30  C   UNL     1      -0.826  -7.058  -9.740  0.00  0.00    +0.000 C 
ATOM     31  C   UNL     1      -0.908  -7.957 -10.800  0.00  0.00    +0.004 A 
ATOM     32  C   UNL     1      -0.879  -9.368 -10.860  0.00  0.00    +0.010 A 
ATOM     33  C   UNL     1      -0.982  -9.994 -12.060  0.00  0.00    +0.001 A 
ATOM     34  C   UNL     1      -1.117  -9.275 -13.251  0.00  0.00    +0.002 A 
ATOM     35  C   UNL     1      -1.152  -7.921 -13.270  0.00  0.00    +0.026 A 
ATOM     36  C   UNL     1      -1.050  -7.195 -12.053  0.00  0.00    +0.043 A 
ATOM     37  N   UNL     1      -1.058  -5.902 -11.807  0.00  0.00    -0.380 N 
ATOM     38  C   UNL     1      -0.927  -5.684 -10.363  0.00  0.00    +0.150 C 
ATOM     39  H   UNL     1      -1.140  -5.204 -12.476  0.00  0.00    +0.160 HD
ENDBRANCH  29  30
ENDBRANCH  26  28
ENDBRANCH  23  24
ENDBRANCH  22  23
ENDBRANCH   5  22
TORSDOF 8
