REMARK  Name = ZINC04914167
REMARK  8 active torsions:
REMARK  status: ('A' for Active; 'I' for Inactive)
REMARK    1  A    between atoms: C_1  and  C_2
REMARK    2  A    between atoms: C_7  and  N_8
REMARK    3  A    between atoms: N_8  and  S_9
REMARK    4  A    between atoms: S_9  and  C_12
REMARK    5  A    between atoms: C_15  and  C_18
REMARK    6  A    between atoms: C_18  and  C_19
REMARK    7  A    between atoms: C_18  and  C_20
REMARK    8  A    between atoms: C_18  and  C_21
REMARK                            x       y       z     vdW  Elec       q    Type
REMARK                         _______ _______ _______ _____ _____    ______ ____
ROOT
ATOM      1  N   UNL     1       0.487  -4.193  -0.027  0.00  0.00    -0.216 N 
ATOM      2  H   UNL     1      -0.147  -4.749  -0.506  0.00  0.00    +0.174 HD
ENDROOT
BRANCH   1   9
ATOM      3  C   UNL     1      -2.148  -3.128   0.004  0.00  0.00    +0.046 C 
ATOM      4  C   UNL     1      -0.935  -2.233  -0.002  0.00  0.00    -0.025 A 
ATOM      5  C   UNL     1      -1.103  -0.869   0.007  0.00  0.00    +0.052 A 
ATOM      6  C   UNL     1       0.002  -0.004   0.002  0.00  0.00    +0.147 A 
ATOM      7  C   UNL     1       1.268  -0.607  -0.013  0.00  0.00    +0.063 A 
ATOM      8  C   UNL     1       1.445  -1.968  -0.023  0.00  0.00    +0.043 A 
ATOM      9  C   UNL     1       0.333  -2.803  -0.018  0.00  0.00    +0.052 A 
ATOM     10  S   UNL     1       2.370   0.787  -0.016  0.00  0.00    -0.004 S 
ATOM     11  C   UNL     1       1.121   2.065   0.002  0.00  0.00    +0.379 A 
ATOM     12  O   UNL     1       1.261   3.273   0.007  0.00  0.00    -0.237 OA
ATOM     13  O   UNL     1      -0.016   1.345   0.009  0.00  0.00    -0.417 OA
ENDBRANCH   1   9
BRANCH   1  14
ATOM     14  S   UNL     1       1.755  -4.891   0.779  0.00  0.00    +0.072 S 
ATOM     15  O   UNL     1       1.623  -6.295   0.606  0.00  0.00    -0.150 OA
ATOM     16  O   UNL     1       2.923  -4.182   0.391  0.00  0.00    -0.150 OA
BRANCH  14  17
ATOM     17  C   UNL     1       1.519  -4.571   2.496  0.00  0.00    +0.109 A 
ATOM     18  C   UNL     1       2.057  -3.432   3.067  0.00  0.00    +0.029 A 
ATOM     19  C   UNL     1       1.869  -3.179   4.413  0.00  0.00    +0.006 A 
ATOM     20  C   UNL     1       1.151  -4.069   5.190  0.00  0.00    -0.042 A 
ATOM     21  C   UNL     1       0.617  -5.210   4.620  0.00  0.00    +0.006 A 
ATOM     22  C   UNL     1       0.802  -5.461   3.273  0.00  0.00    +0.029 A 
BRANCH  20  23
ATOM     23  C   UNL     1       0.950  -3.795   6.658  0.00  0.00    -0.013 C 
ATOM     24  C   UNL     1       1.556  -4.936   7.477  0.00  0.00    +0.015 C 
ATOM     25  C   UNL     1       1.635  -2.479   7.030  0.00  0.00    +0.015 C 
ATOM     26  C   UNL     1      -0.547  -3.693   6.957  0.00  0.00    +0.015 C 
ENDBRANCH  20  23
ENDBRANCH  14  17
ENDBRANCH   1  14
TORSDOF 4
