REMARK  Name = ZINC39628132
REMARK  10 active torsions:
REMARK  status: ('A' for Active; 'I' for Inactive)
REMARK    1  A    between atoms: C_1  and  C_2
REMARK    2  A    between atoms: C_2  and  C_3
REMARK    3  A    between atoms: C_3  and  C_4
REMARK    4  A    between atoms: C_4  and  C_5
REMARK    5  A    between atoms: C_5  and  C_7
REMARK    6  A    between atoms: C_5  and  C_8
REMARK    7  A    between atoms: C_12  and  C_21
REMARK    8  A    between atoms: N_23  and  C_24
REMARK    9  A    between atoms: C_24  and  C_25
REMARK   10  A    between atoms: C_25  and  N_26
REMARK                            x       y       z     vdW  Elec       q    Type
REMARK                         _______ _______ _______ _____ _____    ______ ____
ROOT
ATOM      1  C   UNL     1      -2.990  -4.337   0.306  0.00  0.00    +0.218 C 
ATOM      2  O   UNL     1      -1.996  -4.999   0.522  0.00  0.00    -0.275 OA
ATOM      3  N   UNL     1      -4.179  -4.946   0.126  0.00  0.00    -0.300 N 
ATOM      4  C   UNL     1      -5.469  -4.323  -0.253  0.00  0.00    +0.121 C 
ATOM      5  C   UNL     1      -6.114  -5.326  -1.235  0.00  0.00    +0.100 C 
ATOM      6  C   UNL     1      -5.469  -6.680  -0.892  0.00  0.00    -0.004 C 
ATOM      7  C   UNL     1      -4.490  -6.389   0.254  0.00  0.00    +0.115 C 
ATOM      8  C   UNL     1      -6.535  -7.673  -0.439  0.00  0.00    -0.010 C 
ATOM      9  C   UNL     1      -5.878  -9.027  -0.159  0.00  0.00    -0.082 C 
ATOM     10  N   UNL     1      -5.216  -9.512  -1.376  0.00  0.00    +0.379 N 
ATOM     11  C   UNL     1      -4.130  -8.599  -1.752  0.00  0.00    -0.082 C 
ATOM     12  C   UNL     1      -4.713  -7.226  -2.099  0.00  0.00    -0.010 C 
ATOM     13  H   UNL     1      -4.836 -10.432  -1.207  0.00  0.00    -0.086 HD
ATOM     14  H   UNL     1      -5.888  -9.562  -2.127  0.00  0.00    -0.086 HD
ENDROOT
BRANCH   5  15
ATOM     15  C   UNL     1      -7.605  -5.383  -1.024  0.00  0.00    +0.218 C 
ATOM     16  O   UNL     1      -8.071  -5.159   0.073  0.00  0.00    -0.275 OA
ATOM     17  N   UNL     1      -8.420  -5.684  -2.054  0.00  0.00    -0.317 N 
ATOM     18  H   UNL     1      -8.047  -5.864  -2.931  0.00  0.00    +0.149 HD
BRANCH  17  19
ATOM     19  C   UNL     1      -9.870  -5.740  -1.848  0.00  0.00    +0.085 C 
BRANCH  19  20
ATOM     20  C   UNL     1     -10.558  -6.099  -3.166  0.00  0.00    -0.060 C 
BRANCH  20  21
ATOM     21  N   UNL     1     -12.012  -6.155  -2.960  0.00  0.00    +0.381 N 
ATOM     22  C   UNL     1     -12.332  -7.248  -2.035  0.00  0.00    -0.079 C 
ATOM     23  C   UNL     1     -13.835  -7.260  -1.753  0.00  0.00    -0.019 C 
ATOM     24  C   UNL     1     -14.594  -7.464  -3.068  0.00  0.00    -0.004 C 
ATOM     25  C   UNL     1     -14.196  -6.360  -4.052  0.00  0.00    -0.019 C 
ATOM     26  C   UNL     1     -12.679  -6.381  -4.248  0.00  0.00    -0.079 C 
ATOM     27  H   UNL     1     -12.328  -5.281  -2.568  0.00  0.00    -0.082 HD
ENDBRANCH  20  21
ENDBRANCH  19  20
ENDBRANCH  17  19
ENDBRANCH   5  15
BRANCH   1  28
ATOM     28  C   UNL     1      -2.894  -2.835   0.241  0.00  0.00    +0.072 C 
ATOM     29  C   UNL     1      -2.586  -2.405  -1.195  0.00  0.00    +0.017 C 
BRANCH  28  30
ATOM     30  C   UNL     1      -1.776  -2.354   1.168  0.00  0.00    +0.012 C 
BRANCH  30  31
ATOM     31  C   UNL     1      -1.760  -0.825   1.197  0.00  0.00    +0.000 C 
BRANCH  31  33
ATOM     32  C   UNL     1      -0.626   1.186   2.154  0.00  0.00    +0.004 C 
ATOM     33  C   UNL     1      -0.641  -0.344   2.124  0.00  0.00    -0.003 C 
ENDBRANCH  31  33
ENDBRANCH  30  31
ENDBRANCH  28  30
ENDBRANCH   1  28
TORSDOF 8
