REMARK  Name = ZINC13500563
REMARK  18 active torsions:
REMARK  status: ('A' for Active; 'I' for Inactive)
REMARK    1  A    between atoms: C_1  and  C_2
REMARK    2  A    between atoms: C_2  and  C_3
REMARK    3  A    between atoms: C_3  and  C_4
REMARK    4  A    between atoms: C_3  and  C_5
REMARK    5  A    between atoms: C_3  and  N_6
REMARK    6  A    between atoms: C_7  and  C_11
REMARK    7  A    between atoms: C_11  and  C_13
REMARK    8  A    between atoms: C_11  and  N_71
REMARK    9  A    between atoms: C_13  and  C_14
REMARK   10  A    between atoms: C_13  and  C_15
REMARK   11  A    between atoms: C_16  and  C_17
REMARK   12  A    between atoms: C_16  and  N_71
REMARK   13  A    between atoms: C_17  and  C_18
REMARK   14  A    between atoms: C_18  and  O_19
REMARK   15  A    between atoms: C_20  and  C_21
REMARK   16  A    between atoms: C_20  and  N_71
REMARK   17  A    between atoms: C_25  and  C_34
REMARK   18  A    between atoms: C_27  and  C_33
REMARK                            x       y       z     vdW  Elec       q    Type
REMARK                         _______ _______ _______ _____ _____    ______ ____
ROOT
ATOM      1  N   UNL     1      -2.202  -1.464   1.145  0.00  0.00    +0.389 N 
ATOM      2  H   UNL     1      -2.066  -0.592   1.669  0.00  0.00    -0.080 HD
ENDROOT
BRANCH   1   3
ATOM      3  C   UNL     1      -3.650  -1.743   1.044  0.00  0.00    +0.006 C 
BRANCH   3   5
ATOM      4  N   UNL     1      -4.637  -3.674  -0.298  0.00  0.00    -0.225 N 
ATOM      5  C   UNL     1      -3.950  -2.519  -0.212  0.00  0.00    +0.139 A 
ATOM      6  N   UNL     1      -3.597  -2.199  -1.433  0.00  0.00    -0.115 NA
ATOM      7  N   UNL     1      -4.037  -3.113  -2.227  0.00  0.00    -0.023 NA
ATOM      8  N   UNL     1      -4.669  -4.004  -1.545  0.00  0.00    -0.043 NA
BRANCH   4   9
ATOM      9  C   UNL     1      -5.236  -4.415   0.814  0.00  0.00    +0.061 C 
ATOM     10  C   UNL     1      -4.130  -4.930   1.738  0.00  0.00    +0.036 C 
ATOM     11  C   UNL     1      -6.168  -3.491   1.600  0.00  0.00    +0.036 C 
BRANCH   9  13
ATOM     12  C   UNL     1      -6.661  -6.374   1.427  0.00  0.00    +0.006 C 
ATOM     13  C   UNL     1      -6.035  -5.599   0.266  0.00  0.00    +0.026 C 
ENDBRANCH   9  13
ENDBRANCH   4   9
ENDBRANCH   3   5
BRANCH   3  14
ATOM     14  C   UNL     1      -4.402  -0.411   1.012  0.00  0.00    -0.024 C 
ATOM     15  C   UNL     1      -4.125   0.363   2.303  0.00  0.00    +0.006 C 
ATOM     16  C   UNL     1      -3.929   0.413  -0.188  0.00  0.00    +0.006 C 
ENDBRANCH   3  14
ENDBRANCH   1   3
BRANCH   1  17
ATOM     17  C   UNL     1      -1.524  -2.566   1.860  0.00  0.00    -0.075 C 
BRANCH  17  18
ATOM     18  C   UNL     1      -1.865  -2.469   3.348  0.00  0.00    +0.009 C 
BRANCH  18  19
ATOM     19  C   UNL     1      -1.056  -3.509   4.125  0.00  0.00    +0.154 C 
BRANCH  19  20
ATOM     20  O   UNL     1      -1.375  -3.419   5.515  0.00  0.00    -0.395 OA
ATOM     21  H   UNL     1      -0.896  -4.051   6.070  0.00  0.00    +0.209 HD
ENDBRANCH  19  20
ENDBRANCH  18  19
ENDBRANCH  17  18
ENDBRANCH   1  17
BRANCH   1  22
ATOM     22  C   UNL     1      -1.624  -1.306  -0.206  0.00  0.00    -0.037 C 
BRANCH  22  23
ATOM     23  C   UNL     1      -0.217  -0.783  -0.074  0.00  0.00    +0.001 A 
ATOM     24  C   UNL     1       0.834  -1.633  -0.192  0.00  0.00    +0.017 A 
ATOM     25  C   UNL     1       2.188  -1.093  -0.058  0.00  0.00    -0.001 A 
ATOM     26  C   UNL     1       3.311  -1.920  -0.170  0.00  0.00    +0.013 A 
ATOM     27  C   UNL     1       4.561  -1.385  -0.041  0.00  0.00    -0.050 A 
ATOM     28  C   UNL     1       4.728  -0.029   0.202  0.00  0.00    +0.008 A 
ATOM     29  C   UNL     1       3.636   0.805   0.317  0.00  0.00    -0.026 A 
ATOM     30  C   UNL     1       2.353   0.283   0.188  0.00  0.00    +0.052 A 
ATOM     31  N   UNL     1       1.243   1.093   0.298  0.00  0.00    -0.322 N 
ATOM     32  H   UNL     1       1.359   2.042   0.467  0.00  0.00    +0.169 HD
ATOM     33  C   UNL     1       0.003   0.589   0.173  0.00  0.00    +0.251 A 
ATOM     34  O   UNL     1      -0.955   1.336   0.271  0.00  0.00    -0.268 OA
ATOM     35  C   UNL     1       3.832   2.276   0.579  0.00  0.00    +0.046 C 
ATOM     36  C   UNL     1       5.771  -2.276  -0.161  0.00  0.00    +0.044 C 
ENDBRANCH  22  23
ENDBRANCH   1  22
TORSDOF 11
