REMARK  Name = ZINC63270935
REMARK  8 active torsions:
REMARK  status: ('A' for Active; 'I' for Inactive)
REMARK    1  A    between atoms: C_7  and  C_10
REMARK    2  A    between atoms: C_10  and  C_11
REMARK    3  A    between atoms: C_11  and  N_12
REMARK    4  A    between atoms: C_13  and  C_15
REMARK    5  A    between atoms: C_15  and  C_16
REMARK    6  A    between atoms: C_16  and  N_17
REMARK    7  A    between atoms: C_18  and  C_20
REMARK    8  A    between atoms: C_20  and  N_21
REMARK                            x       y       z     vdW  Elec       q    Type
REMARK                         _______ _______ _______ _____ _____    ______ ____
ROOT
ATOM      1  C   UNL     1      -1.986  -7.025  -4.059  0.00  0.00    +0.113 C 
ENDROOT
BRANCH   1   2
ATOM      2  N   UNL     1      -2.901  -8.169  -4.058  0.00  0.00    -0.314 N 
ATOM      3  C   UNL     1      -3.253  -8.752  -5.221  0.00  0.00    +0.230 C 
ATOM      4  O   UNL     1      -2.813  -8.329  -6.269  0.00  0.00    -0.274 OA
ATOM      5  H   UNL     1      -3.252  -8.508  -3.220  0.00  0.00    +0.149 HD
BRANCH   3   6
ATOM      6  C   UNL     1      -4.194  -9.929  -5.219  0.00  0.00    +0.205 C 
BRANCH   6   7
ATOM      7  N   UNL     1      -4.418 -10.377  -6.596  0.00  0.00    -0.273 N 
ATOM      8  C   UNL     1      -5.517  -9.799  -7.370  0.00  0.00    +0.214 C 
ATOM      9  N   UNL     1      -5.157  -9.729  -8.791  0.00  0.00    -0.328 N 
ATOM     10  C   UNL     1      -4.520 -10.818  -9.375  0.00  0.00    +0.040 A 
ATOM     11  C   UNL     1      -4.662 -11.108 -10.722  0.00  0.00    +0.024 A 
ATOM     12  C   UNL     1      -4.000 -12.195 -11.260  0.00  0.00    +0.002 A 
ATOM     13  C   UNL     1      -3.196 -12.996 -10.464  0.00  0.00    +0.001 A 
ATOM     14  C   UNL     1      -3.048 -12.723  -9.120  0.00  0.00    +0.015 A 
ATOM     15  C   UNL     1      -3.714 -11.633  -8.562  0.00  0.00    +0.058 A 
ATOM     16  C   UNL     1      -3.605 -11.311  -7.129  0.00  0.00    +0.250 C 
ATOM     17  O   UNL     1      -2.790 -11.885  -6.433  0.00  0.00    -0.270 OA
ATOM     18  H   UNL     1      -5.360  -8.937  -9.313  0.00  0.00    +0.148 HD
ENDBRANCH   6   7
ENDBRANCH   3   6
ENDBRANCH   1   2
BRANCH   1  19
ATOM     19  C   UNL     1      -1.752  -6.557  -2.622  0.00  0.00    +0.114 C 
BRANCH  19  21
ATOM     20  N   UNL     1      -0.458  -4.798  -1.460  0.00  0.00    -0.315 N 
ATOM     21  C   UNL     1      -0.811  -5.380  -2.623  0.00  0.00    +0.215 C 
ATOM     22  O   UNL     1      -0.371  -4.957  -3.671  0.00  0.00    -0.276 OA
ATOM     23  H   UNL     1      -0.810  -5.136  -0.622  0.00  0.00    +0.149 HD
BRANCH  20  24
ATOM     24  C   UNL     1       0.457  -3.653  -1.462  0.00  0.00    +0.108 C 
BRANCH  24  25
ATOM     25  C   UNL     1       0.691  -3.186  -0.024  0.00  0.00    +0.052 C 
BRANCH  25  32
ATOM     26  C   UNL     1      -0.016   1.348   0.009  0.00  0.00    +0.001 A 
ATOM     27  C   UNL     1       1.166   2.101   0.002  0.00  0.00    +0.002 A 
ATOM     28  C   UNL     1       2.391   1.535  -0.013  0.00  0.00    +0.026 A 
ATOM     29  C   UNL     1       2.529   0.120  -0.022  0.00  0.00    +0.043 A 
ATOM     30  N   UNL     1       3.587  -0.654  -0.037  0.00  0.00    -0.380 N 
ATOM     31  C   UNL     1       3.143  -2.053  -0.041  0.00  0.00    +0.144 C 
ATOM     32  C   UNL     1       1.631  -2.008  -0.025  0.00  0.00    -0.040 C 
ATOM     33  C   UNL     1       1.295  -0.698  -0.014  0.00  0.00    -0.001 A 
ATOM     34  C   UNL     1       0.002  -0.004   0.002  0.00  0.00    +0.010 A 
ATOM     35  H   UNL     1       4.509  -0.353  -0.045  0.00  0.00    +0.160 HD
ENDBRANCH  25  32
ENDBRANCH  24  25
ENDBRANCH  20  24
ENDBRANCH  19  21
ENDBRANCH   1  19
TORSDOF 8
