REMARK  Name = ZINC02995018
REMARK  3 active torsions:
REMARK  status: ('A' for Active; 'I' for Inactive)
REMARK    1  A    between atoms: C_1  and  C_2
REMARK    2  A    between atoms: C_5  and  N_9
REMARK    3  A    between atoms: C_13  and  C_14
REMARK                            x       y       z     vdW  Elec       q    Type
REMARK                         _______ _______ _______ _____ _____    ______ ____
ROOT
ATOM      1  N   UNL     1      -5.902   2.686  -0.225  0.00  0.00    -0.184 N 
ATOM      2  C   UNL     1      -5.057   3.731  -0.147  0.00  0.00    +0.272 C 
ATOM      3  O   UNL     1      -5.359   4.909  -0.158  0.00  0.00    -0.268 OA
ATOM      4  C   UNL     1      -3.694   3.173  -0.050  0.00  0.00    +0.102 C 
ATOM      5  C   UNL     1      -2.508   3.868   0.046  0.00  0.00    +0.027 C 
ATOM      6  C   UNL     1      -3.877   1.708  -0.072  0.00  0.00    +0.266 C 
ATOM      7  O   UNL     1      -3.000   0.867  -0.008  0.00  0.00    -0.268 OA
ATOM      8  N   UNL     1      -5.200   1.482  -0.177  0.00  0.00    -0.223 N 
ATOM      9  H   UNL     1      -5.608   0.603  -0.213  0.00  0.00    +0.174 HD
ENDROOT
BRANCH   1  14
ATOM     10  C   UNL     1     -11.542   3.116  -0.665  0.00  0.00    +0.045 C 
ATOM     11  C   UNL     1     -10.044   3.002  -0.549  0.00  0.00    -0.032 A 
ATOM     12  C   UNL     1      -9.448   1.755  -0.509  0.00  0.00    +0.006 A 
ATOM     13  C   UNL     1      -8.075   1.647  -0.401  0.00  0.00    +0.025 A 
ATOM     14  C   UNL     1      -7.292   2.792  -0.334  0.00  0.00    +0.058 A 
ATOM     15  C   UNL     1      -7.893   4.044  -0.369  0.00  0.00    +0.045 A 
ATOM     16  C   UNL     1      -9.267   4.146  -0.482  0.00  0.00    +0.046 A 
ATOM     17 CL   UNL     1     -10.020   5.709  -0.532  0.00  0.00    -0.083 Cl
ENDBRANCH   1  14
BRANCH   5  18
ATOM     18  C   UNL     1      -1.232   3.153  -0.024  0.00  0.00    -0.006 A 
ATOM     19  C   UNL     1      -1.056   2.113  -0.948  0.00  0.00    +0.011 A 
ATOM     20  C   UNL     1       0.145   1.443  -1.004  0.00  0.00    +0.020 A 
ATOM     21  C   UNL     1       1.184   1.800  -0.158  0.00  0.00    +0.042 A 
ATOM     22  C   UNL     1       1.022   2.829   0.755  0.00  0.00    +0.040 A 
ATOM     23  C   UNL     1      -0.176   3.508   0.829  0.00  0.00    +0.049 A 
ATOM     24 CL   UNL     1      -0.377   4.798   1.973  0.00  0.00    -0.083 Cl
ATOM     25 CL   UNL     1       2.696   0.951  -0.242  0.00  0.00    -0.083 Cl
ENDBRANCH   5  18
TORSDOF 2
