REMARK  Name = ZINC22188222
REMARK  10 active torsions:
REMARK  status: ('A' for Active; 'I' for Inactive)
REMARK    1  A    between atoms: C_1  and  C_2
REMARK    2  A    between atoms: C_3  and  C_32
REMARK    3  A    between atoms: N_4  and  C_25
REMARK    4  A    between atoms: C_5  and  N_9
REMARK    5  A    between atoms: C_6  and  C_7
REMARK    6  A    between atoms: C_10  and  C_12
REMARK    7  A    between atoms: C_12  and  S_13
REMARK    8  A    between atoms: S_13  and  C_14
REMARK    9  A    between atoms: C_17  and  C_20
REMARK   10  A    between atoms: N_18  and  C_19
REMARK                            x       y       z     vdW  Elec       q    Type
REMARK                         _______ _______ _______ _____ _____    ______ ____
ROOT
ATOM      1  N   UNL     1       3.387  11.976  -0.076  0.00  0.00    -0.270 N 
ATOM      2  C   UNL     1       2.914  11.217   0.932  0.00  0.00    +0.229 C 
ATOM      3  O   UNL     1       3.299  11.407   2.067  0.00  0.00    -0.275 OA
ATOM      4  H   UNL     1       3.103  11.750  -1.115  0.00  0.00    +0.156 HD
ENDROOT
BRANCH   1   9
ATOM      5  C   UNL     1       5.265  16.623   0.572  0.00  0.00    +0.047 C 
ATOM      6  C   UNL     1       5.111  15.126   0.497  0.00  0.00    -0.010 A 
ATOM      7  C   UNL     1       6.057  14.209   0.759  0.00  0.00    +0.027 A 
ATOM      8  N   UNL     1       5.534  12.955   0.579  0.00  0.00    -0.300 N 
ATOM      9  C   UNL     1       4.231  13.042   0.195  0.00  0.00    +0.128 A 
ATOM     10  C   UNL     1       3.900  14.388   0.118  0.00  0.00    +0.095 A 
ATOM     11  C   UNL     1       7.471  14.511   1.183  0.00  0.00    +0.064 C 
BRANCH   8  12
ATOM     12  C   UNL     1       6.238  11.756   0.764  0.00  0.00    +0.048 A 
ATOM     13  C   UNL     1       6.656  11.385   2.035  0.00  0.00    +0.029 A 
ATOM     14  C   UNL     1       7.346  10.202   2.216  0.00  0.00    +0.040 A 
ATOM     15  C   UNL     1       7.629   9.391   1.130  0.00  0.00    +0.124 A 
ATOM     16  C   UNL     1       7.217   9.762  -0.139  0.00  0.00    +0.040 A 
ATOM     17  C   UNL     1       6.523  10.942  -0.324  0.00  0.00    +0.029 A 
ATOM     18  F   UNL     1       8.308   8.238   1.308  0.00  0.00    -0.205 F 
ENDBRANCH   8  12
BRANCH  10  19
ATOM     19  C   UNL     1       2.633  14.943  -0.253  0.00  0.00    +0.103 C 
ATOM     20  N   UNL     1       1.628  15.384  -0.547  0.00  0.00    -0.191 NA
ENDBRANCH  10  19
ENDBRANCH   1   9
BRANCH   2  21
ATOM     21  C   UNL     1       1.905  10.134   0.651  0.00  0.00    +0.173 C 
BRANCH  21  22
ATOM     22  S   UNL     1       1.469   9.299   2.196  0.00  0.00    -0.077 S 
BRANCH  22  23
ATOM     23  C   UNL     1       0.312   8.117   1.590  0.00  0.00    +0.192 A 
ATOM     24  N   UNL     1      -0.063   7.964   0.340  0.00  0.00    -0.122 NA
ATOM     25  N   UNL     1      -0.916   7.007   0.248  0.00  0.00    -0.128 NA
ATOM     26  C   UNL     1      -1.145   6.494   1.436  0.00  0.00    +0.171 A 
ATOM     27  N   UNL     1      -0.363   7.188   2.333  0.00  0.00    -0.305 N 
ATOM     28  C   UNL     1      -0.272   6.974   3.779  0.00  0.00    +0.153 C 
BRANCH  26  29
ATOM     29  C   UNL     1      -2.060   5.384   1.749  0.00  0.00    +0.056 A 
ATOM     30  C   UNL     1      -3.057   4.842   0.978  0.00  0.00    +0.019 A 
ATOM     31  C   UNL     1      -3.788   3.792   1.486  0.00  0.00    +0.008 A 
ATOM     32  C   UNL     1      -3.510   3.333   2.733  0.00  0.00    +0.046 A 
ATOM     33  S   UNL     1      -2.162   4.393   3.231  0.00  0.00    -0.094 S 
ENDBRANCH  26  29
ENDBRANCH  22  23
ENDBRANCH  21  22
ENDBRANCH   2  21
TORSDOF 7
