REMARK  Name = ZINC38784380
REMARK  6 active torsions:
REMARK  status: ('A' for Active; 'I' for Inactive)
REMARK    1  A    between atoms: C_4  and  C_7
REMARK    2  A    between atoms: C_7  and  N_8
REMARK    3  A    between atoms: C_9  and  N_17
REMARK    4  A    between atoms: C_18  and  C_20
REMARK    5  A    between atoms: C_20  and  S_21
REMARK    6  A    between atoms: S_21  and  C_22
REMARK                            x       y       z     vdW  Elec       q    Type
REMARK                         _______ _______ _______ _____ _____    ______ ____
ROOT
ATOM      1  N   UNL     1       6.396  -0.333   1.885  0.00  0.00    -0.296 N 
ATOM      2  C   UNL     1       7.193   0.334   1.028  0.00  0.00    +0.225 C 
ATOM      3  O   UNL     1       6.744   1.244   0.365  0.00  0.00    -0.275 OA
ATOM      4  H   UNL     1       6.756  -1.062   2.416  0.00  0.00    +0.151 HD
ENDROOT
BRANCH   1   6
ATOM      5  N   UNL     1       4.152  -0.952   1.338  0.00  0.00    -0.262 N 
ATOM      6  C   UNL     1       4.986   0.041   2.017  0.00  0.00    +0.174 C 
ATOM      7  C   UNL     1       4.609   0.098   3.499  0.00  0.00    +0.138 C 
ATOM      8  C   UNL     1       4.516  -1.306   4.041  0.00  0.00    +0.224 C 
ATOM      9  O   UNL     1       4.843  -1.538   5.185  0.00  0.00    -0.275 OA
ATOM     10  N   UNL     1       4.069  -2.302   3.254  0.00  0.00    -0.240 N 
ATOM     11  C   UNL     1       3.780  -2.083   1.960  0.00  0.00    +0.310 C 
ATOM     12  O   UNL     1       3.172  -2.931   1.337  0.00  0.00    -0.252 OA
ATOM     13  H   UNL     1       3.950  -3.189   3.627  0.00  0.00    +0.159 HD
BRANCH   5  14
ATOM     14  C   UNL     1       3.711  -0.707  -0.038  0.00  0.00    +0.146 C 
BRANCH  14  18
ATOM     15  C   UNL     1      -0.017   1.378   0.010  0.00  0.00    +0.000 A 
ATOM     16  C   UNL     1       1.171   2.086   0.002  0.00  0.00    +0.000 A 
ATOM     17  C   UNL     1       2.377   1.411  -0.013  0.00  0.00    +0.005 A 
ATOM     18  C   UNL     1       2.396   0.029  -0.020  0.00  0.00    -0.030 A 
ATOM     19  C   UNL     1       1.208  -0.679  -0.012  0.00  0.00    +0.005 A 
ATOM     20  C   UNL     1       0.002  -0.004   0.002  0.00  0.00    +0.000 A 
ENDBRANCH  14  18
ENDBRANCH   5  14
ENDBRANCH   1   6
BRANCH   2  21
ATOM     21  C   UNL     1       8.644  -0.051   0.893  0.00  0.00    +0.173 C 
BRANCH  21  22
ATOM     22  S   UNL     1       9.444   1.024  -0.330  0.00  0.00    -0.075 S 
BRANCH  22  23
ATOM     23  C   UNL     1      11.111   0.455  -0.372  0.00  0.00    +0.208 C 
ATOM     24  N   UNL     1      11.441  -0.548   0.405  0.00  0.00    -0.227 NA
ATOM     25  C   UNL     1      12.842  -0.963   0.422  0.00  0.00    +0.252 C 
ATOM     26  C   UNL     1      13.410  -0.610  -0.945  0.00  0.00    +0.117 C 
ATOM     27  C   UNL     1      14.053  -1.730  -1.375  0.00  0.00    +0.025 A 
ATOM     28  C   UNL     1      14.859  -1.989  -2.511  0.00  0.00    +0.012 A 
ATOM     29  C   UNL     1      15.348  -3.249  -2.658  0.00  0.00    +0.001 A 
ATOM     30  C   UNL     1      15.106  -4.295  -1.762  0.00  0.00    +0.002 A 
ATOM     31  C   UNL     1      14.355  -4.161  -0.637  0.00  0.00    +0.026 A 
ATOM     32  C   UNL     1      13.787  -2.825  -0.391  0.00  0.00    +0.046 A 
ATOM     33  N   UNL     1      13.057  -2.393   0.592  0.00  0.00    -0.358 N 
ATOM     34  N   UNL     1      13.119   0.553  -1.537  0.00  0.00    -0.147 NA
ATOM     35  N   UNL     1      11.977   1.075  -1.211  0.00  0.00    -0.122 NA
ATOM     36  H   UNL     1      12.712  -2.934   1.319  0.00  0.00    +0.162 HD
ENDBRANCH  22  23
ENDBRANCH  21  22
ENDBRANCH   2  21
TORSDOF 6
