REMARK  Name = ZINC15091334
REMARK  7 active torsions:
REMARK  status: ('A' for Active; 'I' for Inactive)
REMARK    1  A    between atoms: C_6  and  C_7
REMARK    2  A    between atoms: C_10  and  C_12
REMARK    3  A    between atoms: N_14  and  N_15
REMARK    4  A    between atoms: C_16  and  C_18
REMARK    5  A    between atoms: C_18  and  C_19
REMARK    6  A    between atoms: C_19  and  C_20
REMARK    7  A    between atoms: C_22  and  C_25
REMARK                            x       y       z     vdW  Elec       q    Type
REMARK                         _______ _______ _______ _____ _____    ______ ____
ROOT
ATOM      1  N   UNL     1       2.554   4.229   0.000  0.00  0.00    -0.234 N 
ATOM      2  C   UNL     1       1.397   3.539   0.008  0.00  0.00    +0.230 C 
ATOM      3  O   UNL     1       0.338   4.131   0.021  0.00  0.00    -0.274 OA
ATOM      4  H   UNL     1       3.401   3.755  -0.010  0.00  0.00    +0.173 HD
ENDROOT
BRANCH   1   7
ATOM      5  C   UNL     1       3.693   6.319   0.001  0.00  0.00    +0.267 C 
ATOM      6  O   UNL     1       4.756   5.725  -0.013  0.00  0.00    -0.268 OA
ATOM      7  N   UNL     1       2.535   5.630   0.008  0.00  0.00    -0.230 N 
ATOM      8  H   UNL     1       1.689   6.103   0.019  0.00  0.00    +0.173 HD
BRANCH   5  12
ATOM      9  C   UNL     1       3.160  10.434   0.029  0.00  0.00    +0.020 A 
ATOM     10  C   UNL     1       4.480  10.011   0.014  0.00  0.00    +0.017 A 
ATOM     11  C   UNL     1       4.741   8.670   0.009  0.00  0.00    +0.021 A 
ATOM     12  C   UNL     1       3.674   7.784   0.009  0.00  0.00    +0.076 A 
ATOM     13  S   UNL     1       2.270   8.887   0.029  0.00  0.00    -0.084 S 
BRANCH   9  19
ATOM     14  C   UNL     1       3.500  12.901   0.045  0.00  0.00    +0.012 A 
ATOM     15  C   UNL     1       2.997  14.185   0.052  0.00  0.00    +0.039 A 
ATOM     16  C   UNL     1       1.627  14.395   0.066  0.00  0.00    +0.123 A 
ATOM     17  C   UNL     1       0.755  13.317   0.068  0.00  0.00    +0.039 A 
ATOM     18  C   UNL     1       1.248  12.029   0.057  0.00  0.00    +0.012 A 
ATOM     19  C   UNL     1       2.627  11.812   0.042  0.00  0.00    -0.011 A 
ATOM     20  F   UNL     1       1.139  15.655   0.079  0.00  0.00    -0.205 F 
ENDBRANCH   9  19
ENDBRANCH   5  12
ENDBRANCH   1   7
BRANCH   2  21
ATOM     21  C   UNL     1       1.417   2.032  -0.001  0.00  0.00    +0.107 C 
BRANCH  21  22
ATOM     22  C   UNL     1      -0.018   1.503   0.010  0.00  0.00    +0.108 C 
BRANCH  22  23
ATOM     23  C   UNL     1       0.002  -0.004   0.002  0.00  0.00    +0.228 A 
ATOM     24  N   UNL     1       0.023  -0.787   1.051  0.00  0.00    -0.191 NA
ATOM     25  C   UNL     1       0.034  -2.049   0.563  0.00  0.00    +0.202 A 
ATOM     26  N   UNL     1       0.020  -1.957  -0.742  0.00  0.00    -0.056 NA
ATOM     27  O   UNL     1      -0.003  -0.792  -1.078  0.00  0.00    -0.338 OA
BRANCH  25  28
ATOM     28  C   UNL     1       0.059  -3.301   1.358  0.00  0.00    +0.023 A 
ATOM     29  C   UNL     1       0.079  -3.244   2.751  0.00  0.00    +0.014 A 
ATOM     30  C   UNL     1       0.097  -4.411   3.486  0.00  0.00    +0.039 A 
ATOM     31  C   UNL     1       0.107  -5.638   2.842  0.00  0.00    +0.123 A 
ATOM     32  C   UNL     1       0.093  -5.699   1.458  0.00  0.00    +0.039 A 
ATOM     33  C   UNL     1       0.069  -4.537   0.715  0.00  0.00    +0.014 A 
ATOM     34  F   UNL     1       0.130  -6.779   3.567  0.00  0.00    -0.205 F 
ENDBRANCH  25  28
ENDBRANCH  22  23
ENDBRANCH  21  22
ENDBRANCH   2  21
TORSDOF 7
