REMARK  Name = ZINC03519989
REMARK  6 active torsions:
REMARK  status: ('A' for Active; 'I' for Inactive)
REMARK    1  A    between atoms: C_7  and  C_11
REMARK    2  A    between atoms: C_14  and  S_16
REMARK    3  A    between atoms: S_16  and  C_17
REMARK    4  A    between atoms: C_17  and  C_18
REMARK    5  A    between atoms: N_20  and  C_21
REMARK    6  A    between atoms: C_21  and  C_22
REMARK                            x       y       z     vdW  Elec       q    Type
REMARK                         _______ _______ _______ _____ _____    ______ ____
ROOT
ATOM      1  C   UNL     1       0.685  -3.260  -0.022  0.00  0.00    +0.251 A 
ATOM      2  N   UNL     1      -0.626  -3.213  -0.015  0.00  0.00    -0.106 NA
ATOM      3  N   UNL     1      -1.097  -4.410  -0.015  0.00  0.00    -0.101 NA
ATOM      4  C   UNL     1      -0.106  -5.270  -0.024  0.00  0.00    +0.278 A 
ATOM      5  O   UNL     1       1.042  -4.564  -0.034  0.00  0.00    -0.411 OA
ENDROOT
BRANCH   1  12
ATOM      6  C   UNL     1      -0.017   1.363   0.009  0.00  0.00    +0.001 A 
ATOM      7  C   UNL     1       1.170   2.083   0.002  0.00  0.00    +0.002 A 
ATOM      8  C   UNL     1       2.385   1.434  -0.013  0.00  0.00    +0.026 A 
ATOM      9  C   UNL     1       2.425   0.043  -0.021  0.00  0.00    +0.047 A 
ATOM     10  C   UNL     1       1.221  -0.680  -0.013  0.00  0.00    +0.012 A 
ATOM     11  C   UNL     1       0.002  -0.004   0.002  0.00  0.00    +0.011 A 
ATOM     12  C   UNL     1       1.601  -2.103  -0.025  0.00  0.00    +0.063 A 
ATOM     13  C   UNL     1       2.959  -2.143  -0.039  0.00  0.00    +0.097 A 
ATOM     14  N   UNL     1       3.456  -0.872  -0.036  0.00  0.00    -0.360 N 
ATOM     15  H   UNL     1       4.399  -0.646  -0.044  0.00  0.00    +0.165 HD
ENDBRANCH   1  12
BRANCH   4  16
ATOM     16  S   UNL     1      -0.250  -7.026  -0.027  0.00  0.00    -0.056 S 
BRANCH  16  17
ATOM     17  C   UNL     1      -2.040  -7.320  -0.018  0.00  0.00    +0.174 C 
BRANCH  17  18
ATOM     18  C   UNL     1      -2.305  -8.803  -0.020  0.00  0.00    +0.223 C 
ATOM     19  O   UNL     1      -1.378  -9.585  -0.027  0.00  0.00    -0.275 OA
ATOM     20  N   UNL     1      -3.573  -9.261  -0.013  0.00  0.00    -0.314 N 
ATOM     21  H   UNL     1      -4.314  -8.636  -0.007  0.00  0.00    +0.149 HD
BRANCH  20  22
ATOM     22  C   UNL     1      -3.831 -10.703  -0.015  0.00  0.00    +0.107 C 
BRANCH  22  23
ATOM     23  C   UNL     1      -5.340 -10.951  -0.007  0.00  0.00    +0.006 C 
ATOM     24  C   UNL     1      -5.935 -10.436   1.305  0.00  0.00    +0.005 C 
ATOM     25  C   UNL     1      -7.445 -10.684   1.313  0.00  0.00    +0.000 C 
ATOM     26  C   UNL     1      -7.716 -12.184   1.185  0.00  0.00    +0.000 C 
ATOM     27  C   UNL     1      -7.121 -12.700  -0.127  0.00  0.00    +0.000 C 
ATOM     28  C   UNL     1      -5.612 -12.452  -0.135  0.00  0.00    +0.005 C 
ENDBRANCH  22  23
ENDBRANCH  20  22
ENDBRANCH  17  18
ENDBRANCH  16  17
ENDBRANCH   4  16
TORSDOF 6
