REMARK  Name = ZINC09831843
REMARK  9 active torsions:
REMARK  status: ('A' for Active; 'I' for Inactive)
REMARK    1  A    between atoms: C_1  and  C_2
REMARK    2  A    between atoms: C_2  and  C_3
REMARK    3  A    between atoms: N_5  and  C_30
REMARK    4  A    between atoms: C_9  and  S_11
REMARK    5  A    between atoms: S_11  and  C_12
REMARK    6  A    between atoms: C_12  and  C_14
REMARK    7  A    between atoms: C_12  and  C_15
REMARK    8  A    between atoms: N_17  and  C_18
REMARK    9  A    between atoms: C_23  and  C_24
REMARK                            x       y       z     vdW  Elec       q    Type
REMARK                         _______ _______ _______ _____ _____    ______ ____
ROOT
ATOM      1  C   UNL     1       4.466  -1.176  -0.030  0.00  0.00    +0.136 C 
ATOM      2  C   UNL     1       4.761  -0.452   1.285  0.00  0.00    +0.029 C 
ENDROOT
BRANCH   1   3
ATOM      3  C   UNL     1       5.372  -2.374  -0.157  0.00  0.00    +0.230 C 
ATOM      4  O   UNL     1       4.954  -3.481   0.111  0.00  0.00    -0.274 OA
ATOM      5  N   UNL     1       6.645  -2.216  -0.568  0.00  0.00    -0.284 N 
ATOM      6  H   UNL     1       6.997  -1.326  -0.727  0.00  0.00    +0.155 HD
BRANCH   5   7
ATOM      7  C   UNL     1       7.460  -3.335  -0.765  0.00  0.00    +0.041 A 
ATOM      8  C   UNL     1       7.205  -4.512  -0.076  0.00  0.00    +0.024 A 
ATOM      9  C   UNL     1       8.008  -5.618  -0.276  0.00  0.00    +0.002 A 
ATOM     10  C   UNL     1       9.076  -5.556  -1.155  0.00  0.00    +0.001 A 
ATOM     11  C   UNL     1       9.345  -4.390  -1.842  0.00  0.00    +0.010 A 
ATOM     12  C   UNL     1       8.539  -3.270  -1.653  0.00  0.00    +0.003 A 
BRANCH  12  13
ATOM     13  C   UNL     1       8.823  -2.015  -2.390  0.00  0.00    -0.016 A 
ATOM     14  C   UNL     1       7.804  -1.365  -3.085  0.00  0.00    +0.008 A 
ATOM     15  C   UNL     1       8.073  -0.195  -3.764  0.00  0.00    +0.001 A 
ATOM     16  C   UNL     1       9.354   0.328  -3.766  0.00  0.00    +0.000 A 
ATOM     17  C   UNL     1      10.370  -0.315  -3.082  0.00  0.00    +0.001 A 
ATOM     18  C   UNL     1      10.112  -1.483  -2.395  0.00  0.00    +0.008 A 
ENDBRANCH  12  13
ENDBRANCH   5   7
ENDBRANCH   1   3
BRANCH   1  19
ATOM     19  S   UNL     1       2.736  -1.721  -0.046  0.00  0.00    -0.084 S 
BRANCH  19  26
ATOM     20  C   UNL     1      -2.186   2.375  -0.165  0.00  0.00    +0.221 C 
ATOM     21  O   UNL     1      -2.443   1.194  -0.271  0.00  0.00    -0.275 OA
ATOM     22  N   UNL     1      -0.905   2.777  -0.042  0.00  0.00    -0.246 N 
ATOM     23  C   UNL     1       0.122   1.837  -0.037  0.00  0.00    +0.191 A 
ATOM     24  N   UNL     1       1.434   2.011  -0.027  0.00  0.00    -0.125 NA
ATOM     25  N   UNL     1       2.237   1.039  -0.028  0.00  0.00    -0.133 NA
ATOM     26  C   UNL     1       1.816  -0.218  -0.041  0.00  0.00    +0.161 A 
ATOM     27  S   UNL     1       0.046   0.048  -0.051  0.00  0.00    -0.024 S 
BRANCH  22  28
ATOM     28  C   UNL     1      -0.594   4.203   0.086  0.00  0.00    +0.084 C 
ATOM     29  C   UNL     1       0.882   4.603   0.133  0.00  0.00    +0.025 C 
ATOM     30  C   UNL     1       0.029   4.674   1.402  0.00  0.00    +0.025 C 
ENDBRANCH  22  28
BRANCH  20  32
ATOM     31  C   UNL     1      -4.642   2.677  -0.321  0.00  0.00    +0.013 C 
ATOM     32  C   UNL     1      -3.298   3.392  -0.170  0.00  0.00    +0.093 C 
ENDBRANCH  20  32
ENDBRANCH  19  26
ENDBRANCH   1  19
TORSDOF 7
