REMARK  Name = ZINC38705950
REMARK  19 active torsions:
REMARK  status: ('A' for Active; 'I' for Inactive)
REMARK    1  A    between atoms: C_1  and  C_2
REMARK    2  A    between atoms: C_2  and  C_3
REMARK    3  A    between atoms: C_3  and  C_4
REMARK    4  A    between atoms: C_4  and  C_5
REMARK    5  A    between atoms: C_5  and  N_6
REMARK    6  A    between atoms: C_7  and  C_26
REMARK    7  A    between atoms: C_10  and  C_17
REMARK    8  A    between atoms: C_18  and  C_25
REMARK    9  A    between atoms: C_20  and  C_24
REMARK   10  A    between atoms: C_22  and  O_23
REMARK   11  A    between atoms: C_29  and  O_35
REMARK   12  A    between atoms: C_30  and  O_32
REMARK   13  A    between atoms: O_32  and  C_33
REMARK   14  A    between atoms: C_33  and  C_34
REMARK   15  A    between atoms: O_35  and  C_36
REMARK   16  A    between atoms: C_36  and  C_37
REMARK   17  A    between atoms: C_37  and  C_38
REMARK   18  A    between atoms: C_38  and  C_39
REMARK   19  A    between atoms: C_38  and  C_40
REMARK                            x       y       z     vdW  Elec       q    Type
REMARK                         _______ _______ _______ _____ _____    ______ ____
ROOT
ATOM      1  N   UNL     1       1.481  -3.897  -2.019  0.00  0.00    -0.285 N 
ATOM      2  C   UNL     1       2.327  -4.988  -1.517  0.00  0.00    +0.141 C 
ATOM      3  C   UNL     1       1.742  -6.258  -2.071  0.00  0.00    +0.035 A 
ATOM      4  C   UNL     1       1.819  -7.652  -2.159  0.00  0.00    +0.102 A 
ATOM      5  N   UNL     1       0.822  -8.055  -2.922  0.00  0.00    -0.173 NA
ATOM      6  N   UNL     1       0.123  -7.054  -3.325  0.00  0.00    -0.272 N 
ATOM      7  H   UNL     1      -0.658  -7.114  -3.896  0.00  0.00    +0.189 HD
ATOM      8  C   UNL     1       0.645  -5.893  -2.828  0.00  0.00    +0.126 A 
ATOM      9  C   UNL     1       0.505  -4.434  -2.773  0.00  0.00    +0.265 C 
ATOM     10  O   UNL     1      -0.368  -3.799  -3.333  0.00  0.00    -0.268 OA
ENDROOT
BRANCH   4  11
ATOM     11  C   UNL     1       2.836  -8.518  -1.512  0.00  0.00    +0.047 A 
ATOM     12  C   UNL     1       2.439  -9.616  -0.752  0.00  0.00    -0.037 A 
ATOM     13  C   UNL     1       3.389 -10.418  -0.153  0.00  0.00    +0.007 A 
ATOM     14  C   UNL     1       4.735 -10.136  -0.305  0.00  0.00    -0.047 A 
ATOM     15  C   UNL     1       5.140  -9.050  -1.057  0.00  0.00    +0.049 A 
ATOM     16  C   UNL     1       4.197  -8.239  -1.668  0.00  0.00    +0.127 A 
ATOM     17  C   UNL     1       5.765 -11.018   0.354  0.00  0.00    +0.044 C 
ATOM     18  C   UNL     1       0.974  -9.926  -0.584  0.00  0.00    +0.044 C 
BRANCH  16  19
ATOM     19  O   UNL     1       4.593  -7.174  -2.412  0.00  0.00    -0.506 OA
ATOM     20  H   UNL     1       4.766  -6.375  -1.895  0.00  0.00    +0.292 HD
ENDBRANCH  16  19
ENDBRANCH   4  11
BRANCH   2  21
ATOM     21  C   UNL     1       2.299  -5.016  -0.011  0.00  0.00    -0.019 A 
ATOM     22  C   UNL     1       1.089  -4.984   0.657  0.00  0.00    +0.009 A 
ATOM     23  C   UNL     1       1.058  -5.009   2.039  0.00  0.00    +0.050 A 
ATOM     24  C   UNL     1       2.242  -5.067   2.757  0.00  0.00    +0.162 A 
ATOM     25  C   UNL     1       3.459  -5.100   2.085  0.00  0.00    +0.162 A 
ATOM     26  C   UNL     1       3.483  -5.079   0.700  0.00  0.00    +0.055 A 
BRANCH  25  27
ATOM     27  O   UNL     1       4.623  -5.157   2.786  0.00  0.00    -0.489 OA
BRANCH  27  28
ATOM     28  C   UNL     1       5.835  -5.188   2.029  0.00  0.00    +0.226 C 
ATOM     29  C   UNL     1       7.030  -5.251   2.983  0.00  0.00    +0.048 C 
ENDBRANCH  27  28
ENDBRANCH  25  27
BRANCH  24  30
ATOM     30  O   UNL     1       2.213  -5.092   4.117  0.00  0.00    -0.488 OA
BRANCH  30  31
ATOM     31  C   UNL     1       0.927  -5.056   4.739  0.00  0.00    +0.229 C 
BRANCH  31  32
ATOM     32  C   UNL     1       1.095  -5.091   6.260  0.00  0.00    +0.044 C 
BRANCH  32  33
ATOM     33  C   UNL     1      -0.281  -5.052   6.926  0.00  0.00    -0.014 C 
ATOM     34  C   UNL     1      -1.054  -6.324   6.575  0.00  0.00    +0.007 C 
ATOM     35  C   UNL     1      -0.111  -4.961   8.444  0.00  0.00    +0.007 C 
ENDBRANCH  32  33
ENDBRANCH  31  32
ENDBRANCH  30  31
ENDBRANCH  24  30
ENDBRANCH   2  21
BRANCH   1  36
ATOM     36  C   UNL     1       1.664  -2.471  -1.739  0.00  0.00    +0.109 C 
BRANCH  36  37
ATOM     37  C   UNL     1       0.890  -2.096  -0.474  0.00  0.00    +0.019 C 
BRANCH  37  38
ATOM     38  C   UNL     1       1.081  -0.606  -0.182  0.00  0.00    +0.001 C 
BRANCH  38  40
ATOM     39  C   UNL     1       0.498   1.259   1.375  0.00  0.00    +0.004 C 
ATOM     40  C   UNL     1       0.307  -0.231   1.083  0.00  0.00    -0.003 C 
ENDBRANCH  38  40
ENDBRANCH  37  38
ENDBRANCH  36  37
ENDBRANCH   1  36
TORSDOF 13
