REMARK  Name = ZINC10818142
REMARK  7 active torsions:
REMARK  status: ('A' for Active; 'I' for Inactive)
REMARK    1  A    between atoms: C_1  and  C_2
REMARK    2  A    between atoms: C_2  and  C_27
REMARK    3  A    between atoms: C_4  and  N_9
REMARK    4  A    between atoms: C_6  and  C_7
REMARK    5  A    between atoms: C_6  and  C_8
REMARK    6  A    between atoms: C_10  and  C_12
REMARK    7  A    between atoms: C_18  and  C_20
REMARK                            x       y       z     vdW  Elec       q    Type
REMARK                         _______ _______ _______ _____ _____    ______ ____
ROOT
ATOM      1  N   UNL     1       1.807  -0.881  -2.343  0.00  0.00    -0.312 N 
ATOM      2  C   UNL     1       2.797  -1.415  -1.602  0.00  0.00    +0.216 C 
ATOM      3  O   UNL     1       2.917  -2.620  -1.527  0.00  0.00    -0.276 OA
ATOM      4  H   UNL     1       1.711   0.083  -2.402  0.00  0.00    +0.149 HD
ENDROOT
BRANCH   1   8
ATOM      5  C   UNL     1      -1.487  -0.974  -5.985  0.00  0.00    -0.010 C 
ATOM      6  C   UNL     1      -0.718  -1.878  -4.996  0.00  0.00    -0.072 C 
ATOM      7  C   UNL     1       0.275  -0.996  -4.243  0.00  0.00    +0.009 C 
ATOM      8  C   UNL     1       0.872  -1.757  -3.060  0.00  0.00    +0.070 C 
ATOM      9  C   UNL     1      -0.264  -2.159  -2.119  0.00  0.00    +0.009 C 
ATOM     10  C   UNL     1      -1.265  -3.054  -2.845  0.00  0.00    -0.072 C 
ATOM     11  C   UNL     1      -2.514  -3.180  -1.945  0.00  0.00    -0.010 C 
ATOM     12  C   UNL     1      -0.675  -4.460  -3.003  0.00  0.00    -0.010 C 
ATOM     13  C   UNL     1       0.046  -2.914  -5.829  0.00  0.00    -0.010 C 
ATOM     14  N   UNL     1      -1.755  -2.520  -4.145  0.00  0.00    +0.386 N 
ATOM     15  H   UNL     1      -2.163  -3.300  -4.675  0.00  0.00    -0.084 HD
ATOM     16  H   UNL     1      -2.482  -1.822  -3.948  0.00  0.00    -0.084 HD
ENDBRANCH   1   8
BRANCH   2  17
ATOM     17  C   UNL     1       3.757  -0.516  -0.866  0.00  0.00    +0.078 C 
ATOM     18  C   UNL     1       4.487   0.381  -1.869  0.00  0.00    +0.032 C 
ATOM     19  C   UNL     1       5.435   1.318  -1.115  0.00  0.00    +0.109 C 
ATOM     20  N   UNL     1       6.325   0.509  -0.270  0.00  0.00    -0.297 N 
ATOM     21  C   UNL     1       5.728  -0.452   0.667  0.00  0.00    +0.109 C 
ATOM     22  C   UNL     1       4.776  -1.369  -0.107  0.00  0.00    +0.032 C 
ATOM     23  C   UNL     1       7.663   0.648  -0.352  0.00  0.00    +0.247 C 
ATOM     24  O   UNL     1       8.148   1.371  -1.201  0.00  0.00    -0.270 OA
BRANCH  23  25
ATOM     25  C   UNL     1       8.541  -0.080   0.589  0.00  0.00    +0.037 A 
ATOM     26  C   UNL     1       8.139  -0.277   1.911  0.00  0.00    +0.014 A 
ATOM     27  C   UNL     1       8.960  -0.962   2.783  0.00  0.00    +0.016 A 
ATOM     28  C   UNL     1      10.185  -1.442   2.352  0.00  0.00    +0.018 A 
ATOM     29  C   UNL     1      10.591  -1.245   1.043  0.00  0.00    +0.016 A 
ATOM     30  C   UNL     1       9.777  -0.567   0.160  0.00  0.00    +0.014 A 
ATOM     31 BR   UNL     1      11.308  -2.373   3.556  0.00  0.00    -0.050 Br
ENDBRANCH  23  25
ENDBRANCH   2  17
TORSDOF 3
