REMARK  Name = ZINC36304253
REMARK  15 active torsions:
REMARK  status: ('A' for Active; 'I' for Inactive)
REMARK    1  A    between atoms: C_1  and  C_2
REMARK    2  A    between atoms: C_2  and  O_3
REMARK    3  A    between atoms: O_3  and  C_4
REMARK    4  A    between atoms: C_4  and  C_5
REMARK    5  A    between atoms: C_5  and  C_7
REMARK    6  A    between atoms: C_5  and  O_38
REMARK    7  A    between atoms: C_7  and  N_8
REMARK    8  A    between atoms: N_8  and  C_9
REMARK    9  A    between atoms: N_8  and  C_31
REMARK   10  A    between atoms: C_9  and  C_10
REMARK   11  A    between atoms: C_11  and  C_30
REMARK   12  A    between atoms: N_13  and  C_24
REMARK   13  A    between atoms: C_14  and  O_15
REMARK   14  A    between atoms: O_15  and  C_16
REMARK   15  A    between atoms: C_31  and  C_32
REMARK                            x       y       z     vdW  Elec       q    Type
REMARK                         _______ _______ _______ _____ _____    ______ ____
ROOT
ATOM      1  C   UNL     1       3.334  -5.448  -5.396  0.00  0.00    +0.021 A 
ATOM      2  C   UNL     1       2.728  -5.379  -6.654  0.00  0.00    +0.065 A 
ATOM      3  N   UNL     1       3.667  -5.290  -7.562  0.00  0.00    -0.168 NA
ATOM      4  N   UNL     1       4.909  -5.300  -6.916  0.00  0.00    -0.200 N 
ATOM      5  C   UNL     1       4.681  -5.392  -5.578  0.00  0.00    +0.225 A 
ATOM      6  C   UNL     1       1.245  -5.403  -6.920  0.00  0.00    +0.068 C 
ENDROOT
BRANCH   4   7
ATOM      7  C   UNL     1       6.164  -5.222  -7.536  0.00  0.00    +0.069 A 
ATOM      8  C   UNL     1       7.168  -4.441  -6.979  0.00  0.00    +0.028 A 
ATOM      9  C   UNL     1       8.403  -4.367  -7.593  0.00  0.00    +0.002 A 
ATOM     10  C   UNL     1       8.640  -5.070  -8.760  0.00  0.00    +0.000 A 
ATOM     11  C   UNL     1       7.642  -5.848  -9.317  0.00  0.00    +0.002 A 
ATOM     12  C   UNL     1       6.407  -5.930  -8.705  0.00  0.00    +0.028 A 
ENDBRANCH   4   7
BRANCH   1  13
ATOM     13  C   UNL     1       2.622  -5.559  -4.073  0.00  0.00    -0.036 C 
BRANCH  13  14
ATOM     14  N   UNL     1       2.489  -4.224  -3.475  0.00  0.00    +0.386 N 
ATOM     15  H   UNL     1       3.399  -3.792  -3.412  0.00  0.00    -0.081 HD
BRANCH  14  16
ATOM     16  C   UNL     1       1.611  -3.397  -4.313  0.00  0.00    -0.044 C 
BRANCH  16  17
ATOM     17  C   UNL     1       1.572  -1.971  -3.759  0.00  0.00    +0.124 C 
BRANCH  17  18
ATOM     18  O   UNL     1       2.869  -1.381  -3.872  0.00  0.00    -0.391 OA
ATOM     19  H   UNL     1       3.198  -1.325  -4.779  0.00  0.00    +0.210 HD
ENDBRANCH  17  18
BRANCH  17  20
ATOM     20  C   UNL     1       0.563  -1.142  -4.556  0.00  0.00    +0.189 C 
BRANCH  20  21
ATOM     21  O   UNL     1       0.441   0.154  -3.967  0.00  0.00    -0.378 OA
BRANCH  21  23
ATOM     22  C   UNL     1      -0.532   2.366  -3.925  0.00  0.00    +0.034 C 
ATOM     23  C   UNL     1      -0.483   1.013  -4.638  0.00  0.00    +0.156 C 
ENDBRANCH  21  23
ENDBRANCH  20  21
ENDBRANCH  17  20
ENDBRANCH  16  17
ENDBRANCH  14  16
BRANCH  14  24
ATOM     24  C   UNL     1       1.910  -4.345  -2.130  0.00  0.00    -0.046 C 
BRANCH  24  25
ATOM     25  C   UNL     1       2.894  -5.077  -1.216  0.00  0.00    +0.102 C 
ATOM     26  C   UNL     1       2.298  -5.200   0.203  0.00  0.00    +0.032 C 
ATOM     27  C   UNL     1       3.539  -4.954   1.104  0.00  0.00    +0.030 C 
ATOM     28  C   UNL     1       4.323  -3.925   0.251  0.00  0.00    +0.160 C 
ATOM     29  O   UNL     1       4.111  -4.329  -1.113  0.00  0.00    -0.378 OA
ENDBRANCH  24  25
ENDBRANCH  14  24
ENDBRANCH  13  14
ENDBRANCH   1  13
BRANCH   5  30
ATOM     30  O   UNL     1       5.625  -5.425  -4.603  0.00  0.00    -0.435 OA
BRANCH  30  31
ATOM     31  C   UNL     1       6.165  -6.629  -4.278  0.00  0.00    +0.166 A 
ATOM     32  C   UNL     1       5.830  -7.760  -5.007  0.00  0.00    +0.052 A 
ATOM     33  C   UNL     1       6.380  -8.983  -4.676  0.00  0.00    +0.042 A 
ATOM     34  C   UNL     1       7.267  -9.082  -3.617  0.00  0.00    +0.126 A 
ATOM     35  C   UNL     1       7.604  -7.955  -2.887  0.00  0.00    +0.080 A 
ATOM     36  C   UNL     1       7.059  -6.727  -3.219  0.00  0.00    +0.168 A 
ATOM     37  F   UNL     1       7.392  -5.626  -2.510  0.00  0.00    -0.202 F 
ATOM     38  F   UNL     1       7.804 -10.279  -3.296  0.00  0.00    -0.205 F 
ENDBRANCH  30  31
ENDBRANCH   5  30
TORSDOF 13
