REMARK  Name = ZINC18070760
REMARK  12 active torsions:
REMARK  status: ('A' for Active; 'I' for Inactive)
REMARK    1  A    between atoms: C_1  and  C_2
REMARK    2  A    between atoms: C_2  and  O_3
REMARK    3  A    between atoms: O_3  and  C_4
REMARK    4  A    between atoms: C_7  and  O_10
REMARK    5  A    between atoms: O_10  and  C_11
REMARK    6  A    between atoms: C_11  and  C_13
REMARK    7  A    between atoms: C_11  and  C_14
REMARK    8  A    between atoms: N_16  and  N_17
REMARK    9  A    between atoms: C_18  and  C_20
REMARK   10  A    between atoms: N_22  and  C_27
REMARK   11  A    between atoms: C_29  and  C_34
REMARK   12  A    between atoms: C_32  and  C_33
REMARK                            x       y       z     vdW  Elec       q    Type
REMARK                         _______ _______ _______ _____ _____    ______ ____
ROOT
ATOM      1  N   UNL     1      -2.496   1.272  -0.500  0.00  0.00    -0.229 N 
ATOM      2  C   UNL     1      -1.334   1.953  -0.541  0.00  0.00    +0.276 C 
ATOM      3  O   UNL     1      -1.328   3.157  -0.366  0.00  0.00    -0.267 OA
ATOM      4  H   UNL     1      -2.501   0.312  -0.640  0.00  0.00    +0.173 HD
ENDROOT
BRANCH   2   5
ATOM      5  C   UNL     1      -0.076   1.243  -0.797  0.00  0.00    +0.123 C 
ATOM      6  N   UNL     1      -0.093  -0.041  -0.983  0.00  0.00    -0.172 NA
ATOM      7  N   UNL     1       1.086  -0.750  -1.233  0.00  0.00    -0.160 N 
ATOM      8  C   UNL     1       2.283  -0.218  -0.915  0.00  0.00    +0.240 C 
ATOM      9  O   UNL     1       3.301  -0.840  -1.130  0.00  0.00    -0.273 OA
ATOM     10  C   UNL     1       2.351   1.153  -0.292  0.00  0.00    +0.104 C 
ATOM     11  C   UNL     1       1.215   2.015  -0.847  0.00  0.00    +0.072 C 
BRANCH   7  12
ATOM     12  C   UNL     1       1.023  -2.021  -1.817  0.00  0.00    +0.063 A 
ATOM     13  C   UNL     1       1.735  -2.290  -2.979  0.00  0.00    +0.029 A 
ATOM     14  C   UNL     1       1.670  -3.544  -3.552  0.00  0.00    -0.049 A 
ATOM     15  C   UNL     1       0.897  -4.533  -2.971  0.00  0.00    +0.004 A 
ATOM     16  C   UNL     1       0.188  -4.269  -1.814  0.00  0.00    +0.005 A 
ATOM     17  C   UNL     1       0.253  -3.018  -1.232  0.00  0.00    -0.027 A 
ATOM     18  C   UNL     1      -0.516  -2.733   0.032  0.00  0.00    +0.046 C 
ATOM     19  C   UNL     1       2.442  -3.837  -4.813  0.00  0.00    +0.044 C 
ENDBRANCH   7  12
ENDBRANCH   2   5
BRANCH   1  22
ATOM     20  C   UNL     1      -4.860   1.269  -0.214  0.00  0.00    +0.270 C 
ATOM     21  O   UNL     1      -4.866   0.069  -0.389  0.00  0.00    -0.270 OA
ATOM     22  N   UNL     1      -3.698   1.950  -0.256  0.00  0.00    -0.231 N 
ATOM     23  H   UNL     1      -3.693   2.910  -0.116  0.00  0.00    +0.173 HD
BRANCH  20  24
ATOM     24  C   UNL     1      -6.152   1.999   0.049  0.00  0.00    +0.257 C 
ATOM     25  C   UNL     1      -6.440   2.959  -1.107  0.00  0.00    +0.062 C 
BRANCH  24  26
ATOM     26  O   UNL     1      -7.218   1.054   0.159  0.00  0.00    -0.480 OA
BRANCH  26  30
ATOM     27  C   UNL     1     -10.523   2.205   2.349  0.00  0.00    +0.121 A 
ATOM     28  C   UNL     1      -9.501   3.111   2.108  0.00  0.00    +0.049 A 
ATOM     29  C   UNL     1      -8.395   2.726   1.375  0.00  0.00    +0.049 A 
ATOM     30  C   UNL     1      -8.307   1.433   0.881  0.00  0.00    +0.122 A 
ATOM     31  C   UNL     1      -9.332   0.529   1.117  0.00  0.00    +0.049 A 
ATOM     32  C   UNL     1     -10.435   0.913   1.853  0.00  0.00    +0.049 A 
BRANCH  27  33
ATOM     33  O   UNL     1     -11.611   2.585   3.071  0.00  0.00    -0.492 OA
BRANCH  33  35
ATOM     34  C   UNL     1     -13.762   2.207   4.107  0.00  0.00    +0.048 C 
ATOM     35  C   UNL     1     -12.626   1.600   3.281  0.00  0.00    +0.225 C 
ENDBRANCH  33  35
ENDBRANCH  27  33
ENDBRANCH  26  30
ENDBRANCH  24  26
ENDBRANCH  20  24
ENDBRANCH   1  22
TORSDOF 8
