REMARK  Name = ZINC16056865
REMARK  10 active torsions:
REMARK  status: ('A' for Active; 'I' for Inactive)
REMARK    1  A    between atoms: C_1  and  C_2
REMARK    2  A    between atoms: C_4  and  C_32
REMARK    3  A    between atoms: N_5  and  C_7
REMARK    4  A    between atoms: C_7  and  C_8
REMARK    5  A    between atoms: N_10  and  N_11
REMARK    6  A    between atoms: C_12  and  C_14
REMARK    7  A    between atoms: C_15  and  C_16
REMARK    8  A    between atoms: C_17  and  C_31
REMARK    9  A    between atoms: N_19  and  C_22
REMARK   10  A    between atoms: C_22  and  C_23
REMARK                            x       y       z     vdW  Elec       q    Type
REMARK                         _______ _______ _______ _____ _____    ______ ____
ROOT
ATOM      1  C   UNL     1      -0.448   1.960  -6.574  0.00  0.00    +0.069 C 
ATOM      2  C   UNL     1      -0.157   1.837  -7.888  0.00  0.00    +0.018 C 
ENDROOT
BRANCH   2   3
ATOM      3  C   UNL     1      -1.107   2.320  -8.899  0.00  0.00    +0.034 A 
ATOM      4  C   UNL     1      -0.812   3.168  -9.993  0.00  0.00    +0.069 A 
ATOM      5  N   UNL     1      -1.915   3.365 -10.660  0.00  0.00    -0.174 NA
ATOM      6  N   UNL     1      -2.957   2.674 -10.033  0.00  0.00    -0.248 N 
ATOM      7  C   UNL     1      -2.461   2.036  -8.958  0.00  0.00    +0.135 A 
ATOM      8 CL   UNL     1      -3.353   1.041  -7.850  0.00  0.00    -0.062 Cl
ATOM      9  C   UNL     1       0.541   3.740 -10.330  0.00  0.00    +0.068 C 
BRANCH   6  10
ATOM     10  C   UNL     1      -4.354   2.648 -10.474  0.00  0.00    +0.183 C 
BRANCH  10  11
ATOM     11  C   UNL     1      -5.064   3.878  -9.966  0.00  0.00    +0.011 A 
ATOM     12  C   UNL     1      -5.805   3.817  -8.800  0.00  0.00    +0.047 A 
ATOM     13  C   UNL     1      -6.452   4.947  -8.332  0.00  0.00    +0.020 A 
ATOM     14  C   UNL     1      -6.365   6.134  -9.034  0.00  0.00    +0.003 A 
ATOM     15  C   UNL     1      -5.629   6.194 -10.203  0.00  0.00    +0.020 A 
ATOM     16  C   UNL     1      -4.978   5.066 -10.669  0.00  0.00    +0.047 A 
ATOM     17 CL   UNL     1      -4.052   5.142 -12.136  0.00  0.00    -0.083 Cl
ATOM     18 CL   UNL     1      -5.920   2.324  -7.921  0.00  0.00    -0.083 Cl
ENDBRANCH  10  11
ENDBRANCH   6  10
ENDBRANCH   2   3
BRANCH   1  20
ATOM     19  N   UNL     1       0.178   1.617  -4.289  0.00  0.00    -0.231 N 
ATOM     20  C   UNL     1       0.468   1.494  -5.599  0.00  0.00    +0.253 C 
ATOM     21  O   UNL     1       1.518   0.984  -5.945  0.00  0.00    -0.269 OA
ATOM     22  H   UNL     1      -0.658   2.024  -4.013  0.00  0.00    +0.173 HD
BRANCH  19  25
ATOM     23  C   UNL     1       0.794   1.279  -2.014  0.00  0.00    +0.251 C 
ATOM     24  O   UNL     1      -0.252   1.787  -1.669  0.00  0.00    -0.272 OA
ATOM     25  N   UNL     1       1.084   1.156  -3.324  0.00  0.00    -0.233 N 
ATOM     26  H   UNL     1       1.920   0.750  -3.600  0.00  0.00    +0.173 HD
BRANCH  23  27
ATOM     27  C   UNL     1       1.768   0.783  -0.977  0.00  0.00    +0.240 C 
BRANCH  27  32
ATOM     28  C   UNL     1      -0.709   0.125   3.339  0.00  0.00    +0.067 C 
ATOM     29  C   UNL     1       0.134   0.721   2.241  0.00  0.00    +0.060 A 
ATOM     30  C   UNL     1       0.747   1.978   2.269  0.00  0.00    +0.047 A 
ATOM     31  C   UNL     1       1.416   2.140   1.104  0.00  0.00    +0.037 A 
ATOM     32  N   UNL     1       1.225   1.030   0.361  0.00  0.00    -0.259 N 
ATOM     33  N   UNL     1       0.420   0.152   1.098  0.00  0.00    -0.176 NA
ATOM     34  C   UNL     1       2.226   3.347   0.705  0.00  0.00    +0.065 C 
ENDBRANCH  27  32
ENDBRANCH  23  27
ENDBRANCH  19  25
ENDBRANCH   1  20
TORSDOF 7
