REMARK  Name = ZINC20504590
REMARK  9 active torsions:
REMARK  status: ('A' for Active; 'I' for Inactive)
REMARK    1  A    between atoms: C_1  and  C_2
REMARK    2  A    between atoms: C_10  and  C_12
REMARK    3  A    between atoms: N_16  and  C_17
REMARK    4  A    between atoms: C_19  and  C_41
REMARK    5  A    between atoms: C_22  and  O_40
REMARK    6  A    between atoms: C_24  and  C_28
REMARK    7  A    between atoms: C_28  and  C_30
REMARK    8  A    between atoms: C_28  and  C_31
REMARK    9  A    between atoms: N_36  and  C_39
REMARK                            x       y       z     vdW  Elec       q    Type
REMARK                         _______ _______ _______ _____ _____    ______ ____
ROOT
ATOM      1  C   UNL     1       5.041  -2.302   2.488  0.00  0.00    +0.014 C 
ATOM      2  C   UNL     1       3.615  -2.676   2.079  0.00  0.00    +0.042 C 
ATOM      3  C   UNL     1       3.602  -4.093   1.526  0.00  0.00    +0.057 A 
ATOM      4  C   UNL     1       2.855  -4.390   0.431  0.00  0.00    +0.015 A 
ATOM      5  S   UNL     1       3.167  -6.120   0.205  0.00  0.00    -0.057 S 
ATOM      6  C   UNL     1       4.248  -6.319   1.552  0.00  0.00    +0.165 A 
ATOM      7  N   UNL     1       4.289  -5.103   2.055  0.00  0.00    -0.229 NA
ATOM      8  N   UNL     1       4.899  -7.466   1.986  0.00  0.00    -0.259 N 
ATOM      9  C   UNL     1       4.725  -8.630   1.329  0.00  0.00    +0.266 C 
ATOM     10  O   UNL     1       4.061  -8.660   0.310  0.00  0.00    -0.268 OA
ATOM     11  C   UNL     1       1.997  -3.469  -0.362  0.00  0.00    +0.051 C 
ATOM     12  C   UNL     1       1.777  -2.172   0.441  0.00  0.00    -0.022 C 
ATOM     13  C   UNL     1       3.120  -1.700   1.003  0.00  0.00    +0.033 C 
ATOM     14  C   UNL     1       2.961  -0.328   1.666  0.00  0.00    +0.123 C 
ATOM     15  C   UNL     1       2.422   0.688   0.662  0.00  0.00    +0.029 C 
ATOM     16  C   UNL     1       1.050   0.217   0.172  0.00  0.00    +0.007 C 
ATOM     17  C   UNL     1       1.215  -1.129  -0.530  0.00  0.00    +0.008 C 
ATOM     18  C   UNL     1       0.780  -2.421   1.575  0.00  0.00    +0.012 C 
ATOM     19  H   UNL     1       5.557  -7.425   2.867  0.00  0.00    +0.157 HD
ENDROOT
BRANCH   9  20
ATOM     20  C   UNL     1       5.337  -9.860   1.842  0.00  0.00    +0.105 A 
ATOM     21  C   UNL     1       6.030  -9.993   3.026  0.00  0.00    +0.032 A 
ATOM     22  C   UNL     1       6.436 -11.328   3.117  0.00  0.00    +0.020 A 
ATOM     23  C   UNL     1       5.992 -11.973   2.012  0.00  0.00    +0.086 A 
ATOM     24  N   UNL     1       5.318 -11.094   1.232  0.00  0.00    -0.346 N 
ATOM     25  C   UNL     1       4.679 -11.403  -0.050  0.00  0.00    +0.149 C 
ENDBRANCH   9  20
BRANCH  15  26
ATOM     26  C   UNL     1       3.381   0.795  -0.525  0.00  0.00    +0.078 C 
ATOM     27  C   UNL     1       4.734   1.322  -0.043  0.00  0.00    +0.017 C 
BRANCH  26  28
ATOM     28  C   UNL     1       2.810   1.741  -1.550  0.00  0.00    +0.219 C 
ATOM     29  O   UNL     1       1.908   2.492  -1.245  0.00  0.00    -0.275 OA
ATOM     30  N   UNL     1       3.301   1.752  -2.805  0.00  0.00    -0.299 N 
ATOM     31  C   UNL     1       4.336   0.792  -3.219  0.00  0.00    +0.123 C 
ATOM     32  C   UNL     1       3.870   0.110  -4.515  0.00  0.00    +0.103 C 
ATOM     33  N   UNL     1       3.542   1.137  -5.512  0.00  0.00    -0.302 NA
ATOM     34  C   UNL     1       2.419   1.973  -5.066  0.00  0.00    +0.103 C 
ATOM     35  C   UNL     1       2.821   2.728  -3.795  0.00  0.00    +0.123 C 
ATOM     36  C   UNL     1       3.260   0.531  -6.820  0.00  0.00    +0.105 C 
ENDBRANCH  26  28
ENDBRANCH  15  26
BRANCH  14  37
ATOM     37  O   UNL     1       4.232   0.113   2.150  0.00  0.00    -0.391 OA
ATOM     38  H   UNL     1       4.319   1.084   2.659  0.00  0.00    +0.210 HD
ENDBRANCH  14  37
TORSDOF 4
