REMARK  Name = ZINC20407303
REMARK  9 active torsions:
REMARK  status: ('A' for Active; 'I' for Inactive)
REMARK    1  A    between atoms: C_1  and  C_2
REMARK    2  A    between atoms: C_5  and  C_7
REMARK    3  A    between atoms: N_8  and  N_9
REMARK    4  A    between atoms: C_12  and  S_15
REMARK    5  A    between atoms: S_15  and  C_16
REMARK    6  A    between atoms: C_16  and  C_17
REMARK    7  A    between atoms: C_23  and  S_25
REMARK    8  A    between atoms: S_25  and  C_26
REMARK    9  A    between atoms: C_26  and  C_27
REMARK                            x       y       z     vdW  Elec       q    Type
REMARK                         _______ _______ _______ _____ _____    ______ ____
ROOT
ATOM      1  C   UNL     1      -0.799   4.069   0.028  0.00  0.00    +0.173 C 
ENDROOT
BRANCH   1   2
ATOM      2  C   UNL     1      -1.942   5.051   0.039  0.00  0.00    +0.229 C 
ATOM      3  O   UNL     1      -3.087   4.650   0.043  0.00  0.00    -0.275 OA
ATOM      4  N   UNL     1      -1.692   6.376   0.045  0.00  0.00    -0.263 N 
ATOM      5  C   UNL     1      -2.748   7.284   0.055  0.00  0.00    +0.189 A 
ATOM      6  N   UNL     1      -4.053   7.070   0.061  0.00  0.00    -0.125 NA
ATOM      7  N   UNL     1      -4.886   8.017   0.070  0.00  0.00    -0.133 NA
ATOM      8  C   UNL     1      -4.504   9.286   0.075  0.00  0.00    +0.160 A 
ATOM      9  S   UNL     1      -2.726   9.074   0.072  0.00  0.00    -0.024 S 
ATOM     10  H   UNL     1      -0.654   6.740   0.042  0.00  0.00    +0.157 HD
BRANCH   8  11
ATOM     11  S   UNL     1      -5.470  10.759   0.089  0.00  0.00    -0.092 S 
BRANCH  11  12
ATOM     12  C   UNL     1      -7.183  10.162   0.095  0.00  0.00    +0.111 C 
BRANCH  12  13
ATOM     13  C   UNL     1      -8.125  11.338   0.107  0.00  0.00    -0.037 A 
ATOM     14  C   UNL     1      -8.555  11.867   1.310  0.00  0.00    +0.004 A 
ATOM     15  C   UNL     1      -9.415  12.949   1.321  0.00  0.00    +0.000 A 
ATOM     16  C   UNL     1      -9.854  13.495   0.130  0.00  0.00    +0.000 A 
ATOM     17  C   UNL     1      -9.428  12.963  -1.073  0.00  0.00    +0.000 A 
ATOM     18  C   UNL     1      -8.564  11.884  -1.084  0.00  0.00    +0.004 A 
ENDBRANCH  12  13
ENDBRANCH  11  12
ENDBRANCH   8  11
ENDBRANCH   1   2
BRANCH   1  19
ATOM     19  S   UNL     1      -1.456   2.378   0.022  0.00  0.00    -0.075 S 
BRANCH  19  23
ATOM     20  N   UNL     1       1.754  -1.722  -0.024  0.00  0.00    -0.205 N 
ATOM     21  C   UNL     1       1.308  -0.409  -0.013  0.00  0.00    +0.232 A 
ATOM     22  N   UNL     1       0.002  -0.004   0.002  0.00  0.00    -0.186 NA
ATOM     23  C   UNL     1      -0.016   1.362   0.009  0.00  0.00    +0.211 A 
ATOM     24  N   UNL     1       1.225   1.784  -0.000  0.00  0.00    -0.144 NA
ATOM     25  N   UNL     1       2.064   0.662  -0.014  0.00  0.00    -0.245 N 
ATOM     26  H   UNL     1       1.030  -2.549  -0.022  0.00  0.00    +0.177 HD
ATOM     27  H   UNL     1       3.160   0.562  -0.025  0.00  0.00    +0.192 HD
BRANCH  20  29
ATOM     28  C   UNL     1       3.547  -3.227  -0.050  0.00  0.00    +0.176 C 
ATOM     29  N   UNL     1       3.129  -1.995  -0.039  0.00  0.00    -0.184 NA
BRANCH  28  34
ATOM     30  C   UNL     1       8.511  -2.549  -0.092  0.00  0.00    +0.086 C 
ATOM     31  C   UNL     1       7.163  -3.223  -0.084  0.00  0.00    +0.103 A 
ATOM     32  C   UNL     1       6.951  -4.554  -0.090  0.00  0.00    +0.045 A 
ATOM     33  C   UNL     1       5.557  -4.751  -0.072  0.00  0.00    +0.051 A 
ATOM     34  C   UNL     1       4.986  -3.512  -0.065  0.00  0.00    +0.148 A 
ATOM     35  O   UNL     1       5.975  -2.596  -0.069  0.00  0.00    -0.459 OA
ENDBRANCH  28  34
ENDBRANCH  20  29
ENDBRANCH  19  23
ENDBRANCH   1  19
TORSDOF 8
