REMARK  Name = ZINC05726801
REMARK  9 active torsions:
REMARK  status: ('A' for Active; 'I' for Inactive)
REMARK    1  A    between atoms: C_1  and  C_2
REMARK    2  A    between atoms: C_2  and  C_3
REMARK    3  A    between atoms: C_2  and  C_4
REMARK    4  A    between atoms: C_2  and  C_5
REMARK    5  A    between atoms: C_8  and  C_11
REMARK    6  A    between atoms: C_14  and  C_16
REMARK    7  A    between atoms: N_18  and  N_19
REMARK    8  A    between atoms: C_20  and  C_21
REMARK    9  A    between atoms: C_23  and  N_27
REMARK                            x       y       z     vdW  Elec       q    Type
REMARK                         _______ _______ _______ _____ _____    ______ ____
ROOT
ATOM      1  C   UNL     1      -0.806   3.066   1.487  0.00  0.00    +0.236 C 
ATOM      2  O   UNL     1      -0.566   4.063   0.839  0.00  0.00    -0.274 OA
ATOM      3  N   UNL     1      -0.779   3.116   2.834  0.00  0.00    -0.207 N 
ATOM      4  H   UNL     1      -0.972   2.320   3.353  0.00  0.00    +0.177 HD
ENDROOT
BRANCH   1   7
ATOM      5  C   UNL     1      -1.150   1.781  -0.743  0.00  0.00    +0.032 C 
ATOM      6  C   UNL     1      -0.013   1.086   0.008  0.00  0.00    +0.022 C 
ATOM      7  C   UNL     1      -1.136   1.773   0.788  0.00  0.00    +0.085 C 
BRANCH   5  11
ATOM      8  C   UNL     1      -4.024  -0.698  -2.704  0.00  0.00    -0.042 A 
ATOM      9  C   UNL     1      -4.037   0.669  -2.907  0.00  0.00    +0.004 A 
ATOM     10  C   UNL     1      -3.107   1.472  -2.273  0.00  0.00    +0.004 A 
ATOM     11  C   UNL     1      -2.164   0.907  -1.435  0.00  0.00    -0.044 A 
ATOM     12  C   UNL     1      -2.148  -0.461  -1.235  0.00  0.00    +0.004 A 
ATOM     13  C   UNL     1      -3.080  -1.263  -1.866  0.00  0.00    +0.004 A 
BRANCH   8  15
ATOM     14  C   UNL     1      -4.893  -1.423  -4.910  0.00  0.00    +0.015 C 
ATOM     15  C   UNL     1      -5.038  -1.572  -3.394  0.00  0.00    -0.013 C 
ATOM     16  C   UNL     1      -4.805  -3.032  -3.001  0.00  0.00    +0.015 C 
ATOM     17  C   UNL     1      -6.447  -1.149  -2.973  0.00  0.00    +0.015 C 
ENDBRANCH   8  15
ENDBRANCH   5  11
ENDBRANCH   1   7
BRANCH   3  18
ATOM     18  N   UNL     1      -0.473   4.319   3.484  0.00  0.00    -0.188 NA
ATOM     19  C   UNL     1      -0.447   4.367   4.781  0.00  0.00    +0.142 C 
BRANCH  19  20
ATOM     20  C   UNL     1      -0.125   5.632   5.465  0.00  0.00    +0.043 A 
ATOM     21  C   UNL     1      -0.096   5.688   6.861  0.00  0.00    +0.046 A 
ATOM     22  C   UNL     1       0.206   6.875   7.495  0.00  0.00    +0.127 A 
ATOM     23  C   UNL     1       0.481   8.012   6.754  0.00  0.00    +0.036 A 
ATOM     24  C   UNL     1       0.456   7.969   5.372  0.00  0.00    +0.054 A 
ATOM     25  C   UNL     1       0.159   6.784   4.719  0.00  0.00    +0.188 A 
ATOM     26  O   UNL     1       0.140   6.740   3.362  0.00  0.00    -0.287 OA
BRANCH  22  27
ATOM     27  N   UNL     1       0.237   6.934   8.973  0.00  0.00    +0.056 N 
ATOM     28  O   UNL     1      -0.004   5.935   9.627  0.00  0.00    -0.126 OA
ATOM     29  O   UNL     1       0.503   7.981   9.536  0.00  0.00    -0.126 OA
ENDBRANCH  22  27
ENDBRANCH  19  20
ENDBRANCH   3  18
TORSDOF 6
