REMARK  Name = ZINC39665337
REMARK  10 active torsions:
REMARK  status: ('A' for Active; 'I' for Inactive)
REMARK    1  A    between atoms: C_1  and  C_2
REMARK    2  A    between atoms: C_4  and  C_7
REMARK    3  A    between atoms: C_8  and  C_13
REMARK    4  A    between atoms: C_9  and  C_12
REMARK    5  A    between atoms: C_17  and  C_26
REMARK    6  A    between atoms: N_28  and  C_29
REMARK    7  A    between atoms: C_29  and  C_30
REMARK    8  A    between atoms: C_30  and  C_32
REMARK    9  A    between atoms: C_30  and  O_33
REMARK   10  A    between atoms: O_33  and  C_34
REMARK                            x       y       z     vdW  Elec       q    Type
REMARK                         _______ _______ _______ _____ _____    ______ ____
ROOT
ATOM      1  C   UNL     1      -1.246  -4.565  -0.262  0.00  0.00    +0.252 C 
ATOM      2  O   UNL     1      -0.794  -4.936   0.804  0.00  0.00    -0.270 OA
ATOM      3  N   UNL     1      -0.641  -4.923  -1.412  0.00  0.00    -0.296 N 
ATOM      4  C   UNL     1      -1.036  -4.567  -2.795  0.00  0.00    +0.121 C 
ATOM      5  C   UNL     1       0.298  -4.301  -3.526  0.00  0.00    +0.100 C 
ATOM      6  C   UNL     1       1.348  -5.089  -2.725  0.00  0.00    -0.004 C 
ATOM      7  C   UNL     1       0.574  -5.756  -1.579  0.00  0.00    +0.115 C 
ATOM      8  C   UNL     1       2.002  -6.147  -3.608  0.00  0.00    -0.010 C 
ATOM      9  C   UNL     1       3.083  -6.878  -2.805  0.00  0.00    -0.082 C 
ATOM     10  N   UNL     1       4.086  -5.913  -2.340  0.00  0.00    +0.379 N 
ATOM     11  C   UNL     1       3.467  -4.953  -1.417  0.00  0.00    -0.082 C 
ATOM     12  C   UNL     1       2.403  -4.141  -2.161  0.00  0.00    -0.010 C 
ATOM     13  H   UNL     1       4.828  -6.404  -1.864  0.00  0.00    -0.086 HD
ATOM     14  H   UNL     1       4.468  -5.418  -3.132  0.00  0.00    -0.086 HD
ENDROOT
BRANCH   1  16
ATOM     15  C   UNL     1      -2.496  -2.339  -0.266  0.00  0.00    +0.201 A 
ATOM     16  C   UNL     1      -2.456  -3.725  -0.296  0.00  0.00    +0.108 A 
ATOM     17  C   UNL     1      -3.795  -4.183  -0.367  0.00  0.00    +0.093 A 
ATOM     18  N   UNL     1      -4.578  -3.146  -0.378  0.00  0.00    -0.082 NA
ATOM     19  O   UNL     1      -3.787  -1.975  -0.310  0.00  0.00    -0.352 OA
ATOM     20  C   UNL     1      -4.235  -5.624  -0.420  0.00  0.00    +0.070 C 
BRANCH  15  24
ATOM     21  C   UNL     1       0.299   1.890  -0.035  0.00  0.00    +0.089 C 
ATOM     22  C   UNL     1      -0.115   0.442  -0.091  0.00  0.00    +0.135 A 
ATOM     23  C   UNL     1      -1.378  -0.014  -0.157  0.00  0.00    +0.079 A 
ATOM     24  C   UNL     1      -1.331  -1.430  -0.193  0.00  0.00    +0.152 A 
ATOM     25  N   UNL     1      -0.070  -1.790  -0.149  0.00  0.00    -0.075 NA
ATOM     26  O   UNL     1       0.715  -0.613  -0.089  0.00  0.00    -0.359 OA
ENDBRANCH  15  24
ENDBRANCH   1  16
BRANCH   5  27
ATOM     27  C   UNL     1       0.621  -2.829  -3.513  0.00  0.00    +0.218 C 
ATOM     28  O   UNL     1       0.138  -2.111  -2.664  0.00  0.00    -0.275 OA
ATOM     29  N   UNL     1       1.445  -2.311  -4.445  0.00  0.00    -0.312 N 
ATOM     30  H   UNL     1       1.831  -2.886  -5.124  0.00  0.00    +0.149 HD
BRANCH  29  31
ATOM     31  C   UNL     1       1.758  -0.880  -4.432  0.00  0.00    +0.148 C 
BRANCH  31  32
ATOM     32  C   UNL     1       2.708  -0.555  -5.586  0.00  0.00    +0.187 C 
ATOM     33  C   UNL     1       3.134   0.912  -5.499  0.00  0.00    +0.053 C 
BRANCH  32  34
ATOM     34  O   UNL     1       2.043  -0.785  -6.830  0.00  0.00    -0.488 OA
BRANCH  34  35
ATOM     35  C   UNL     1       2.825  -1.061  -7.907  0.00  0.00    +0.121 A 
ATOM     36  C   UNL     1       4.207  -1.003  -7.795  0.00  0.00    +0.045 A 
ATOM     37  C   UNL     1       4.999  -1.284  -8.891  0.00  0.00    +0.004 A 
ATOM     38  C   UNL     1       4.417  -1.622 -10.098  0.00  0.00    +0.000 A 
ATOM     39  C   UNL     1       3.040  -1.680 -10.212  0.00  0.00    +0.004 A 
ATOM     40  C   UNL     1       2.243  -1.406  -9.118  0.00  0.00    +0.045 A 
ENDBRANCH  34  35
ENDBRANCH  32  34
ENDBRANCH  31  32
ENDBRANCH  29  31
ENDBRANCH   5  27
TORSDOF 7
