REMARK  Name = ZINC19329523
REMARK  7 active torsions:
REMARK  status: ('A' for Active; 'I' for Inactive)
REMARK    1  A    between atoms: C_1  and  C_2
REMARK    2  A    between atoms: C_2  and  C_30
REMARK    3  A    between atoms: C_6  and  C_16
REMARK    4  A    between atoms: C_13  and  O_15
REMARK    5  A    between atoms: C_23  and  S_25
REMARK    6  A    between atoms: S_25  and  C_26
REMARK    7  A    between atoms: C_26  and  C_27
REMARK                            x       y       z     vdW  Elec       q    Type
REMARK                         _______ _______ _______ _____ _____    ______ ____
ROOT
ATOM      1  C   UNL     1      -3.687   6.387   1.032  0.00  0.00    +0.027 C 
ATOM      2  C   UNL     1      -2.450   6.566   0.132  0.00  0.00    +0.013 C 
ATOM      3  C   UNL     1      -1.216   6.131   0.919  0.00  0.00    +0.014 C 
ATOM      4  C   UNL     1      -0.102   5.641   0.000  0.00  0.00    -0.029 C 
ATOM      5  C   UNL     1       1.239   6.161   0.556  0.00  0.00    +0.042 C 
ATOM      6  C   UNL     1       2.362   5.507  -0.258  0.00  0.00    +0.203 C 
ATOM      7  O   UNL     1       2.349   4.105   0.007  0.00  0.00    -0.484 OA
ATOM      8  C   UNL     1       1.156   3.457   0.005  0.00  0.00    +0.127 A 
ATOM      9  C   UNL     1      -0.054   4.132   0.009  0.00  0.00    -0.016 A 
ATOM     10  C   UNL     1      -1.238   3.416   0.031  0.00  0.00    +0.009 A 
ATOM     11  C   UNL     1      -1.225   2.035   0.030  0.00  0.00    +0.046 A 
ATOM     12  C   UNL     1      -0.016   1.355   0.009  0.00  0.00    +0.120 A 
ATOM     13  C   UNL     1       1.171   2.066   0.002  0.00  0.00    +0.091 A 
ATOM     14  N   UNL     1      -0.256   6.143  -1.357  0.00  0.00    +0.410 N 
ATOM     15  C   UNL     1      -1.514   5.803  -2.011  0.00  0.00    +0.090 C 
ATOM     16  N   UNL     1      -2.622   5.746  -1.062  0.00  0.00    -0.303 NA
ATOM     17 BR   UNL     1      -1.333   4.050  -2.896  0.00  0.00    -0.078 Br
ATOM     18  C   UNL     1      -2.342   8.049  -0.231  0.00  0.00    +0.027 C 
ATOM     19  H   UNL     1      -0.196   7.241  -1.351  0.00  0.00    -0.079 HD
ATOM     20  H   UNL     1      -2.734   4.691  -0.770  0.00  0.00    +0.123 HD
ATOM     21  H   UNL     1       0.544   5.735  -1.992  0.00  0.00    -0.079 HD
ENDROOT
BRANCH   6  22
ATOM     22  C   UNL     1       3.691   6.090   0.151  0.00  0.00    -0.007 A 
ATOM     23  C   UNL     1       4.351   5.594   1.259  0.00  0.00    +0.007 A 
ATOM     24  C   UNL     1       5.572   6.125   1.631  0.00  0.00    +0.000 A 
ATOM     25  C   UNL     1       6.127   7.159   0.900  0.00  0.00    +0.000 A 
ATOM     26  C   UNL     1       5.464   7.658  -0.205  0.00  0.00    +0.000 A 
ATOM     27  C   UNL     1       4.246   7.123  -0.580  0.00  0.00    +0.007 A 
ENDBRANCH   6  22
BRANCH  12  28
ATOM     28  O   UNL     1       0.002  -0.004   0.002  0.00  0.00    -0.507 OA
ATOM     29  H   UNL     1       0.962  -0.541  -0.015  0.00  0.00    +0.292 HD
ENDBRANCH  12  28
BRANCH  15  30
ATOM     30  S   UNL     1      -1.881   7.052  -3.284  0.00  0.00    -0.143 S 
BRANCH  30  31
ATOM     31  C   UNL     1      -3.414   6.460  -4.051  0.00  0.00    +0.096 C 
BRANCH  31  32
ATOM     32  C   UNL     1      -3.834   7.416  -5.137  0.00  0.00    -0.024 C 
ATOM     33  C   UNL     1      -3.849   7.023  -6.387  0.00  0.00    +0.005 C 
ENDBRANCH  31  32
ENDBRANCH  30  31
ENDBRANCH  15  30
TORSDOF 5
