REMARK  Name = ZINC01176920
REMARK  7 active torsions:
REMARK  status: ('A' for Active; 'I' for Inactive)
REMARK    1  A    between atoms: C_1  and  N_2
REMARK    2  A    between atoms: N_2  and  C_3
REMARK    3  A    between atoms: N_2  and  N_4
REMARK    4  A    between atoms: C_7  and  C_14
REMARK    5  A    between atoms: C_9  and  C_12
REMARK    6  A    between atoms: C_10  and  N_11
REMARK    7  A    between atoms: C_24  and  C_27
REMARK                            x       y       z     vdW  Elec       q    Type
REMARK                         _______ _______ _______ _____ _____    ______ ____
ROOT
ATOM      1  N   UNL     1      -2.832   7.289   0.721  0.00  0.00    -0.223 N 
ATOM      2  C   UNL     1      -2.622   7.247   2.073  0.00  0.00    +0.037 C 
ATOM      3  C   UNL     1      -1.425   6.873   2.571  0.00  0.00    +0.026 C 
ATOM      4  C   UNL     1      -0.289   6.490   1.655  0.00  0.00    +0.097 C 
ATOM      5  C   UNL     1      -0.529   6.986   0.260  0.00  0.00    +0.078 C 
ATOM      6  C   UNL     1      -1.770   7.357  -0.149  0.00  0.00    +0.117 C 
ATOM      7  C   UNL     1      -1.200   6.825   3.958  0.00  0.00    +0.162 C 
ATOM      8  O   UNL     1      -0.106   6.497   4.374  0.00  0.00    -0.292 OA
ATOM      9  C   UNL     1      -2.288   7.172   4.937  0.00  0.00    +0.088 C 
ATOM     10  C   UNL     1      -3.647   6.859   4.302  0.00  0.00    +0.032 C 
ATOM     11  C   UNL     1      -3.758   7.634   2.987  0.00  0.00    +0.061 C 
ENDROOT
BRANCH   4  12
ATOM     12  C   UNL     1      -0.159   4.989   1.631  0.00  0.00    -0.035 A 
ATOM     13  C   UNL     1       1.007   4.389   2.069  0.00  0.00    +0.005 A 
ATOM     14  C   UNL     1       1.127   3.013   2.046  0.00  0.00    +0.015 A 
ATOM     15  C   UNL     1       0.081   2.235   1.584  0.00  0.00    +0.018 A 
ATOM     16  C   UNL     1      -1.083   2.835   1.141  0.00  0.00    +0.015 A 
ATOM     17  C   UNL     1      -1.205   4.212   1.169  0.00  0.00    +0.005 A 
ATOM     18 BR   UNL     1       0.246   0.351   1.552  0.00  0.00    -0.050 Br
ENDBRANCH   4  12
BRANCH  10  19
ATOM     19  C   UNL     1      -4.752   7.284   5.235  0.00  0.00    -0.044 A 
ATOM     20  C   UNL     1      -4.846   8.602   5.640  0.00  0.00    +0.004 A 
ATOM     21  C   UNL     1      -5.862   8.992   6.492  0.00  0.00    +0.000 A 
ATOM     22  C   UNL     1      -6.777   8.062   6.947  0.00  0.00    +0.000 A 
ATOM     23  C   UNL     1      -6.680   6.743   6.546  0.00  0.00    +0.000 A 
ATOM     24  C   UNL     1      -5.667   6.354   5.691  0.00  0.00    +0.004 A 
ENDBRANCH  10  19
BRANCH   1  26
ATOM     25  C   UNL     1      -4.842   6.096   0.739  0.00  0.00    +0.128 C 
ATOM     26  N   UNL     1      -4.108   7.264   0.233  0.00  0.00    -0.227 NA
ATOM     27  C   UNL     1      -4.818   8.510   0.550  0.00  0.00    +0.128 C 
ENDBRANCH   1  26
BRANCH   6  28
ATOM     28  N   UNL     1      -1.965   7.799  -1.436  0.00  0.00    -0.344 N 
ATOM     29  H   UNL     1      -1.203   7.950  -2.017  0.00  0.00    +0.144 HD
ATOM     30  H   UNL     1      -2.864   7.961  -1.762  0.00  0.00    +0.144 HD
ENDBRANCH   6  28
BRANCH   5  31
ATOM     31  C   UNL     1       0.569   7.070  -0.656  0.00  0.00    +0.099 C 
ATOM     32  N   UNL     1       1.440   7.136  -1.382  0.00  0.00    -0.191 NA
ENDBRANCH   5  31
TORSDOF 5
