REMARK  Name = ZINC39663923
REMARK  14 active torsions:
REMARK  status: ('A' for Active; 'I' for Inactive)
REMARK    1  A    between atoms: C_1  and  N_2
REMARK    2  A    between atoms: N_2  and  C_3
REMARK    3  A    between atoms: N_2  and  C_4
REMARK    4  A    between atoms: C_4  and  C_6
REMARK    5  A    between atoms: C_4  and  C_33
REMARK    6  A    between atoms: C_6  and  N_7
REMARK    7  A    between atoms: C_8  and  C_10
REMARK    8  A    between atoms: C_21  and  C_23
REMARK    9  A    between atoms: C_23  and  C_24
REMARK   10  A    between atoms: C_24  and  C_25
REMARK   11  A    between atoms: C_28  and  O_31
REMARK   12  A    between atoms: O_31  and  C_32
REMARK   13  A    between atoms: C_36  and  O_39
REMARK   14  A    between atoms: O_39  and  C_40
REMARK                            x       y       z     vdW  Elec       q    Type
REMARK                         _______ _______ _______ _____ _____    ______ ____
ROOT
ATOM      1  C   UNL     1      -2.446   3.743  -2.908  0.00  0.00    +0.100 C 
ATOM      2  C   UNL     1      -3.032   4.521  -1.709  0.00  0.00    +0.121 C 
ATOM      3  N   UNL     1      -3.754   5.662  -2.319  0.00  0.00    -0.300 N 
ATOM      4  C   UNL     1      -4.396   5.089  -3.526  0.00  0.00    +0.115 C 
ATOM      5  C   UNL     1      -3.345   4.118  -4.099  0.00  0.00    -0.004 C 
ATOM      6  C   UNL     1      -4.026   2.873  -4.659  0.00  0.00    -0.010 C 
ATOM      7  C   UNL     1      -4.868   3.262  -5.877  0.00  0.00    -0.082 C 
ATOM      8  N   UNL     1      -4.005   3.871  -6.896  0.00  0.00    +0.379 N 
ATOM      9  C   UNL     1      -3.427   5.118  -6.381  0.00  0.00    -0.082 C 
ATOM     10  C   UNL     1      -2.524   4.808  -5.184  0.00  0.00    -0.010 C 
ATOM     11  C   UNL     1      -3.813   6.934  -1.877  0.00  0.00    +0.216 C 
ATOM     12  O   UNL     1      -4.452   7.761  -2.493  0.00  0.00    -0.276 OA
ATOM     13  H   UNL     1      -3.263   3.231  -7.134  0.00  0.00    -0.086 HD
ATOM     14  H   UNL     1      -4.551   4.071  -7.721  0.00  0.00    -0.086 HD
ENDROOT
BRANCH   1  16
ATOM     15  N   UNL     1      -1.591   1.442  -3.207  0.00  0.00    -0.316 N 
ATOM     16  C   UNL     1      -2.506   2.260  -2.652  0.00  0.00    +0.218 C 
ATOM     17  O   UNL     1      -3.379   1.802  -1.945  0.00  0.00    -0.275 OA
ATOM     18  H   UNL     1      -0.893   1.808  -3.773  0.00  0.00    +0.149 HD
BRANCH  15  19
ATOM     19  C   UNL     1      -1.649  -0.001  -2.958  0.00  0.00    +0.093 C 
BRANCH  19  20
ATOM     20  C   UNL     1      -0.575  -0.706  -3.788  0.00  0.00    -0.021 C 
BRANCH  20  21
ATOM     21  C   UNL     1       0.789  -0.263  -3.325  0.00  0.00    -0.059 A 
ATOM     22  C   UNL     1       1.350  -0.825  -2.193  0.00  0.00    +0.005 A 
ATOM     23  C   UNL     1       2.600  -0.421  -1.766  0.00  0.00    +0.046 A 
ATOM     24  C   UNL     1       3.292   0.550  -2.474  0.00  0.00    +0.120 A 
ATOM     25  C   UNL     1       2.728   1.113  -3.610  0.00  0.00    +0.046 A 
ATOM     26  C   UNL     1       1.480   0.701  -4.036  0.00  0.00    +0.005 A 
BRANCH  24  27
ATOM     27  O   UNL     1       4.522   0.951  -2.056  0.00  0.00    -0.495 OA
ATOM     28  C   UNL     1       5.177   1.954  -2.834  0.00  0.00    +0.277 C 
ENDBRANCH  24  27
ENDBRANCH  20  21
BRANCH  20  30
ATOM     29  C   UNL     1      -2.031  -2.592  -4.069  0.00  0.00    -0.096 C 
ATOM     30  N   UNL     1      -0.702  -2.160  -3.618  0.00  0.00    +0.382 N 
ATOM     31  C   UNL     1       0.330  -2.837  -4.416  0.00  0.00    -0.096 C 
ATOM     32  H   UNL     1      -0.583  -2.397  -2.645  0.00  0.00    -0.082 HD
ENDBRANCH  20  30
ENDBRANCH  19  20
ENDBRANCH  15  19
ENDBRANCH   1  16
BRANCH  11  33
ATOM     33  C   UNL     1      -3.086   7.329  -0.618  0.00  0.00    +0.100 C 
BRANCH  33  34
ATOM     34  C   UNL     1      -3.315   8.816  -0.342  0.00  0.00    +0.044 C 
BRANCH  34  35
ATOM     35  C   UNL     1      -2.587   9.211   0.918  0.00  0.00    -0.047 A 
ATOM     36  C   UNL     1      -3.224   9.117   2.141  0.00  0.00    +0.007 A 
ATOM     37  C   UNL     1      -2.559   9.478   3.297  0.00  0.00    +0.046 A 
ATOM     38  C   UNL     1      -1.251   9.936   3.229  0.00  0.00    +0.120 A 
ATOM     39  C   UNL     1      -0.615  10.030   2.000  0.00  0.00    +0.046 A 
ATOM     40  C   UNL     1      -1.282   9.662   0.848  0.00  0.00    +0.007 A 
BRANCH  38  41
ATOM     41  O   UNL     1      -0.596  10.293   4.365  0.00  0.00    -0.495 OA
ATOM     42  C   UNL     1       0.749  10.755   4.219  0.00  0.00    +0.277 C 
ENDBRANCH  38  41
ENDBRANCH  34  35
ENDBRANCH  33  34
ENDBRANCH  11  33
TORSDOF 10
