REMARK  Name = ZINC32572035
REMARK  5 active torsions:
REMARK  status: ('A' for Active; 'I' for Inactive)
REMARK    1  A    between atoms: C_1  and  C_2
REMARK    2  A    between atoms: C_2  and  C_4
REMARK    3  A    between atoms: C_2  and  S_20
REMARK    4  A    between atoms: N_9  and  C_10
REMARK    5  A    between atoms: S_20  and  C_21
REMARK                            x       y       z     vdW  Elec       q    Type
REMARK                         _______ _______ _______ _____ _____    ______ ____
ROOT
ATOM      1  C   UNL     1       0.584  -0.529  -1.317  0.00  0.00    +0.233 C 
ATOM      2  O   UNL     1      -0.148  -0.845  -2.230  0.00  0.00    -0.274 OA
ATOM      3  N   UNL     1       1.920  -0.642  -1.455  0.00  0.00    -0.239 N 
ATOM      4  C   UNL     1       2.442  -1.107  -2.607  0.00  0.00    +0.306 C 
ATOM      5  O   UNL     1       1.708  -1.424  -3.523  0.00  0.00    -0.252 OA
ATOM      6  N   UNL     1       3.778  -1.221  -2.745  0.00  0.00    -0.294 N 
ATOM      7  H   UNL     1       2.506  -0.390  -0.724  0.00  0.00    +0.159 HD
ATOM      8  H   UNL     1       4.364  -0.968  -2.014  0.00  0.00    +0.151 HD
ENDROOT
BRANCH   6   9
ATOM      9  C   UNL     1       4.345  -1.726  -3.998  0.00  0.00    +0.037 C 
ATOM     10  C   UNL     1       3.825  -3.141  -4.259  0.00  0.00    +0.029 C 
ATOM     11  C   UNL     1       4.417  -3.668  -5.567  0.00  0.00    -0.008 C 
ATOM     12  C   UNL     1       5.943  -3.697  -5.461  0.00  0.00    +0.007 C 
ATOM     13  C   UNL     1       6.463  -2.283  -5.200  0.00  0.00    -0.008 C 
ATOM     14  C   UNL     1       5.871  -1.755  -3.891  0.00  0.00    +0.029 C 
ATOM     15  C   UNL     1       6.049  -1.366  -6.353  0.00  0.00    +0.007 C 
ATOM     16  C   UNL     1       4.523  -1.337  -6.459  0.00  0.00    -0.008 C 
ATOM     17  C   UNL     1       4.003  -2.752  -6.720  0.00  0.00    +0.007 C 
ATOM     18  C   UNL     1       3.931  -0.809  -5.151  0.00  0.00    +0.029 C 
ENDBRANCH   6   9
BRANCH   1  20
ATOM     19  C   UNL     1      -0.020   1.521  -0.058  0.00  0.00    +0.029 C 
ATOM     20  C   UNL     1       0.001  -0.009  -0.029  0.00  0.00    +0.134 C 
BRANCH  20  21
ATOM     21  S   UNL     1      -1.692  -0.633   0.164  0.00  0.00    -0.113 S 
BRANCH  21  22
ATOM     22  C   UNL     1      -1.481  -2.361   0.434  0.00  0.00    +0.012 A 
ATOM     23  C   UNL     1      -0.205  -2.889   0.586  0.00  0.00    +0.018 A 
ATOM     24  C   UNL     1      -0.036  -4.245   0.798  0.00  0.00    +0.050 A 
ATOM     25  C   UNL     1      -1.142  -5.076   0.860  0.00  0.00    +0.162 A 
ATOM     26  C   UNL     1      -2.418  -4.551   0.710  0.00  0.00    +0.163 A 
ATOM     27  C   UNL     1      -2.592  -3.194   0.502  0.00  0.00    +0.064 A 
ATOM     28  O   UNL     1      -3.500  -5.381   0.775  0.00  0.00    -0.488 OA
ATOM     29  C   UNL     1      -3.642  -6.309  -0.303  0.00  0.00    +0.232 C 
ATOM     30  C   UNL     1      -2.811  -7.558  -0.051  0.00  0.00    +0.082 C 
ATOM     31  C   UNL     1      -1.319  -7.265  -0.029  0.00  0.00    +0.232 C 
ATOM     32  O   UNL     1      -0.985  -6.416   1.071  0.00  0.00    -0.488 OA
ENDBRANCH  21  22
ENDBRANCH  20  21
ENDBRANCH   1  20
TORSDOF 4
