REMARK  Name = ZINC00649021
REMARK  15 active torsions:
REMARK  status: ('A' for Active; 'I' for Inactive)
REMARK    1  A    between atoms: C_1  and  C_2
REMARK    2  A    between atoms: C_2  and  O_3
REMARK    3  A    between atoms: O_3  and  C_4
REMARK    4  A    between atoms: C_4  and  C_6
REMARK    5  A    between atoms: C_7  and  C_40
REMARK    6  A    between atoms: C_11  and  C_13
REMARK    7  A    between atoms: C_15  and  O_22
REMARK    8  A    between atoms: C_16  and  O_20
REMARK    9  A    between atoms: O_20  and  C_21
REMARK   10  A    between atoms: O_22  and  C_23
REMARK   11  A    between atoms: C_27  and  C_30
REMARK   12  A    between atoms: C_33  and  O_38
REMARK   13  A    between atoms: C_34  and  O_36
REMARK   14  A    between atoms: O_36  and  C_37
REMARK   15  A    between atoms: O_38  and  C_39
REMARK                            x       y       z     vdW  Elec       q    Type
REMARK                         _______ _______ _______ _____ _____    ______ ____
ROOT
ATOM      1  C   UNL     1      -2.797  -2.416   0.161  0.00  0.00    +0.065 C 
ATOM      2  C   UNL     1      -2.942  -3.729  -0.086  0.00  0.00    +0.016 C 
ATOM      3  N   UNL     1      -4.188  -4.272  -0.235  0.00  0.00    -0.321 N 
ATOM      4  C   UNL     1      -5.264  -3.479  -0.532  0.00  0.00    +0.016 C 
ATOM      5  C   UNL     1      -5.219  -2.150  -0.300  0.00  0.00    +0.024 C 
ATOM      6  C   UNL     1      -3.987  -1.513   0.296  0.00  0.00    +0.092 C 
ATOM      7  C   UNL     1      -6.317  -1.324  -0.598  0.00  0.00    +0.162 C 
ATOM      8  O   UNL     1      -6.239  -0.129  -0.392  0.00  0.00    -0.292 OA
ATOM      9  C   UNL     1      -7.589  -1.893  -1.167  0.00  0.00    +0.088 C 
ATOM     10  C   UNL     1      -7.738  -3.345  -0.699  0.00  0.00    +0.032 C 
ATOM     11  C   UNL     1      -6.492  -4.123  -1.126  0.00  0.00    +0.059 C 
ATOM     12  C   UNL     1      -1.724  -4.609  -0.201  0.00  0.00    +0.061 C 
ATOM     13  H   UNL     1      -4.312  -5.229  -0.129  0.00  0.00    +0.152 HD
ENDROOT
BRANCH   6  14
ATOM     14  C   UNL     1      -4.229  -1.228   1.756  0.00  0.00    -0.030 A 
ATOM     15  C   UNL     1      -4.193   0.074   2.220  0.00  0.00    +0.054 A 
ATOM     16  C   UNL     1      -4.415   0.339   3.561  0.00  0.00    +0.163 A 
ATOM     17  C   UNL     1      -4.675  -0.709   4.440  0.00  0.00    +0.175 A 
ATOM     18  C   UNL     1      -4.710  -2.012   3.969  0.00  0.00    +0.063 A 
ATOM     19  C   UNL     1      -4.492  -2.268   2.627  0.00  0.00    +0.023 A 
ATOM     20 BR   UNL     1      -5.063  -3.438   5.159  0.00  0.00    -0.046 Br
BRANCH  17  21
ATOM     21  O   UNL     1      -4.893  -0.454   5.758  0.00  0.00    -0.490 OA
ATOM     22  C   UNL     1      -6.244  -0.216   6.158  0.00  0.00    +0.277 C 
ENDBRANCH  17  21
BRANCH  16  23
ATOM     23  O   UNL     1      -4.378   1.619   4.019  0.00  0.00    -0.491 OA
ATOM     24  C   UNL     1      -4.106   2.643   3.060  0.00  0.00    +0.277 C 
ENDBRANCH  16  23
ENDBRANCH   6  14
BRANCH  10  25
ATOM     25  C   UNL     1      -8.963  -3.956  -1.329  0.00  0.00    -0.040 A 
ATOM     26  C   UNL     1      -9.060  -4.044  -2.705  0.00  0.00    +0.008 A 
ATOM     27  C   UNL     1     -10.182  -4.604  -3.287  0.00  0.00    +0.049 A 
ATOM     28  C   UNL     1     -11.211  -5.079  -2.492  0.00  0.00    +0.161 A 
ATOM     29  C   UNL     1     -11.114  -4.992  -1.106  0.00  0.00    +0.162 A 
ATOM     30  C   UNL     1      -9.985  -4.433  -0.529  0.00  0.00    +0.053 A 
BRANCH  29  31
ATOM     31  O   UNL     1     -12.122  -5.457  -0.321  0.00  0.00    -0.491 OA
ATOM     32  C   UNL     1     -11.953  -5.334   1.093  0.00  0.00    +0.277 C 
ENDBRANCH  29  31
BRANCH  28  33
ATOM     33  O   UNL     1     -12.316  -5.630  -3.063  0.00  0.00    -0.491 OA
ATOM     34  C   UNL     1     -12.348  -5.687  -4.491  0.00  0.00    +0.277 C 
ENDBRANCH  28  33
ENDBRANCH  10  25
BRANCH   1  35
ATOM     35  C   UNL     1      -1.497  -1.877   0.302  0.00  0.00    +0.338 C 
ATOM     36  O   UNL     1      -1.018  -1.202  -0.590  0.00  0.00    -0.245 OA
BRANCH  35  37
ATOM     37  O   UNL     1      -0.788  -2.111   1.427  0.00  0.00    -0.462 OA
BRANCH  37  39
ATOM     38  C   UNL     1       1.162  -1.906   2.839  0.00  0.00    +0.048 C 
ATOM     39  C   UNL     1       0.517  -1.535   1.502  0.00  0.00    +0.229 C 
ENDBRANCH  37  39
ENDBRANCH  35  37
ENDBRANCH   1  35
TORSDOF 9
