REMARK  Name = ZINC09724818
REMARK  6 active torsions:
REMARK  status: ('A' for Active; 'I' for Inactive)
REMARK    1  A    between atoms: C_1  and  C_2
REMARK    2  A    between atoms: C_5  and  S_9
REMARK    3  A    between atoms: S_9  and  N_12
REMARK    4  A    between atoms: N_12  and  C_13
REMARK    5  A    between atoms: C_17  and  C_19
REMARK    6  A    between atoms: N_21  and  N_22
REMARK                            x       y       z     vdW  Elec       q    Type
REMARK                         _______ _______ _______ _____ _____    ______ ____
ROOT
ATOM      1  C   UNL     1      -1.245   3.544   0.033  0.00  0.00    +0.049 A 
ATOM      2  C   UNL     1      -0.046   4.248   0.024  0.00  0.00    +0.024 A 
ATOM      3  C   UNL     1       1.159   3.571   0.010  0.00  0.00    +0.003 A 
ATOM      4  C   UNL     1       1.180   2.191   0.003  0.00  0.00    +0.013 A 
ATOM      5  C   UNL     1      -0.018   1.474   0.010  0.00  0.00    +0.040 A 
ATOM      6  C   UNL     1      -1.234   2.158   0.020  0.00  0.00    +0.037 A 
ENDROOT
BRANCH   5   7
ATOM      7  C   UNL     1       0.002  -0.004   0.002  0.00  0.00    +0.261 C 
ATOM      8  O   UNL     1      -1.042  -0.626   0.009  0.00  0.00    -0.269 OA
ATOM      9  N   UNL     1       1.178  -0.662  -0.013  0.00  0.00    -0.220 N 
ATOM     10  H   UNL     1       2.012  -0.166  -0.018  0.00  0.00    +0.174 HD
BRANCH   9  11
ATOM     11  N   UNL     1       1.197  -2.063  -0.021  0.00  0.00    -0.137 N 
ATOM     12  C   UNL     1       1.486  -2.811  -1.105  0.00  0.00    +0.263 C 
ATOM     13  O   UNL     1       1.768  -2.416  -2.216  0.00  0.00    -0.271 OA
ATOM     14  C   UNL     1       1.384  -4.247  -0.644  0.00  0.00    +0.114 C 
ATOM     15  C   UNL     1       2.728  -4.951  -0.797  0.00  0.00    +0.035 C 
ATOM     16  C   UNL     1       2.612  -6.393  -0.299  0.00  0.00    +0.003 C 
ATOM     17  C   UNL     1       1.539  -7.126  -1.107  0.00  0.00    +0.000 C 
ATOM     18  C   UNL     1       0.192  -6.423  -0.923  0.00  0.00    +0.003 C 
ATOM     19  C   UNL     1       0.299  -4.980  -1.424  0.00  0.00    +0.035 C 
ATOM     20  N   UNL     1       1.018  -4.141   0.774  0.00  0.00    -0.284 N 
ATOM     21  C   UNL     1       0.937  -2.825   1.049  0.00  0.00    +0.326 C 
ATOM     22  O   UNL     1       0.656  -2.379   2.144  0.00  0.00    -0.251 OA
ATOM     23  H   UNL     1       0.867  -4.873   1.392  0.00  0.00    +0.151 HD
ENDBRANCH   9  11
ENDBRANCH   5   7
BRANCH   1  24
ATOM     24  N   UNL     1      -2.460   4.233   0.047  0.00  0.00    -0.216 N 
ATOM     25  H   UNL     1      -3.169   3.953   0.647  0.00  0.00    +0.174 HD
BRANCH  24  26
ATOM     26  S   UNL     1      -2.689   5.529  -0.959  0.00  0.00    +0.072 S 
ATOM     27  O   UNL     1      -4.014   5.990  -0.730  0.00  0.00    -0.150 OA
ATOM     28  O   UNL     1      -1.553   6.368  -0.806  0.00  0.00    -0.150 OA
BRANCH  26  33
ATOM     29  C   UNL     1      -2.538   3.441  -6.619  0.00  0.00    +0.047 C 
ATOM     30  C   UNL     1      -2.576   3.962  -5.206  0.00  0.00    -0.015 A 
ATOM     31  C   UNL     1      -1.411   4.383  -4.592  0.00  0.00    +0.008 A 
ATOM     32  C   UNL     1      -1.448   4.867  -3.298  0.00  0.00    +0.029 A 
ATOM     33  C   UNL     1      -2.647   4.919  -2.611  0.00  0.00    +0.111 A 
ATOM     34  C   UNL     1      -3.812   4.498  -3.223  0.00  0.00    +0.067 A 
ATOM     35  C   UNL     1      -3.778   4.019  -4.521  0.00  0.00    +0.128 A 
ATOM     36  F   UNL     1      -4.917   3.608  -5.120  0.00  0.00    -0.205 F 
ENDBRANCH  26  33
ENDBRANCH  24  26
ENDBRANCH   1  24
TORSDOF 5
