REMARK  Name = ZINC22067537
REMARK  8 active torsions:
REMARK  status: ('A' for Active; 'I' for Inactive)
REMARK    1  A    between atoms: C_1  and  C_2
REMARK    2  A    between atoms: C_7  and  C_8
REMARK    3  A    between atoms: C_9  and  C_19
REMARK    4  A    between atoms: N_11  and  C_13
REMARK    5  A    between atoms: C_24  and  C_27
REMARK    6  A    between atoms: C_30  and  C_32
REMARK    7  A    between atoms: C_32  and  N_33
REMARK    8  A    between atoms: C_34  and  C_36
REMARK                            x       y       z     vdW  Elec       q    Type
REMARK                         _______ _______ _______ _____ _____    ______ ____
ROOT
ATOM      1  C   UNL     1       2.584  -0.416  -0.263  0.00  0.00    +0.253 C 
ATOM      2  O   UNL     1       2.856   0.767  -0.194  0.00  0.00    -0.270 OA
ATOM      3  N   UNL     1       3.560  -1.322  -0.469  0.00  0.00    -0.261 N 
ATOM      4  C   UNL     1       4.878  -0.904  -0.602  0.00  0.00    +0.165 A 
ATOM      5  N   UNL     1       5.965  -1.625  -0.806  0.00  0.00    -0.221 NA
ATOM      6  C   UNL     1       7.162  -1.052  -0.910  0.00  0.00    +0.115 A 
ATOM      7  C   UNL     1       7.262   0.310  -0.803  0.00  0.00    +0.080 A 
ATOM      8  S   UNL     1       5.548   0.751  -0.550  0.00  0.00    -0.060 S 
ATOM      9  H   UNL     1       3.314  -2.392  -0.532  0.00  0.00    +0.157 HD
ENDROOT
BRANCH   1  11
ATOM     10  C   UNL     1       0.032  -0.026   0.226  0.00  0.00    +0.105 A 
ATOM     11  C   UNL     1       1.187  -0.860  -0.122  0.00  0.00    +0.083 A 
ATOM     12  C   UNL     1       0.705  -2.142  -0.289  0.00  0.00    +0.128 A 
ATOM     13  N   UNL     1      -0.622  -2.115  -0.076  0.00  0.00    -0.239 N 
ATOM     14  N   UNL     1      -1.021  -0.813   0.239  0.00  0.00    -0.166 NA
BRANCH  10  21
ATOM     15  C   UNL     1      -1.834   1.715  -1.137  0.00  0.00    +0.044 C 
ATOM     16  C   UNL     1      -0.847   2.277  -0.147  0.00  0.00    -0.041 A 
ATOM     17  C   UNL     1      -0.831   3.631   0.121  0.00  0.00    +0.004 A 
ATOM     18  C   UNL     1       0.077   4.149   1.026  0.00  0.00    +0.000 A 
ATOM     19  C   UNL     1       0.971   3.314   1.672  0.00  0.00    +0.001 A 
ATOM     20  C   UNL     1       0.961   1.958   1.417  0.00  0.00    +0.010 A 
ATOM     21  C   UNL     1       0.047   1.430   0.505  0.00  0.00    +0.006 A 
ENDBRANCH  10  21
BRANCH  13  22
ATOM     22  C   UNL     1      -1.475  -3.223  -0.157  0.00  0.00    +0.065 A 
ATOM     23  C   UNL     1      -0.964  -4.472  -0.485  0.00  0.00    +0.028 A 
ATOM     24  C   UNL     1      -1.807  -5.563  -0.560  0.00  0.00    +0.002 A 
ATOM     25  C   UNL     1      -3.161  -5.411  -0.319  0.00  0.00    +0.000 A 
ATOM     26  C   UNL     1      -3.673  -4.168   0.004  0.00  0.00    +0.002 A 
ATOM     27  C   UNL     1      -2.834  -3.074   0.085  0.00  0.00    +0.028 A 
ENDBRANCH  13  22
ENDBRANCH   1  11
BRANCH   6  28
ATOM     28  C   UNL     1       8.368  -1.875  -1.137  0.00  0.00    +0.154 A 
ATOM     29  C   UNL     1       8.399  -3.229  -1.255  0.00  0.00    +0.052 A 
ATOM     30  C   UNL     1       9.746  -3.588  -1.466  0.00  0.00    +0.047 A 
ATOM     31  C   UNL     1      10.464  -2.448  -1.457  0.00  0.00    +0.123 A 
ATOM     32  O   UNL     1       9.627  -1.415  -1.259  0.00  0.00    -0.457 OA
BRANCH  31  33
ATOM     33  C   UNL     1      11.956  -2.348  -1.641  0.00  0.00    +0.178 C 
BRANCH  33  34
ATOM     34  N   UNL     1      12.264  -2.195  -3.065  0.00  0.00    -0.308 N 
ATOM     35  C   UNL     1      13.545  -2.086  -3.470  0.00  0.00    +0.210 C 
ATOM     36  O   UNL     1      14.443  -2.114  -2.655  0.00  0.00    -0.276 OA
ATOM     37  C   UNL     1      13.861  -1.928  -4.934  0.00  0.00    +0.109 C 
ATOM     38  H   UNL     1      11.450  -2.170  -3.804  0.00  0.00    +0.149 HD
ENDBRANCH  33  34
ENDBRANCH  31  33
ENDBRANCH   6  28
TORSDOF 6
