REMARK  Name = ZINC39685809
REMARK  12 active torsions:
REMARK  status: ('A' for Active; 'I' for Inactive)
REMARK    1  A    between atoms: C_1  and  C_2
REMARK    2  A    between atoms: C_5  and  C_10
REMARK    3  A    between atoms: C_14  and  C_23
REMARK    4  A    between atoms: N_25  and  C_26
REMARK    5  A    between atoms: C_26  and  C_28
REMARK    6  A    between atoms: C_26  and  C_31
REMARK    7  A    between atoms: C_28  and  C_29
REMARK    8  A    between atoms: C_28  and  C_30
REMARK    9  A    between atoms: N_33  and  C_34
REMARK   10  A    between atoms: C_34  and  C_35
REMARK   11  A    between atoms: C_34  and  C_36
REMARK   12  A    between atoms: C_34  and  C_37
REMARK                            x       y       z     vdW  Elec       q    Type
REMARK                         _______ _______ _______ _____ _____    ______ ____
ROOT
ATOM      1  C   UNL     1       0.213  -3.941   0.048  0.00  0.00    +0.250 C 
ATOM      2  O   UNL     1       0.194  -4.688   1.007  0.00  0.00    -0.270 OA
ATOM      3  N   UNL     1      -0.019  -4.424  -1.188  0.00  0.00    -0.296 N 
ATOM      4  C   UNL     1       0.075  -3.701  -2.478  0.00  0.00    +0.121 C 
ATOM      5  C   UNL     1       0.702  -4.722  -3.454  0.00  0.00    +0.100 C 
ATOM      6  C   UNL     1       0.369  -6.097  -2.850  0.00  0.00    -0.004 C 
ATOM      7  C   UNL     1      -0.419  -5.801  -1.566  0.00  0.00    +0.115 C 
ATOM      8  C   UNL     1       1.651  -6.851  -2.513  0.00  0.00    -0.010 C 
ATOM      9  C   UNL     1       1.295  -8.236  -1.968  0.00  0.00    -0.082 C 
ATOM     10  N   UNL     1       0.519  -8.975  -2.971  0.00  0.00    +0.379 N 
ATOM     11  C   UNL     1      -0.755  -8.291  -3.222  0.00  0.00    -0.082 C 
ATOM     12  C   UNL     1      -0.486  -6.907  -3.820  0.00  0.00    -0.010 C 
ATOM     13  H   UNL     1       1.046  -9.026  -3.830  0.00  0.00    -0.086 HD
ATOM     14  H   UNL     1       0.338  -9.908  -2.635  0.00  0.00    -0.086 HD
ENDROOT
BRANCH   1  19
ATOM     15  C   UNL     1       1.289   1.666   0.789  0.00  0.00    +0.047 C 
ATOM     16  C   UNL     1       1.009   0.198   0.596  0.00  0.00    -0.012 A 
ATOM     17  C   UNL     1       0.039  -0.207  -0.305  0.00  0.00    +0.007 A 
ATOM     18  C   UNL     1      -0.224  -1.547  -0.487  0.00  0.00    +0.016 A 
ATOM     19  C   UNL     1       0.491  -2.503   0.239  0.00  0.00    +0.075 A 
ATOM     20  C   UNL     1       1.470  -2.091   1.148  0.00  0.00    +0.171 A 
ATOM     21  C   UNL     1       1.727  -0.741   1.317  0.00  0.00    +0.162 A 
ATOM     22  F   UNL     1       2.676  -0.339   2.190  0.00  0.00    -0.202 F 
ATOM     23  F   UNL     1       2.166  -3.008   1.855  0.00  0.00    -0.202 F 
ENDBRANCH   1  19
BRANCH   5  24
ATOM     24  C   UNL     1       2.195  -4.527  -3.530  0.00  0.00    +0.219 C 
ATOM     25  O   UNL     1       2.807  -4.146  -2.554  0.00  0.00    -0.275 OA
ATOM     26  N   UNL     1       2.849  -4.777  -4.681  0.00  0.00    -0.303 N 
ATOM     27  H   UNL     1       2.372  -5.147  -5.440  0.00  0.00    +0.149 HD
BRANCH  26  28
ATOM     28  C   UNL     1       4.282  -4.489  -4.787  0.00  0.00    +0.161 C 
BRANCH  28  29
ATOM     29  C   UNL     1       4.575  -3.890  -6.138  0.00  0.00    +0.234 C 
ATOM     30  O   UNL     1       3.738  -3.932  -7.015  0.00  0.00    -0.274 OA
ATOM     31  N   UNL     1       5.768  -3.307  -6.372  0.00  0.00    -0.309 N 
ATOM     32  H   UNL     1       6.461  -3.332  -5.694  0.00  0.00    +0.149 HD
BRANCH  31  33
ATOM     33  C   UNL     1       6.017  -2.636  -7.651  0.00  0.00    +0.026 C 
ATOM     34  C   UNL     1       5.008  -1.501  -7.835  0.00  0.00    +0.031 C 
ATOM     35  C   UNL     1       7.436  -2.064  -7.658  0.00  0.00    +0.031 C 
ATOM     36  C   UNL     1       5.867  -3.643  -8.793  0.00  0.00    +0.031 C 
ENDBRANCH  31  33
ENDBRANCH  28  29
BRANCH  28  37
ATOM     37  C   UNL     1       5.076  -5.785  -4.620  0.00  0.00    +0.012 C 
ATOM     38  C   UNL     1       4.891  -6.318  -3.197  0.00  0.00    +0.009 C 
ATOM     39  C   UNL     1       4.573  -6.825  -5.623  0.00  0.00    +0.009 C 
ENDBRANCH  28  37
ENDBRANCH  26  28
ENDBRANCH   5  24
TORSDOF 6
