REMARK  Name = ZINC03551781
REMARK  15 active torsions:
REMARK  status: ('A' for Active; 'I' for Inactive)
REMARK    1  A    between atoms: C_1  and  C_2
REMARK    2  A    between atoms: C_2  and  C_3
REMARK    3  A    between atoms: C_3  and  C_5
REMARK    4  A    between atoms: C_3  and  N_62
REMARK    5  A    between atoms: C_8  and  S_17
REMARK    6  A    between atoms: N_9  and  C_10
REMARK    7  A    between atoms: C_10  and  C_11
REMARK    8  A    between atoms: S_17  and  C_18
REMARK    9  A    between atoms: C_18  and  C_19
REMARK   10  A    between atoms: C_19  and  C_21
REMARK   11  A    between atoms: C_22  and  N_31
REMARK   12  A    between atoms: N_23  and  C_30
REMARK   13  A    between atoms: N_26  and  C_29
REMARK   14  A    between atoms: C_32  and  N_62
REMARK   15  A    between atoms: C_33  and  N_62
REMARK                            x       y       z     vdW  Elec       q    Type
REMARK                         _______ _______ _______ _____ _____    ______ ____
ROOT
ATOM      1  C   UNL     1      -7.090   1.155   1.383  0.00  0.00    +0.121 A 
ATOM      2  N   UNL     1      -6.688   0.765   2.558  0.00  0.00    -0.135 NA
ATOM      3  N   UNL     1      -5.592   0.102   2.452  0.00  0.00    -0.123 NA
ATOM      4  C   UNL     1      -5.236   0.029   1.190  0.00  0.00    +0.192 A 
ATOM      5  N   UNL     1      -6.179   0.704   0.469  0.00  0.00    -0.303 N 
ENDROOT
BRANCH   1   6
ATOM      6  C   UNL     1      -8.331   1.957   1.084  0.00  0.00    +0.000 C 
BRANCH   6   9
ATOM      7  C   UNL     1      -9.730  -0.013   0.937  0.00  0.00    -0.096 C 
ATOM      8  C   UNL     1      -9.373   1.060   3.078  0.00  0.00    -0.096 C 
ATOM      9  N   UNL     1      -9.529   1.279   1.624  0.00  0.00    +0.383 N 
ATOM     10  H   UNL     1     -10.350   1.874   1.463  0.00  0.00    -0.082 HD
ENDBRANCH   6   9
BRANCH   6  12
ATOM     11  C   UNL     1      -9.438   4.179   1.366  0.00  0.00    +0.002 C 
ATOM     12  C   UNL     1      -8.212   3.340   1.729  0.00  0.00    -0.011 C 
ENDBRANCH   6  12
ENDBRANCH   1   6
BRANCH   5  13
ATOM     13  C   UNL     1      -6.210   0.897  -0.983  0.00  0.00    +0.160 C 
BRANCH  13  14
ATOM     14  C   UNL     1      -5.480   2.167  -1.336  0.00  0.00    -0.028 A 
ATOM     15  C   UNL     1      -4.124   2.133  -1.603  0.00  0.00    +0.005 A 
ATOM     16  C   UNL     1      -3.455   3.297  -1.932  0.00  0.00    +0.000 A 
ATOM     17  C   UNL     1      -4.141   4.496  -1.990  0.00  0.00    +0.000 A 
ATOM     18  C   UNL     1      -5.495   4.531  -1.718  0.00  0.00    +0.000 A 
ATOM     19  C   UNL     1      -6.165   3.367  -1.389  0.00  0.00    +0.005 A 
ENDBRANCH  13  14
ENDBRANCH   5  13
BRANCH   4  20
ATOM     20  S   UNL     1      -3.810  -0.784   0.549  0.00  0.00    -0.078 S 
BRANCH  20  21
ATOM     21  C   UNL     1      -3.092  -1.417   2.085  0.00  0.00    +0.157 C 
BRANCH  21  22
ATOM     22  C   UNL     1      -1.824  -2.170   1.774  0.00  0.00    +0.182 C 
ATOM     23  O   UNL     1      -1.443  -2.269   0.625  0.00  0.00    -0.291 OA
BRANCH  22  24
ATOM     24  C   UNL     1      -1.079  -2.760   2.818  0.00  0.00    +0.120 A 
ATOM     25  C   UNL     1       0.168  -3.359   2.570  0.00  0.00    +0.116 A 
ATOM     26  N   UNL     1       0.854  -3.912   3.614  0.00  0.00    -0.284 N 
ATOM     27  C   UNL     1       0.355  -3.902   4.860  0.00  0.00    +0.333 A 
ATOM     28  O   UNL     1       1.002  -4.412   5.753  0.00  0.00    -0.246 OA
ATOM     29  N   UNL     1      -0.833  -3.350   5.155  0.00  0.00    -0.263 N 
ATOM     30  C   UNL     1      -1.586  -2.773   4.196  0.00  0.00    +0.269 A 
ATOM     31  O   UNL     1      -2.662  -2.273   4.468  0.00  0.00    -0.267 OA
ATOM     32  C   UNL     1      -1.318  -3.375   6.538  0.00  0.00    +0.157 C 
ATOM     33  C   UNL     1       2.157  -4.534   3.367  0.00  0.00    +0.155 C 
BRANCH  25  34
ATOM     34  N   UNL     1       0.686  -3.382   1.312  0.00  0.00    -0.344 N 
ATOM     35  H   UNL     1       0.409  -2.719   0.661  0.00  0.00    +0.144 HD
ATOM     36  H   UNL     1       1.332  -4.063   1.067  0.00  0.00    +0.144 HD
ENDBRANCH  25  34
ENDBRANCH  22  24
ENDBRANCH  21  22
ENDBRANCH  20  21
ENDBRANCH   4  20
TORSDOF 10
