REMARK  Name = ZINC16682569
REMARK  7 active torsions:
REMARK  status: ('A' for Active; 'I' for Inactive)
REMARK    1  A    between atoms: C_1  and  C_2
REMARK    2  A    between atoms: C_2  and  O_3
REMARK    3  A    between atoms: O_3  and  C_4
REMARK    4  A    between atoms: C_4  and  C_6
REMARK    5  A    between atoms: C_7  and  N_17
REMARK    6  A    between atoms: C_18  and  C_19
REMARK    7  A    between atoms: C_21  and  N_26
REMARK                            x       y       z     vdW  Elec       q    Type
REMARK                         _______ _______ _______ _____ _____    ______ ____
ROOT
ATOM      1  C   UNL     1       1.190   6.375   0.236  0.00  0.00    +0.072 C 
ATOM      2  C   UNL     1       2.294   5.563   0.101  0.00  0.00    +0.107 C 
ATOM      3  S   UNL     1       3.705   6.651   0.124  0.00  0.00    -0.101 S 
ATOM      4  C   UNL     1       2.844   8.253   0.267  0.00  0.00    +0.061 C 
ATOM      5  C   UNL     1       1.395   7.854   0.402  0.00  0.00    +0.042 C 
ATOM      6  C   UNL     1       0.694   8.297   1.671  0.00  0.00    +0.009 C 
ATOM      7  C   UNL     1       1.290   9.542   2.292  0.00  0.00    +0.001 C 
ATOM      8  C   UNL     1       2.764   9.228   2.593  0.00  0.00    +0.001 C 
ATOM      9  C   UNL     1       3.487   9.171   1.250  0.00  0.00    +0.015 C 
ENDROOT
BRANCH   1  10
ATOM     10  C   UNL     1      -0.100   5.832   0.218  0.00  0.00    +0.338 C 
ATOM     11  O   UNL     1      -0.252   4.623   0.184  0.00  0.00    -0.245 OA
BRANCH  10  12
ATOM     12  O   UNL     1      -1.177   6.648   0.239  0.00  0.00    -0.462 OA
BRANCH  12  14
ATOM     13  C   UNL     1      -3.551   7.101   0.248  0.00  0.00    +0.048 C 
ATOM     14  C   UNL     1      -2.463   6.025   0.219  0.00  0.00    +0.229 C 
ENDBRANCH  12  14
ENDBRANCH  10  12
ENDBRANCH   1  10
BRANCH   2  15
ATOM     15  N   UNL     1       2.306   4.219  -0.019  0.00  0.00    -0.248 NA
ATOM     16  C   UNL     1       3.445   3.574  -0.042  0.00  0.00    +0.123 C 
BRANCH  16  17
ATOM     17  C   UNL     1       3.457   2.107  -0.061  0.00  0.00    +0.043 A 
ATOM     18  C   UNL     1       4.672   1.412  -0.086  0.00  0.00    +0.046 A 
ATOM     19  C   UNL     1       4.675   0.035  -0.103  0.00  0.00    +0.128 A 
ATOM     20  C   UNL     1       3.480  -0.668  -0.097  0.00  0.00    +0.051 A 
ATOM     21  C   UNL     1       2.273   0.003  -0.072  0.00  0.00    +0.067 A 
ATOM     22  C   UNL     1       2.248   1.390  -0.054  0.00  0.00    +0.201 A 
ATOM     23 BR   UNL     1       0.652  -0.970  -0.061  0.00  0.00    -0.046 Br
ATOM     24  O   UNL     1       1.064   2.051  -0.030  0.00  0.00    -0.286 OA
BRANCH  19  25
ATOM     25  N   UNL     1       5.960  -0.698  -0.130  0.00  0.00    +0.056 N 
ATOM     26  O   UNL     1       7.012  -0.084  -0.137  0.00  0.00    -0.126 OA
ATOM     27  O   UNL     1       5.967  -1.916  -0.146  0.00  0.00    -0.126 OA
ENDBRANCH  19  25
ENDBRANCH  16  17
ENDBRANCH   2  15
TORSDOF 6
