REMARK  Name = ZINC43573238
REMARK  4 active torsions:
REMARK  status: ('A' for Active; 'I' for Inactive)
REMARK    1  A    between atoms: C_1  and  C_2
REMARK    2  A    between atoms: C_2  and  C_3
REMARK    3  A    between atoms: N_15  and  C_16
REMARK    4  A    between atoms: C_19  and  N_22
REMARK                            x       y       z     vdW  Elec       q    Type
REMARK                         _______ _______ _______ _____ _____    ______ ____
ROOT
ATOM      1  C   UNL     1      -1.741  -0.941   2.392  0.00  0.00    +0.108 C 
ATOM      2  C   UNL     1      -0.304  -1.125   2.877  0.00  0.00    -0.017 A 
ATOM      3  C   UNL     1       0.039  -1.933   3.960  0.00  0.00    +0.013 A 
ATOM      4  C   UNL     1       1.334  -2.052   4.331  0.00  0.00    +0.046 A 
ATOM      5  S   UNL     1       2.157  -1.005   3.140  0.00  0.00    -0.101 S 
ATOM      6  C   UNL     1       0.717  -0.486   2.244  0.00  0.00    -0.004 A 
ATOM      7  C   UNL     1       0.637   0.437   1.072  0.00  0.00    +0.062 C 
ATOM      8  C   UNL     1      -0.736   0.266   0.404  0.00  0.00    +0.115 C 
ATOM      9  N   UNL     1      -1.759   0.194   1.459  0.00  0.00    -0.278 N 
ATOM     10  C   UNL     1      -2.698   1.155   1.570  0.00  0.00    +0.307 C 
ATOM     11  O   UNL     1      -2.647   2.139   0.858  0.00  0.00    -0.252 OA
ATOM     12  N   UNL     1      -3.693   1.024   2.469  0.00  0.00    -0.269 N 
ATOM     13  H   UNL     1      -3.679   0.291   3.105  0.00  0.00    +0.156 HD
ENDROOT
BRANCH  12  14
ATOM     14  C   UNL     1      -4.749   1.945   2.485  0.00  0.00    +0.035 A 
ATOM     15  C   UNL     1      -5.195   2.510   1.297  0.00  0.00    +0.025 A 
ATOM     16  C   UNL     1      -6.235   3.418   1.313  0.00  0.00    +0.025 A 
ATOM     17  C   UNL     1      -6.835   3.766   2.516  0.00  0.00    +0.036 A 
ATOM     18  C   UNL     1      -6.388   3.201   3.704  0.00  0.00    +0.025 A 
ATOM     19  C   UNL     1      -5.352   2.289   3.687  0.00  0.00    +0.025 A 
BRANCH  17  20
ATOM     20  N   UNL     1      -7.889   4.688   2.532  0.00  0.00    -0.271 N 
ATOM     21  C   UNL     1      -8.666   5.037   3.728  0.00  0.00    +0.114 C 
ATOM     22  C   UNL     1      -9.386   6.359   3.380  0.00  0.00    +0.029 C 
ATOM     23  C   UNL     1      -9.465   6.278   1.838  0.00  0.00    +0.098 C 
ATOM     24  C   UNL     1      -8.317   5.370   1.456  0.00  0.00    +0.220 C 
ATOM     25  O   UNL     1      -7.851   5.271   0.340  0.00  0.00    -0.275 OA
ENDBRANCH  17  20
ENDBRANCH  12  14
BRANCH   1  27
ATOM     26  C   UNL     1      -3.684  -2.055   1.286  0.00  0.00    +0.006 C 
ATOM     27  C   UNL     1      -2.213  -2.208   1.676  0.00  0.00    +0.024 C 
ENDBRANCH   1  27
TORSDOF 3
