REMARK  Name = ZINC05028048
REMARK  6 active torsions:
REMARK  status: ('A' for Active; 'I' for Inactive)
REMARK    1  A    between atoms: C_1  and  C_2
REMARK    2  A    between atoms: C_9  and  C_12
REMARK    3  A    between atoms: C_12  and  C_25
REMARK    4  A    between atoms: C_13  and  C_14
REMARK    5  A    between atoms: C_15  and  C_16
REMARK    6  A    between atoms: C_21  and  N_22
REMARK                            x       y       z     vdW  Elec       q    Type
REMARK                         _______ _______ _______ _____ _____    ______ ____
ROOT
ATOM      1  C   UNL     1       1.477   0.127  -1.442  0.00  0.00    +0.094 C 
ATOM      2  C   UNL     1       0.412   1.001  -1.341  0.00  0.00    +0.022 C 
ENDROOT
BRANCH   1  11
ATOM      3  C   UNL     1      -1.081  -6.703  -0.317  0.00  0.00    +0.044 C 
ATOM      4  C   UNL     1      -0.125  -5.561  -0.545  0.00  0.00    -0.048 A 
ATOM      5  C   UNL     1       1.239  -5.810  -0.612  0.00  0.00    +0.005 A 
ATOM      6  C   UNL     1       2.129  -4.777  -0.819  0.00  0.00    +0.028 A 
ATOM      7  C   UNL     1       1.657  -3.480  -0.962  0.00  0.00    +0.066 A 
ATOM      8  C   UNL     1       0.275  -3.227  -0.894  0.00  0.00    +0.090 A 
ATOM      9  C   UNL     1      -0.609  -4.291  -0.683  0.00  0.00    +0.033 A 
ATOM     10  N   UNL     1       0.102  -1.894  -1.058  0.00  0.00    -0.227 NA
ATOM     11  C   UNL     1       1.269  -1.315  -1.229  0.00  0.00    +0.150 A 
ATOM     12  N   UNL     1       2.264  -2.257  -1.174  0.00  0.00    -0.337 N 
ATOM     13  H   UNL     1       3.245  -2.090  -1.270  0.00  0.00    +0.167 HD
ENDBRANCH   1  11
BRANCH   2  14
ATOM     14  C   UNL     1      -0.831   0.543  -0.870  0.00  0.00    +0.002 C 
ATOM     15  C   UNL     1      -1.867   1.408  -0.741  0.00  0.00    +0.010 C 
BRANCH  15  16
ATOM     16  C   UNL     1      -3.168   0.928  -0.253  0.00  0.00    +0.005 A 
ATOM     17  C   UNL     1      -3.423  -0.445  -0.163  0.00  0.00    +0.010 A 
ATOM     18  C   UNL     1      -4.645  -0.887   0.296  0.00  0.00    +0.001 A 
ATOM     19  C   UNL     1      -5.620   0.024   0.666  0.00  0.00    +0.002 A 
ATOM     20  C   UNL     1      -5.377   1.384   0.579  0.00  0.00    +0.033 A 
ATOM     21  C   UNL     1      -4.157   1.842   0.128  0.00  0.00    +0.133 A 
BRANCH  21  22
ATOM     22  N   UNL     1      -3.897   3.297   0.042  0.00  0.00    +0.057 N 
ATOM     23  O   UNL     1      -2.802   3.739   0.343  0.00  0.00    -0.126 OA
ATOM     24  O   UNL     1      -4.777   4.053  -0.330  0.00  0.00    -0.126 OA
ENDBRANCH  21  22
ENDBRANCH  15  16
ENDBRANCH   2  14
BRANCH   1  25
ATOM     25  C   UNL     1       2.784   0.623  -1.754  0.00  0.00    +0.103 C 
ATOM     26  N   UNL     1       3.820   1.017  -2.001  0.00  0.00    -0.191 NA
ENDBRANCH   1  25
TORSDOF 5
