REMARK  Name = ZINC33033012
REMARK  5 active torsions:
REMARK  status: ('A' for Active; 'I' for Inactive)
REMARK    1  A    between atoms: C_4  and  S_7
REMARK    2  A    between atoms: S_7  and  N_10
REMARK    3  A    between atoms: N_10  and  C_11
REMARK    4  A    between atoms: C_13  and  C_23
REMARK    5  A    between atoms: C_16  and  N_17
REMARK                            x       y       z     vdW  Elec       q    Type
REMARK                         _______ _______ _______ _____ _____    ______ ____
ROOT
ATOM      1  C   UNL     1       3.762   0.526  -2.803  0.00  0.00    +0.070 A 
ATOM      2  C   UNL     1       4.502   1.571  -2.284  0.00  0.00    +0.039 A 
ATOM      3  C   UNL     1       5.401   2.261  -3.103  0.00  0.00    +0.039 A 
ATOM      4  C   UNL     1       5.548   1.892  -4.442  0.00  0.00    +0.015 A 
ATOM      5  C   UNL     1       4.808   0.850  -4.956  0.00  0.00    +0.026 A 
ATOM      6  C   UNL     1       3.918   0.158  -4.143  0.00  0.00    +0.052 A 
ENDROOT
BRANCH   3   7
ATOM      7  C   UNL     1       6.194   3.377  -2.553  0.00  0.00    +0.247 C 
ATOM      8  O   UNL     1       6.460   3.408  -1.367  0.00  0.00    -0.270 OA
ATOM      9  N   UNL     1       6.623   4.364  -3.365  0.00  0.00    -0.298 N 
ATOM     10  C   UNL     1       6.458   4.207  -4.793  0.00  0.00    +0.108 C 
ATOM     11  C   UNL     1       7.691   3.497  -5.390  0.00  0.00    +0.019 C 
ATOM     12  C   UNL     1       8.854   4.398  -5.377  0.00  0.00    +0.002 C 
ATOM     13  C   UNL     1       9.301   4.827  -3.983  0.00  0.00    +0.002 C 
ATOM     14  C   UNL     1       8.489   6.021  -3.543  0.00  0.00    +0.019 C 
ATOM     15  C   UNL     1       7.247   5.557  -2.761  0.00  0.00    +0.108 C 
ENDBRANCH   3   7
BRANCH   6  16
ATOM     16  N   UNL     1       3.176  -0.899  -4.665  0.00  0.00    -0.332 N 
ATOM     17  C   UNL     1       3.272  -0.937  -6.130  0.00  0.00    +0.086 C 
ATOM     18  C   UNL     1       2.383  -2.060  -6.669  0.00  0.00    -0.063 C 
ATOM     19  N   UNL     1       2.806  -3.340  -6.083  0.00  0.00    +0.381 N 
ATOM     20  C   UNL     1       2.711  -3.303  -4.617  0.00  0.00    -0.063 C 
ATOM     21  C   UNL     1       3.600  -2.179  -4.079  0.00  0.00    +0.086 C 
ATOM     22  H   UNL     1       2.160  -4.147  -6.459  0.00  0.00    -0.086 HD
ATOM     23  H   UNL     1       3.850  -3.544  -6.364  0.00  0.00    -0.086 HD
ENDBRANCH   6  16
BRANCH   1  24
ATOM     24  N   UNL     1       2.860  -0.168  -1.987  0.00  0.00    -0.214 N 
ATOM     25  H   UNL     1       3.045  -1.222  -1.735  0.00  0.00    +0.174 HD
BRANCH  24  26
ATOM     26  S   UNL     1       1.516   0.600  -1.399  0.00  0.00    +0.072 S 
ATOM     27  O   UNL     1       1.968   1.800  -0.786  0.00  0.00    -0.150 OA
ATOM     28  O   UNL     1       0.764  -0.379  -0.695  0.00  0.00    -0.150 OA
BRANCH  26  32
ATOM     29  C   UNL     1      -0.987   1.832  -4.965  0.00  0.00    +0.000 A 
ATOM     30  C   UNL     1      -0.026   2.692  -4.464  0.00  0.00    +0.002 A 
ATOM     31  C   UNL     1       0.738   2.315  -3.375  0.00  0.00    +0.029 A 
ATOM     32  C   UNL     1       0.542   1.080  -2.787  0.00  0.00    +0.108 A 
ATOM     33  C   UNL     1      -0.419   0.221  -3.287  0.00  0.00    +0.029 A 
ATOM     34  C   UNL     1      -1.183   0.597  -4.376  0.00  0.00    +0.002 A 
ENDBRANCH  26  32
ENDBRANCH  24  26
ENDBRANCH   1  24
TORSDOF 5
