REMARK  Name = ZINC51678732
REMARK  7 active torsions:
REMARK  status: ('A' for Active; 'I' for Inactive)
REMARK    1  A    between atoms: C_1  and  C_2
REMARK    2  A    between atoms: C_2  and  C_3
REMARK    3  A    between atoms: C_3  and  C_4
REMARK    4  A    between atoms: C_7  and  C_10
REMARK    5  A    between atoms: C_10  and  C_12
REMARK    6  A    between atoms: C_10  and  N_17
REMARK    7  A    between atoms: C_24  and  C_27
REMARK                            x       y       z     vdW  Elec       q    Type
REMARK                         _______ _______ _______ _____ _____    ______ ____
ROOT
ATOM      1  C   UNL     1       0.817  -6.288   1.209  0.00  0.00    +0.142 C 
ENDROOT
BRANCH   1   2
ATOM      2  N   UNL     1       1.289  -6.763  -0.094  0.00  0.00    -0.288 N 
ATOM      3  C   UNL     1       0.940  -7.989  -0.531  0.00  0.00    +0.303 C 
ATOM      4  O   UNL     1       0.311  -8.736   0.193  0.00  0.00    -0.253 OA
ATOM      5  N   UNL     1       1.290  -8.388  -1.770  0.00  0.00    -0.280 N 
ATOM      6  C   UNL     1       2.152  -7.551  -2.620  0.00  0.00    +0.137 C 
ATOM      7  C   UNL     1       3.298  -8.421  -3.150  0.00  0.00    +0.180 C 
ATOM      8  O   UNL     1       2.756  -9.595  -3.757  0.00  0.00    -0.364 OA
ATOM      9  C   UNL     1       2.031 -10.438  -2.858  0.00  0.00    +0.221 C 
ATOM     10  C   UNL     1       0.825  -9.675  -2.311  0.00  0.00    +0.150 C 
ATOM     11  H   UNL     1       1.852  -6.194  -0.643  0.00  0.00    +0.151 HD
BRANCH   9  12
ATOM     12  C   UNL     1       1.562 -11.669  -3.590  0.00  0.00    +0.241 C 
ATOM     13  O   UNL     1       1.742 -11.770  -4.785  0.00  0.00    -0.273 OA
ATOM     14  N   UNL     1       0.941 -12.658  -2.916  0.00  0.00    -0.327 N 
ATOM     15  H   UNL     1       0.797 -12.577  -1.960  0.00  0.00    +0.145 HD
ATOM     16  H   UNL     1       0.639 -13.450  -3.387  0.00  0.00    +0.145 HD
ENDBRANCH   9  12
ENDBRANCH   1   2
BRANCH   1  20
ATOM     17  C   UNL     1       0.743  -2.017   1.228  0.00  0.00    -0.047 A 
ATOM     18  C   UNL     1      -0.278  -2.729   1.830  0.00  0.00    +0.004 A 
ATOM     19  C   UNL     1      -0.254  -4.111   1.824  0.00  0.00    +0.006 A 
ATOM     20  C   UNL     1       0.791  -4.781   1.215  0.00  0.00    -0.022 A 
ATOM     21  C   UNL     1       1.811  -4.069   0.612  0.00  0.00    +0.006 A 
ATOM     22  C   UNL     1       1.785  -2.687   0.615  0.00  0.00    +0.004 A 
BRANCH  17  23
ATOM     23  C   UNL     1       0.717  -0.510   1.235  0.00  0.00    +0.035 C 
BRANCH  23  25
ATOM     24  C   UNL     1      -0.053   1.523   0.004  0.00  0.00    +0.004 C 
ATOM     25  C   UNL     1      -0.027  -0.007  -0.004  0.00  0.00    +0.001 C 
ENDBRANCH  23  25
ENDBRANCH  17  23
ENDBRANCH   1  20
BRANCH   1  26
ATOM     26  C   UNL     1       1.747  -6.778   2.289  0.00  0.00    +0.014 A 
ATOM     27  C   UNL     1       1.447  -7.251   3.523  0.00  0.00    +0.013 A 
ATOM     28  C   UNL     1       2.476  -7.650   4.356  0.00  0.00    +0.008 A 
ATOM     29  C   UNL     1       3.753  -7.557   3.914  0.00  0.00    +0.045 A 
ATOM     30  S   UNL     1       3.528  -6.895   2.271  0.00  0.00    -0.099 S 
ENDBRANCH   1  26
TORSDOF 6
