REMARK  Name = ZINC00936064
REMARK  7 active torsions:
REMARK  status: ('A' for Active; 'I' for Inactive)
REMARK    1  A    between atoms: C_1  and  C_2
REMARK    2  A    between atoms: C_3  and  C_20
REMARK    3  A    between atoms: C_5  and  N_10
REMARK    4  A    between atoms: C_6  and  C_7
REMARK    5  A    between atoms: C_11  and  C_13
REMARK    6  A    between atoms: C_14  and  C_15
REMARK    7  A    between atoms: C_20  and  C_21
REMARK                            x       y       z     vdW  Elec       q    Type
REMARK                         _______ _______ _______ _____ _____    ______ ____
ROOT
ATOM      1  C   UNL     1      -0.013   1.086   0.008  0.00  0.00    +0.045 C 
ATOM      2  C   UNL     1      -0.718   1.572   1.248  0.00  0.00    -0.026 A 
ATOM      3  C   UNL     1      -2.045   1.792   1.259  0.00  0.00    -0.000 A 
ATOM      4  S   UNL     1      -2.356   2.338   2.925  0.00  0.00    -0.077 S 
ATOM      5  C   UNL     1      -0.746   2.272   3.557  0.00  0.00    +0.085 A 
ATOM      6  C   UNL     1       0.003   1.826   2.473  0.00  0.00    +0.068 A 
ENDROOT
BRANCH   6   7
ATOM      7  C   UNL     1       1.451   1.624   2.569  0.00  0.00    +0.244 C 
ATOM      8  O   UNL     1       2.212   2.538   2.308  0.00  0.00    -0.270 OA
ATOM      9  N   UNL     1       1.941   0.426   2.946  0.00  0.00    -0.325 N 
ATOM     10  H   UNL     1       1.335  -0.302   3.154  0.00  0.00    +0.145 HD
ATOM     11  H   UNL     1       2.899   0.293   3.010  0.00  0.00    +0.145 HD
ENDBRANCH   6   7
BRANCH   5  12
ATOM     12  N   UNL     1      -0.308   2.587   4.832  0.00  0.00    -0.276 N 
ATOM     13  C   UNL     1      -1.189   3.007   5.762  0.00  0.00    +0.241 C 
ATOM     14  O   UNL     1      -2.369   3.110   5.480  0.00  0.00    -0.270 OA
ATOM     15  H   UNL     1       0.632   2.505   5.057  0.00  0.00    +0.156 HD
BRANCH  13  16
ATOM     16  C   UNL     1      -0.742   3.329   7.064  0.00  0.00    +0.068 C 
ATOM     17  C   UNL     1      -1.629   3.752   8.001  0.00  0.00    +0.020 C 
BRANCH  17  18
ATOM     18  C   UNL     1      -1.182   4.074   9.305  0.00  0.00    +0.012 A 
ATOM     19  C   UNL     1      -1.916   4.520  10.398  0.00  0.00    +0.015 A 
ATOM     20  C   UNL     1      -1.223   4.759  11.557  0.00  0.00    +0.008 A 
ATOM     21  C   UNL     1       0.120   4.553  11.584  0.00  0.00    +0.046 A 
ATOM     22  S   UNL     1       0.469   4.005   9.976  0.00  0.00    -0.097 S 
ENDBRANCH  17  18
ENDBRANCH  13  16
ENDBRANCH   5  12
BRANCH   3  23
ATOM     23  C   UNL     1      -3.031   1.618   0.133  0.00  0.00    +0.077 C 
BRANCH  23  24
ATOM     24  C   UNL     1      -3.580   0.214   0.158  0.00  0.00    -0.043 A 
ATOM     25  C   UNL     1      -2.949  -0.788  -0.554  0.00  0.00    +0.004 A 
ATOM     26  C   UNL     1      -3.449  -2.076  -0.526  0.00  0.00    +0.000 A 
ATOM     27  C   UNL     1      -4.587  -2.360   0.205  0.00  0.00    +0.000 A 
ATOM     28  C   UNL     1      -5.221  -1.356   0.914  0.00  0.00    +0.000 A 
ATOM     29  C   UNL     1      -4.718  -0.069   0.890  0.00  0.00    +0.004 A 
ENDBRANCH  23  24
ENDBRANCH   3  23
TORSDOF 6
