REMARK  Name = ZINC07872638
REMARK  10 active torsions:
REMARK  status: ('A' for Active; 'I' for Inactive)
REMARK    1  A    between atoms: C_1  and  C_2
REMARK    2  A    between atoms: C_2  and  C_3
REMARK    3  A    between atoms: C_6  and  C_9
REMARK    4  A    between atoms: C_9  and  C_11
REMARK    5  A    between atoms: C_9  and  N_14
REMARK    6  A    between atoms: C_11  and  C_12
REMARK    7  A    between atoms: C_11  and  C_13
REMARK    8  A    between atoms: N_14  and  C_15
REMARK    9  A    between atoms: C_15  and  C_16
REMARK   10  A    between atoms: C_22  and  C_27
REMARK                            x       y       z     vdW  Elec       q    Type
REMARK                         _______ _______ _______ _____ _____    ______ ____
ROOT
ATOM      1  N   UNL     1       3.482  -2.999  -4.557  0.00  0.00    +0.387 N 
ATOM      2  H   UNL     1       4.206  -3.115  -5.250  0.00  0.00    -0.084 HD
ATOM      3  H   UNL     1       3.896  -2.705  -3.685  0.00  0.00    -0.084 HD
ENDROOT
BRANCH   1   4
ATOM      4  C   UNL     1       2.526  -1.981  -5.013  0.00  0.00    -0.038 C 
BRANCH   4   8
ATOM      5  C   UNL     1      -0.334  -1.233  -1.930  0.00  0.00    -0.048 A 
ATOM      6  C   UNL     1      -0.740  -1.288  -3.250  0.00  0.00    +0.004 A 
ATOM      7  C   UNL     1       0.186  -1.530  -4.248  0.00  0.00    +0.002 A 
ATOM      8  C   UNL     1       1.517  -1.716  -3.925  0.00  0.00    -0.061 A 
ATOM      9  C   UNL     1       1.923  -1.660  -2.605  0.00  0.00    +0.002 A 
ATOM     10  C   UNL     1       0.998  -1.414  -1.608  0.00  0.00    +0.004 A 
BRANCH   5  12
ATOM     11  C   UNL     1      -1.460   0.538  -0.609  0.00  0.00    +0.009 C 
ATOM     12  C   UNL     1      -1.343  -0.969  -0.842  0.00  0.00    +0.032 C 
ENDBRANCH   5  12
ENDBRANCH   4   8
BRANCH   4  13
ATOM     13  C   UNL     1       3.276  -0.687  -5.339  0.00  0.00    -0.027 C 
ATOM     14  C   UNL     1       4.235  -0.934  -6.505  0.00  0.00    +0.006 C 
ATOM     15  C   UNL     1       2.272   0.400  -5.726  0.00  0.00    +0.006 C 
ENDBRANCH   4  13
ENDBRANCH   1   4
BRANCH   1  16
ATOM     16  C   UNL     1       2.781  -4.275  -4.362  0.00  0.00    -0.025 C 
BRANCH  16  17
ATOM     17  C   UNL     1       3.780  -5.347  -4.009  0.00  0.00    +0.032 A 
ATOM     18  C   UNL     1       3.734  -5.951  -2.767  0.00  0.00    +0.092 A 
ATOM     19  C   UNL     1       4.672  -6.944  -2.463  0.00  0.00    +0.258 A 
ATOM     20  O   UNL     1       4.658  -7.498  -1.374  0.00  0.00    -0.267 OA
ATOM     21  N   UNL     1       5.593  -7.282  -3.391  0.00  0.00    -0.268 N 
ATOM     22  C   UNL     1       6.512  -8.246  -3.110  0.00  0.00    +0.099 A 
ATOM     23  C   UNL     1       7.443  -8.601  -4.024  0.00  0.00    -0.034 A 
ATOM     24  C   UNL     1       7.473  -7.975  -5.278  0.00  0.00    +0.008 A 
ATOM     25  C   UNL     1       6.558  -7.009  -5.569  0.00  0.00    +0.047 A 
ATOM     26  C   UNL     1       5.596  -6.654  -4.606  0.00  0.00    +0.140 A 
ATOM     27  N   UNL     1       4.697  -5.713  -4.891  0.00  0.00    -0.236 NA
ATOM     28  C   UNL     1       8.452  -9.670  -3.693  0.00  0.00    +0.045 C 
ENDBRANCH  16  17
ENDBRANCH   1  16
TORSDOF 6
