REMARK  Name = ZINC43246485
REMARK  7 active torsions:
REMARK  status: ('A' for Active; 'I' for Inactive)
REMARK    1  A    between atoms: C_1  and  C_2
REMARK    2  A    between atoms: C_5  and  C_7
REMARK    3  A    between atoms: C_7  and  C_9
REMARK    4  A    between atoms: C_7  and  S_13
REMARK    5  A    between atoms: C_9  and  C_11
REMARK    6  A    between atoms: C_9  and  N_12
REMARK    7  A    between atoms: S_13  and  C_14
REMARK                            x       y       z     vdW  Elec       q    Type
REMARK                         _______ _______ _______ _____ _____    ______ ____
ROOT
ATOM      1  C   UNL     1       0.959  -4.073  -0.059  0.00  0.00    +0.078 C 
ENDROOT
BRANCH   1   6
ATOM      2  C   UNL     1      -0.439   1.387   0.509  0.00  0.00    +0.051 C 
ATOM      3  C   UNL     1      -0.326  -0.110   0.379  0.00  0.00    -0.013 A 
ATOM      4  C   UNL     1      -1.307  -1.045   0.396  0.00  0.00    +0.011 A 
ATOM      5  C   UNL     1      -0.966  -2.377   0.257  0.00  0.00    +0.012 A 
ATOM      6  C   UNL     1       0.340  -2.709   0.108  0.00  0.00    +0.002 A 
ATOM      7  S   UNL     1       1.135  -1.112   0.155  0.00  0.00    -0.097 S 
ENDBRANCH   1   6
BRANCH   1   8
ATOM      8  C   UNL     1       1.706  -4.133  -1.393  0.00  0.00    -0.060 C 
ATOM      9  C   UNL     1       2.248  -5.548  -1.610  0.00  0.00    -0.013 C 
BRANCH   8  10
ATOM     10  N   UNL     1       0.787  -3.788  -2.486  0.00  0.00    +0.381 N 
ATOM     11  H   UNL     1       0.429  -2.856  -2.342  0.00  0.00    -0.090 HD
ATOM     12  H   UNL     1       1.280  -3.828  -3.365  0.00  0.00    -0.090 HD
ATOM     13  H   UNL     1       0.020  -4.444  -2.500  0.00  0.00    -0.090 HD
ENDBRANCH   8  10
ENDBRANCH   1   8
BRANCH   1  14
ATOM     14  S   UNL     1       2.121  -4.381   1.299  0.00  0.00    -0.060 S 
BRANCH  14  15
ATOM     15  C   UNL     1       1.088  -4.524   2.719  0.00  0.00    +0.259 A 
ATOM     16  N   UNL     1      -0.211  -4.357   2.723  0.00  0.00    -0.203 NA
ATOM     17  C   UNL     1      -0.672  -4.545   3.990  0.00  0.00    +0.110 A 
ATOM     18  C   UNL     1      -1.940  -4.495   4.571  0.00  0.00    +0.031 A 
ATOM     19  C   UNL     1      -2.083  -4.739   5.919  0.00  0.00    +0.002 A 
ATOM     20  C   UNL     1      -0.977  -5.033   6.700  0.00  0.00    +0.004 A 
ATOM     21  C   UNL     1       0.283  -5.086   6.138  0.00  0.00    +0.048 A 
ATOM     22  C   UNL     1       0.445  -4.843   4.784  0.00  0.00    +0.156 A 
ATOM     23  O   UNL     1       1.517  -4.825   3.958  0.00  0.00    -0.431 OA
ENDBRANCH  14  15
ENDBRANCH   1  14
TORSDOF 5
