REMARK  Name = ZINC35195687
REMARK  11 active torsions:
REMARK  status: ('A' for Active; 'I' for Inactive)
REMARK    1  A    between atoms: C_1  and  C_2
REMARK    2  A    between atoms: C_2  and  C_3
REMARK    3  A    between atoms: C_3  and  C_4
REMARK    4  A    between atoms: C_4  and  N_5
REMARK    5  A    between atoms: C_6  and  C_8
REMARK    6  A    between atoms: C_12  and  C_24
REMARK    7  A    between atoms: C_15  and  C_17
REMARK    8  A    between atoms: C_20  and  C_23
REMARK    9  A    between atoms: C_24  and  C_25
REMARK   10  A    between atoms: C_25  and  C_26
REMARK   11  A    between atoms: C_25  and  C_27
REMARK                            x       y       z     vdW  Elec       q    Type
REMARK                         _______ _______ _______ _____ _____    ______ ____
ROOT
ATOM      1  C   UNL     1       2.424  -4.186  -4.195  0.00  0.00    +0.173 C 
ATOM      2  C   UNL     1       1.861  -3.629  -5.536  0.00  0.00    +0.103 C 
ATOM      3  S   UNL     1       0.557  -4.906  -5.832  0.00  0.00    -0.136 S 
ATOM      4  C   UNL     1       1.421  -6.313  -5.013  0.00  0.00    +0.135 C 
ATOM      5  N   UNL     1       2.466  -5.645  -4.218  0.00  0.00    -0.273 N 
ATOM      6  C   UNL     1       3.405  -6.342  -3.550  0.00  0.00    +0.248 C 
ATOM      7  O   UNL     1       4.158  -5.770  -2.785  0.00  0.00    -0.270 OA
ENDROOT
BRANCH   6   8
ATOM      8  C   UNL     1       3.522  -7.803  -3.747  0.00  0.00    +0.037 A 
ATOM      9  C   UNL     1       2.551  -8.491  -4.476  0.00  0.00    +0.013 A 
ATOM     10  C   UNL     1       2.665  -9.854  -4.656  0.00  0.00    +0.004 A 
ATOM     11  C   UNL     1       3.739 -10.539  -4.116  0.00  0.00    -0.050 A 
ATOM     12  C   UNL     1       4.705  -9.863  -3.391  0.00  0.00    +0.004 A 
ATOM     13  C   UNL     1       4.606  -8.499  -3.209  0.00  0.00    +0.013 A 
ATOM     14  C   UNL     1       3.858 -12.028  -4.316  0.00  0.00    +0.044 C 
ENDBRANCH   6   8
BRANCH   1  16
ATOM     15  N   UNL     1       1.371  -2.417  -2.824  0.00  0.00    -0.314 N 
ATOM     16  C   UNL     1       1.542  -3.732  -3.060  0.00  0.00    +0.234 C 
ATOM     17  O   UNL     1       0.985  -4.551  -2.360  0.00  0.00    -0.274 OA
ATOM     18  H   UNL     1       1.817  -1.761  -3.383  0.00  0.00    +0.149 HD
BRANCH  15  19
ATOM     19  C   UNL     1       0.514  -1.976  -1.720  0.00  0.00    +0.104 C 
BRANCH  19  20
ATOM     20  C   UNL     1       0.493  -0.447  -1.671  0.00  0.00    +0.018 C 
BRANCH  20  22
ATOM     21  C   UNL     1      -0.424   1.542  -0.469  0.00  0.00    +0.004 C 
ATOM     22  C   UNL     1      -0.403   0.013  -0.518  0.00  0.00    -0.002 C 
ENDBRANCH  20  22
ENDBRANCH  19  20
ENDBRANCH  15  19
ENDBRANCH   1  16
BRANCH   4  23
ATOM     23  C   UNL     1       0.458  -7.085  -4.109  0.00  0.00    +0.036 C 
BRANCH  23  24
ATOM     24  C   UNL     1      -0.659  -7.697  -4.957  0.00  0.00    -0.015 C 
ATOM     25  C   UNL     1      -0.068  -8.749  -5.897  0.00  0.00    +0.007 C 
ATOM     26  C   UNL     1      -1.693  -8.355  -4.041  0.00  0.00    +0.007 C 
ENDBRANCH  23  24
ENDBRANCH   4  23
TORSDOF 7
