REMARK  Name = ZINC63439091
REMARK  3 active torsions:
REMARK  status: ('A' for Active; 'I' for Inactive)
REMARK    1  A    between atoms: C_3  and  C_6
REMARK    2  A    between atoms: C_8  and  C_11
REMARK    3  A    between atoms: C_16  and  C_18
REMARK                            x       y       z     vdW  Elec       q    Type
REMARK                         _______ _______ _______ _____ _____    ______ ____
ROOT
ATOM      1  C   UNL     1       6.620  -1.345  -0.078  0.00  0.00    +0.063 C 
ATOM      2  C   UNL     1       6.146  -2.639   0.017  0.00  0.00    +0.154 C 
ATOM      3  C   UNL     1       4.741  -3.074   0.036  0.00  0.00    +0.364 C 
ATOM      4  O   UNL     1       3.749  -2.371  -0.030  0.00  0.00    -0.243 OA
ATOM      5  O   UNL     1       4.785  -4.420   0.140  0.00  0.00    -0.402 OA
ATOM      6  C   UNL     1       6.075  -4.807   0.184  0.00  0.00    +0.233 C 
ATOM      7  N   UNL     1       6.884  -3.785   0.108  0.00  0.00    -0.205 NA
ENDROOT
BRANCH   1  10
ATOM      8  C   UNL     1       3.620   0.538  -0.874  0.00  0.00    +0.144 A 
ATOM      9  N   UNL     1       4.419  -0.488  -0.630  0.00  0.00    -0.236 NA
ATOM     10  C   UNL     1       5.695  -0.246  -0.354  0.00  0.00    +0.074 A 
ATOM     11  C   UNL     1       6.132   1.069  -0.334  0.00  0.00    +0.075 A 
ATOM     12  S   UNL     1       4.732   1.923  -0.712  0.00  0.00    -0.072 S 
BRANCH   8  15
ATOM     13  C   UNL     1       0.119   1.173  -1.712  0.00  0.00    +0.042 A 
ATOM     14  C   UNL     1       1.420   1.637  -1.446  0.00  0.00    +0.052 A 
ATOM     15  C   UNL     1       2.186   0.537  -1.200  0.00  0.00    +0.160 A 
ATOM     16  O   UNL     1       1.400  -0.552  -1.308  0.00  0.00    -0.461 OA
ATOM     17  C   UNL     1       0.150  -0.172  -1.617  0.00  0.00    +0.196 A 
ENDBRANCH   8  15
ENDBRANCH   1  10
BRANCH   6  18
ATOM     18  C   UNL     1       6.517  -6.209   0.297  0.00  0.00    +0.044 A 
ATOM     19  C   UNL     1       5.568  -7.293   0.365  0.00  0.00    +0.021 A 
ATOM     20  C   UNL     1       6.100  -8.529   0.467  0.00  0.00    +0.046 A 
ATOM     21  S   UNL     1       7.851  -8.209   0.469  0.00  0.00    -0.104 S 
ATOM     22  C   UNL     1       7.842  -6.536   0.337  0.00  0.00    +0.058 A 
ENDBRANCH   6  18
TORSDOF 3
