REMARK  Name = ZINC13472645
REMARK  6 active torsions:
REMARK  status: ('A' for Active; 'I' for Inactive)
REMARK    1  A    between atoms: C_1  and  C_2
REMARK    2  A    between atoms: C_2  and  C_32
REMARK    3  A    between atoms: C_4  and  N_25
REMARK    4  A    between atoms: C_7  and  S_12
REMARK    5  A    between atoms: S_12  and  N_15
REMARK    6  A    between atoms: N_18  and  C_19
REMARK                            x       y       z     vdW  Elec       q    Type
REMARK                         _______ _______ _______ _____ _____    ______ ____
ROOT
ATOM      1  C   UNL     1      -0.291   1.348   0.353  0.00  0.00    +0.060 C 
ATOM      2  C   UNL     1      -0.890   1.843   1.671  0.00  0.00    +0.125 C 
ATOM      3  C   UNL     1      -2.267   1.256   1.842  0.00  0.00    +0.046 C 
ATOM      4  C   UNL     1      -3.192   1.918   2.548  0.00  0.00    +0.060 C 
ATOM      5  C   UNL     1      -2.816   3.230   3.126  0.00  0.00    +0.042 A 
ATOM      6  C   UNL     1      -3.571   3.823   4.131  0.00  0.00    +0.042 A 
ATOM      7  C   UNL     1      -3.183   5.046   4.642  0.00  0.00    +0.109 A 
ATOM      8  C   UNL     1      -2.051   5.679   4.157  0.00  0.00    +0.032 A 
ATOM      9  C   UNL     1      -1.295   5.095   3.157  0.00  0.00    +0.048 A 
ATOM     10  C   UNL     1      -1.671   3.871   2.636  0.00  0.00    +0.131 A 
ATOM     11  O   UNL     1      -0.952   3.269   1.654  0.00  0.00    -0.481 OA
ATOM     12  C   UNL     1      -0.001   1.390   2.831  0.00  0.00    +0.060 C 
ENDROOT
BRANCH   4  13
ATOM     13  N   UNL     1      -4.474   1.389   2.733  0.00  0.00    -0.284 N 
ATOM     14  C   UNL     1      -5.561   2.118   2.368  0.00  0.00    +0.095 A 
ATOM     15  C   UNL     1      -6.811   1.625   2.532  0.00  0.00    +0.018 A 
ATOM     16  C   UNL     1      -6.992   0.353   3.095  0.00  0.00    +0.007 A 
ATOM     17  C   UNL     1      -5.900  -0.375   3.465  0.00  0.00    +0.071 A 
ATOM     18  C   UNL     1      -4.617   0.165   3.275  0.00  0.00    +0.256 A 
ATOM     19  O   UNL     1      -3.631  -0.476   3.603  0.00  0.00    -0.267 OA
ENDBRANCH   4  13
BRANCH   7  20
ATOM     20  S   UNL     1      -4.134   5.806   5.916  0.00  0.00    +0.076 S 
ATOM     21  O   UNL     1      -3.870   7.200   5.844  0.00  0.00    -0.150 OA
ATOM     22  O   UNL     1      -5.447   5.273   5.816  0.00  0.00    -0.150 OA
BRANCH  20  23
ATOM     23  N   UNL     1      -3.520   5.283   7.363  0.00  0.00    -0.169 N 
ATOM     24  C   UNL     1      -2.266   5.618   7.723  0.00  0.00    +0.323 C 
ATOM     25  O   UNL     1      -1.584   6.304   6.987  0.00  0.00    -0.251 OA
ATOM     26  N   UNL     1      -1.767   5.192   8.901  0.00  0.00    -0.268 N 
ATOM     27  H   UNL     1      -4.064   4.735   7.951  0.00  0.00    +0.178 HD
ATOM     28  H   UNL     1      -2.278   4.578   9.451  0.00  0.00    +0.156 HD
BRANCH  26  29
ATOM     29  C   UNL     1      -0.510   5.635   9.330  0.00  0.00    +0.035 A 
ATOM     30  C   UNL     1       0.316   4.787  10.055  0.00  0.00    +0.023 A 
ATOM     31  C   UNL     1       1.558   5.226  10.473  0.00  0.00    +0.002 A 
ATOM     32  C   UNL     1       1.973   6.512  10.178  0.00  0.00    +0.000 A 
ATOM     33  C   UNL     1       1.150   7.361   9.460  0.00  0.00    +0.002 A 
ATOM     34  C   UNL     1      -0.090   6.926   9.035  0.00  0.00    +0.023 A 
ENDBRANCH  26  29
ENDBRANCH  20  23
ENDBRANCH   7  20
TORSDOF 4
