REMARK  Name = ZINC12279204
REMARK  8 active torsions:
REMARK  status: ('A' for Active; 'I' for Inactive)
REMARK    1  A    between atoms: C_1  and  C_2
REMARK    2  A    between atoms: C_2  and  N_3
REMARK    3  A    between atoms: C_4  and  C_6
REMARK    4  A    between atoms: N_8  and  C_31
REMARK    5  A    between atoms: C_10  and  C_13
REMARK    6  A    between atoms: N_15  and  C_16
REMARK    7  A    between atoms: C_16  and  C_18
REMARK    8  A    between atoms: C_16  and  C_24
REMARK                            x       y       z     vdW  Elec       q    Type
REMARK                         _______ _______ _______ _____ _____    ______ ____
ROOT
ATOM      1  C   UNL     1      -3.308   6.711  -3.786  0.00  0.00    +0.100 A 
ATOM      2  C   UNL     1      -2.032   7.196  -3.975  0.00  0.00    +0.102 A 
ATOM      3  N   UNL     1      -0.971   6.622  -3.385  0.00  0.00    -0.349 N 
ATOM      4  C   UNL     1      -1.063   5.553  -2.578  0.00  0.00    +0.102 A 
ATOM      5  C   UNL     1      -2.278   4.965  -2.300  0.00  0.00    +0.100 A 
ATOM      6  C   UNL     1      -3.487   5.535  -2.918  0.00  0.00    +0.206 A 
ATOM      7  O   UNL     1      -4.590   5.056  -2.715  0.00  0.00    -0.286 OA
ENDROOT
BRANCH   3   8
ATOM      8  C   UNL     1       0.355   7.193  -3.634  0.00  0.00    +0.087 C 
ATOM      9  C   UNL     1       0.375   8.681  -3.228  0.00  0.00    +0.025 C 
ATOM     10  C   UNL     1       1.271   9.355  -4.296  0.00  0.00    +0.002 C 
ATOM     11  C   UNL     1       0.880   8.603  -5.593  0.00  0.00    +0.002 C 
ATOM     12  C   UNL     1       0.677   7.143  -5.138  0.00  0.00    +0.025 C 
ENDBRANCH   3   8
BRANCH   1  14
ATOM     13  N   UNL     1      -4.280   8.422  -5.234  0.00  0.00    -0.311 N 
ATOM     14  C   UNL     1      -4.463   7.350  -4.439  0.00  0.00    +0.249 C 
ATOM     15  O   UNL     1      -5.583   6.910  -4.261  0.00  0.00    -0.270 OA
ATOM     16  H   UNL     1      -3.387   8.774  -5.376  0.00  0.00    +0.149 HD
BRANCH  13  18
ATOM     17  C   UNL     1      -4.948  10.243  -6.724  0.00  0.00    +0.024 C 
ATOM     18  C   UNL     1      -5.428   9.058  -5.885  0.00  0.00    +0.101 C 
ENDBRANCH  13  18
ENDBRANCH   1  14
BRANCH   5  19
ATOM     19  C   UNL     1      -2.364   3.792  -1.414  0.00  0.00    +0.250 C 
ATOM     20  O   UNL     1      -3.445   3.285  -1.179  0.00  0.00    -0.270 OA
ATOM     21  N   UNL     1      -1.246   3.280  -0.862  0.00  0.00    -0.300 N 
ATOM     22  H   UNL     1      -0.384   3.684  -1.049  0.00  0.00    +0.150 HD
BRANCH  21  23
ATOM     23  C   UNL     1      -1.332   2.114   0.020  0.00  0.00    +0.134 C 
BRANCH  23  24
ATOM     24  C   UNL     1      -0.017   1.378   0.010  0.00  0.00    -0.023 A 
ATOM     25  C   UNL     1       1.171   2.086   0.002  0.00  0.00    +0.007 A 
ATOM     26  C   UNL     1       2.377   1.412  -0.013  0.00  0.00    +0.020 A 
ATOM     27  C   UNL     1       2.397   0.029  -0.021  0.00  0.00    +0.041 A 
ATOM     28  C   UNL     1       1.208  -0.679  -0.013  0.00  0.00    +0.020 A 
ATOM     29  C   UNL     1       0.002  -0.004   0.002  0.00  0.00    +0.007 A 
ATOM     30 CL   UNL     1       3.912  -0.818  -0.040  0.00  0.00    -0.084 Cl
ENDBRANCH  23  24
BRANCH  23  31
ATOM     31  C   UNL     1      -1.643   2.566   1.423  0.00  0.00    -0.023 A 
ATOM     32  C   UNL     1      -1.039   3.700   1.934  0.00  0.00    +0.006 A 
ATOM     33  C   UNL     1      -1.328   4.118   3.219  0.00  0.00    +0.000 A 
ATOM     34  C   UNL     1      -2.215   3.397   3.998  0.00  0.00    +0.000 A 
ATOM     35  C   UNL     1      -2.815   2.261   3.489  0.00  0.00    +0.000 A 
ATOM     36  C   UNL     1      -2.529   1.845   2.202  0.00  0.00    +0.006 A 
ENDBRANCH  23  31
ENDBRANCH  21  23
ENDBRANCH   5  19
TORSDOF 7
