REMARK  Name = ZINC20865729
REMARK  9 active torsions:
REMARK  status: ('A' for Active; 'I' for Inactive)
REMARK    1  A    between atoms: C_1  and  C_2
REMARK    2  A    between atoms: C_2  and  C_8
REMARK    3  A    between atoms: C_8  and  O_9
REMARK    4  A    between atoms: O_9  and  C_10
REMARK    5  A    between atoms: C_13  and  C_16
REMARK    6  A    between atoms: C_18  and  C_21
REMARK    7  A    between atoms: C_21  and  C_22
REMARK    8  A    between atoms: C_25  and  O_28
REMARK    9  A    between atoms: O_28  and  C_29
REMARK                            x       y       z     vdW  Elec       q    Type
REMARK                         _______ _______ _______ _____ _____    ______ ____
ROOT
ATOM      1  C   UNL     1       0.002  -0.004   0.002  0.00  0.00    +0.215 A 
ATOM      2  C   UNL     1      -0.017   1.387   0.010  0.00  0.00    +0.068 A 
ATOM      3  C   UNL     1       1.178   2.078   0.002  0.00  0.00    +0.020 A 
ATOM      4  C   UNL     1       2.372   1.343  -0.013  0.00  0.00    +0.058 A 
ATOM      5  C   UNL     1       2.309  -0.050  -0.020  0.00  0.00    +0.128 A 
ATOM      6  N   UNL     1       1.146  -0.669  -0.012  0.00  0.00    -0.221 NA
ENDROOT
BRANCH   4   7
ATOM      7  C   UNL     1       3.677   2.034  -0.022  0.00  0.00    +0.260 A 
ATOM      8  N   UNL     1       4.871   1.467  -0.035  0.00  0.00    -0.191 NA
ATOM      9  C   UNL     1       5.751   2.481  -0.038  0.00  0.00    +0.176 A 
ATOM     10  N   UNL     1       5.073   3.590  -0.026  0.00  0.00    -0.061 NA
ATOM     11  O   UNL     1       3.882   3.361  -0.023  0.00  0.00    -0.333 OA
BRANCH   9  12
ATOM     12  C   UNL     1       7.252   2.355  -0.052  0.00  0.00    +0.114 C 
BRANCH  12  13
ATOM     13  C   UNL     1       7.740   2.321  -1.478  0.00  0.00    -0.040 A 
ATOM     14  C   UNL     1       7.869   1.111  -2.135  0.00  0.00    +0.007 A 
ATOM     15  C   UNL     1       8.310   1.077  -3.443  0.00  0.00    +0.046 A 
ATOM     16  C   UNL     1       8.635   2.258  -4.095  0.00  0.00    +0.120 A 
ATOM     17  C   UNL     1       8.510   3.470  -3.432  0.00  0.00    +0.046 A 
ATOM     18  C   UNL     1       8.063   3.499  -2.126  0.00  0.00    +0.007 A 
BRANCH  16  19
ATOM     19  O   UNL     1       9.074   2.227  -5.381  0.00  0.00    -0.495 OA
ATOM     20  C   UNL     1       9.178   0.944  -6.000  0.00  0.00    +0.277 C 
ENDBRANCH  16  19
ENDBRANCH  12  13
ENDBRANCH   9  12
ENDBRANCH   4   7
BRANCH   1  21
ATOM     21  O   UNL     1      -1.168  -0.688   0.009  0.00  0.00    -0.476 OA
BRANCH  21  22
ATOM     22  C   UNL     1      -1.086  -2.115   0.001  0.00  0.00    +0.235 C 
BRANCH  22  24
ATOM     23  C   UNL     1      -3.235  -2.247   1.270  0.00  0.00    +0.012 C 
ATOM     24  C   UNL     1      -2.497  -2.707   0.011  0.00  0.00    -0.013 C 
ATOM     25  C   UNL     1      -2.409  -4.236   0.000  0.00  0.00    +0.006 C 
ATOM     26  C   UNL     1      -3.824  -4.819  -0.051  0.00  0.00    -0.018 C 
ATOM     27  C   UNL     1      -4.547  -4.286  -1.290  0.00  0.00    -0.083 C 
ATOM     28  N   UNL     1      -4.605  -2.820  -1.231  0.00  0.00    +0.379 N 
ATOM     29  C   UNL     1      -3.258  -2.235  -1.229  0.00  0.00    -0.073 C 
ATOM     30  H   UNL     1      -5.152  -2.439  -2.106  0.00  0.00    -0.086 HD
ATOM     31  H   UNL     1      -5.123  -2.510  -0.311  0.00  0.00    -0.086 HD
ENDBRANCH  22  24
ENDBRANCH  21  22
ENDBRANCH   1  21
TORSDOF 7
