REMARK  Name = ZINC10656168
REMARK  12 active torsions:
REMARK  status: ('A' for Active; 'I' for Inactive)
REMARK    1  A    between atoms: C_1  and  C_2
REMARK    2  A    between atoms: N_13  and  C_29
REMARK    3  A    between atoms: C_14  and  S_16
REMARK    4  A    between atoms: S_16  and  C_17
REMARK    5  A    between atoms: C_17  and  C_18
REMARK    6  A    between atoms: N_20  and  C_21
REMARK    7  A    between atoms: C_21  and  C_23
REMARK    8  A    between atoms: C_21  and  C_26
REMARK    9  A    between atoms: C_23  and  C_24
REMARK   10  A    between atoms: C_23  and  C_25
REMARK   11  A    between atoms: C_26  and  C_28
REMARK   12  A    between atoms: C_29  and  C_30
REMARK                            x       y       z     vdW  Elec       q    Type
REMARK                         _______ _______ _______ _____ _____    ______ ____
ROOT
ATOM      1  C   UNL     1       0.638   0.545  -2.472  0.00  0.00    +0.008 C 
ATOM      2  C   UNL     1       0.633  -0.963  -2.218  0.00  0.00    -0.009 C 
ATOM      3  C   UNL     1       1.460  -1.669  -3.297  0.00  0.00    +0.008 C 
ATOM      4  C   UNL     1       1.259  -3.181  -3.198  0.00  0.00    +0.037 C 
ATOM      5  C   UNL     1       1.540  -3.624  -1.765  0.00  0.00    -0.023 A 
ATOM      6  C   UNL     1       1.529  -2.727  -0.753  0.00  0.00    -0.004 A 
ATOM      7  S   UNL     1       1.901  -3.666   0.706  0.00  0.00    -0.073 S 
ATOM      8  C   UNL     1       2.070  -5.256  -0.040  0.00  0.00    +0.117 A 
ATOM      9  C   UNL     1       1.831  -5.004  -1.410  0.00  0.00    +0.076 A 
ATOM     10  C   UNL     1       1.897  -6.122  -2.304  0.00  0.00    +0.263 A 
ATOM     11  O   UNL     1       1.705  -6.005  -3.502  0.00  0.00    -0.267 OA
ATOM     12  N   UNL     1       2.185  -7.317  -1.735  0.00  0.00    -0.283 N 
ATOM     13  C   UNL     1       2.402  -7.469  -0.400  0.00  0.00    +0.173 A 
ATOM     14  N   UNL     1       2.349  -6.456   0.455  0.00  0.00    -0.216 NA
ATOM     15  C   UNL     1       1.258  -1.256  -0.846  0.00  0.00    +0.046 C 
ENDROOT
BRANCH  13  16
ATOM     16  S   UNL     1       2.768  -9.078   0.219  0.00  0.00    -0.078 S 
BRANCH  16  17
ATOM     17  C   UNL     1       2.979  -8.825   2.003  0.00  0.00    +0.173 C 
BRANCH  17  18
ATOM     18  C   UNL     1       3.300 -10.141   2.662  0.00  0.00    +0.224 C 
ATOM     19  O   UNL     1       3.379 -11.150   1.994  0.00  0.00    -0.275 OA
ATOM     20  N   UNL     1       3.500 -10.196   3.994  0.00  0.00    -0.305 N 
ATOM     21  H   UNL     1       3.436  -9.389   4.528  0.00  0.00    +0.149 HD
BRANCH  20  22
ATOM     22  C   UNL     1       3.812 -11.476   4.635  0.00  0.00    +0.141 C 
BRANCH  22  23
ATOM     23  C   UNL     1       4.578 -11.222   5.935  0.00  0.00    +0.010 C 
ATOM     24  C   UNL     1       5.902 -10.523   5.618  0.00  0.00    +0.009 C 
ATOM     25  C   UNL     1       3.740 -10.332   6.855  0.00  0.00    +0.009 C 
ENDBRANCH  22  23
BRANCH  22  26
ATOM     26  C   UNL     1       2.532 -12.210   4.942  0.00  0.00    +0.151 C 
ATOM     27  O   UNL     1       1.488 -11.605   4.999  0.00  0.00    -0.296 OA
ATOM     28  C   UNL     1       2.555 -13.698   5.178  0.00  0.00    +0.088 C 
ENDBRANCH  22  26
ENDBRANCH  20  22
ENDBRANCH  17  18
ENDBRANCH  16  17
ENDBRANCH  13  16
BRANCH  12  29
ATOM     29  C   UNL     1       2.267  -8.499  -2.596  0.00  0.00    +0.154 C 
BRANCH  29  30
ATOM     30  C   UNL     1       3.681  -8.664  -3.090  0.00  0.00    -0.013 C 
ATOM     31  C   UNL     1       4.316  -9.793  -2.894  0.00  0.00    +0.005 C 
ENDBRANCH  29  30
ENDBRANCH  12  29
TORSDOF 8
