REMARK  Name = ZINC39544322
REMARK  13 active torsions:
REMARK  status: ('A' for Active; 'I' for Inactive)
REMARK    1  A    between atoms: C_1  and  C_2
REMARK    2  A    between atoms: C_2  and  C_3
REMARK    3  A    between atoms: C_3  and  C_4
REMARK    4  A    between atoms: C_3  and  C_5
REMARK    5  A    between atoms: C_3  and  C_6
REMARK    6  A    between atoms: N_14  and  C_18
REMARK    7  A    between atoms: C_18  and  C_19
REMARK    8  A    between atoms: N_21  and  C_22
REMARK    9  A    between atoms: N_21  and  C_23
REMARK   10  A    between atoms: C_23  and  C_24
REMARK   11  A    between atoms: N_26  and  C_27
REMARK   12  A    between atoms: C_29  and  C_34
REMARK   13  A    between atoms: C_32  and  C_33
REMARK                            x       y       z     vdW  Elec       q    Type
REMARK                         _______ _______ _______ _____ _____    ______ ____
ROOT
ATOM      1  C   UNL     1       0.697  -2.073  -1.243  0.00  0.00    -0.005 C 
ATOM      2  C   UNL     1       1.441  -2.578  -0.005  0.00  0.00    +0.006 C 
ATOM      3  C   UNL     1       1.462  -4.108  -0.013  0.00  0.00    +0.035 C 
ATOM      4  C   UNL     1       2.152  -4.604  -1.279  0.00  0.00    +0.113 C 
ATOM      5  C   UNL     1       1.436  -4.088  -2.522  0.00  0.00    +0.035 C 
ATOM      6  C   UNL     1       1.416  -2.557  -2.504  0.00  0.00    +0.006 C 
ATOM      7  C   UNL     1       3.603  -4.179  -1.290  0.00  0.00    +0.247 C 
ATOM      8  O   UNL     1       4.036  -3.047  -1.286  0.00  0.00    -0.273 OA
ATOM      9  N   UNL     1       4.314  -5.325  -1.307  0.00  0.00    -0.215 N 
ATOM     10  C   UNL     1       3.516  -6.400  -1.308  0.00  0.00    +0.310 C 
ATOM     11  O   UNL     1       3.925  -7.545  -1.322  0.00  0.00    -0.252 OA
ATOM     12  N   UNL     1       2.211  -6.071  -1.292  0.00  0.00    -0.285 N 
ATOM     13  H   UNL     1       1.457  -6.683  -1.289  0.00  0.00    +0.151 HD
ENDROOT
BRANCH   1  14
ATOM     14  C   UNL     1       0.665  -0.543  -1.230  0.00  0.00    -0.032 C 
ATOM     15  C   UNL     1      -0.080  -0.038  -2.468  0.00  0.00    +0.011 C 
ATOM     16  C   UNL     1       2.096  -0.003  -1.241  0.00  0.00    +0.011 C 
BRANCH  14  18
ATOM     17  C   UNL     1      -0.086   1.471   0.043  0.00  0.00    +0.004 C 
ATOM     18  C   UNL     1      -0.054  -0.059   0.030  0.00  0.00    +0.003 C 
ENDBRANCH  14  18
ENDBRANCH   1  14
BRANCH   9  19
ATOM     19  C   UNL     1       5.777  -5.386  -1.323  0.00  0.00    +0.213 C 
BRANCH  19  20
ATOM     20  C   UNL     1       6.295  -5.418   0.092  0.00  0.00    +0.234 C 
ATOM     21  O   UNL     1       5.517  -5.393   1.022  0.00  0.00    -0.274 OA
ATOM     22  N   UNL     1       7.621  -5.475   0.324  0.00  0.00    -0.294 N 
ATOM     23  C   UNL     1       8.560  -5.505  -0.800  0.00  0.00    +0.132 C 
BRANCH  22  24
ATOM     24  C   UNL     1       8.124  -5.506   1.699  0.00  0.00    +0.203 C 
BRANCH  24  25
ATOM     25  C   UNL     1       8.237  -6.936   2.160  0.00  0.00    +0.235 C 
ATOM     26  O   UNL     1       7.928  -7.840   1.413  0.00  0.00    -0.274 OA
ATOM     27  N   UNL     1       8.682  -7.210   3.403  0.00  0.00    -0.284 N 
ATOM     28  H   UNL     1       9.004  -6.494   3.972  0.00  0.00    +0.155 HD
BRANCH  27  29
ATOM     29  C   UNL     1       8.678  -8.529   3.872  0.00  0.00    +0.037 A 
ATOM     30  C   UNL     1       7.793  -9.456   3.337  0.00  0.00    +0.027 A 
ATOM     31  C   UNL     1       7.792 -10.756   3.802  0.00  0.00    -0.049 A 
ATOM     32  C   UNL     1       8.671 -11.135   4.800  0.00  0.00    +0.004 A 
ATOM     33  C   UNL     1       9.553 -10.215   5.335  0.00  0.00    +0.005 A 
ATOM     34  C   UNL     1       9.563  -8.915   4.869  0.00  0.00    -0.029 A 
ATOM     35  C   UNL     1      10.530  -7.914   5.448  0.00  0.00    +0.045 C 
ATOM     36  C   UNL     1       6.832 -11.762   3.222  0.00  0.00    +0.044 C 
ENDBRANCH  27  29
ENDBRANCH  24  25
ENDBRANCH  22  24
ENDBRANCH  19  20
ENDBRANCH   9  19
TORSDOF 7
