REMARK  Name = ZINC42472116
REMARK  4 active torsions:
REMARK  status: ('A' for Active; 'I' for Inactive)
REMARK    1  A    between atoms: C_1  and  C_2
REMARK    2  A    between atoms: C_5  and  N_8
REMARK    3  A    between atoms: N_8  and  C_9
REMARK    4  A    between atoms: C_13  and  C_15
REMARK                            x       y       z     vdW  Elec       q    Type
REMARK                         _______ _______ _______ _____ _____    ______ ____
ROOT
ATOM      1  N   UNL     1      -1.358  -2.098   2.449  0.00  0.00    -0.285 N 
ATOM      2  C   UNL     1      -0.649  -1.251   3.412  0.00  0.00    +0.134 C 
ATOM      3  C   UNL     1      -2.648  -2.427   2.664  0.00  0.00    +0.308 C 
ATOM      4  O   UNL     1      -3.236  -3.129   1.865  0.00  0.00    -0.252 OA
ATOM      5  N   UNL     1      -3.284  -1.977   3.763  0.00  0.00    -0.239 N 
ATOM      6  C   UNL     1      -4.573  -2.305   3.977  0.00  0.00    +0.235 C 
ATOM      7  O   UNL     1      -5.161  -3.006   3.181  0.00  0.00    -0.274 OA
ATOM      8  H   UNL     1      -2.814  -1.416   4.400  0.00  0.00    +0.159 HD
ENDROOT
BRANCH   1  13
ATOM      9  C   UNL     1      -0.007   1.491  -0.034  0.00  0.00    +0.007 C 
ATOM     10  C   UNL     1       0.014  -0.038  -0.021  0.00  0.00    -0.014 C 
ATOM     11  C   UNL     1      -1.422  -0.568  -0.009  0.00  0.00    +0.005 C 
ATOM     12  C   UNL     1      -1.400  -2.098   0.004  0.00  0.00    +0.023 C 
ATOM     13  C   UNL     1      -0.666  -2.587   1.254  0.00  0.00    +0.077 C 
ATOM     14  C   UNL     1       0.769  -2.057   1.243  0.00  0.00    +0.023 C 
ATOM     15  C   UNL     1       0.748  -0.527   1.230  0.00  0.00    +0.005 C 
ENDBRANCH   1  13
BRANCH   6  16
ATOM     16  C   UNL     1      -5.285  -1.802   5.207  0.00  0.00    +0.204 C 
ATOM     17 CL   UNL     1      -6.983  -2.408   5.208  0.00  0.00    -0.116 Cl
ENDBRANCH   6  16
TORSDOF 2
