REMARK  Name = ZINC34761762
REMARK  9 active torsions:
REMARK  status: ('A' for Active; 'I' for Inactive)
REMARK    1  A    between atoms: C_1  and  C_2
REMARK    2  A    between atoms: C_2  and  C_3
REMARK    3  A    between atoms: C_3  and  N_4
REMARK    4  A    between atoms: C_12  and  C_29
REMARK    5  A    between atoms: C_13  and  C_28
REMARK    6  A    between atoms: C_17  and  S_19
REMARK    7  A    between atoms: S_19  and  C_20
REMARK    8  A    between atoms: C_20  and  C_21
REMARK    9  A    between atoms: C_29  and  C_30
REMARK                            x       y       z     vdW  Elec       q    Type
REMARK                         _______ _______ _______ _____ _____    ______ ____
ROOT
ATOM      1  N   UNL     1      -0.222  -2.637  -0.074  0.00  0.00    +0.382 N 
ATOM      2  C   UNL     1       0.023  -4.064  -0.320  0.00  0.00    -0.060 C 
ATOM      3  C   UNL     1      -1.311  -4.816  -0.327  0.00  0.00    +0.088 C 
ATOM      4  N   UNL     1      -2.016  -4.529   0.932  0.00  0.00    -0.318 N 
ATOM      5  C   UNL     1      -2.163  -3.123   1.339  0.00  0.00    +0.088 C 
ATOM      6  C   UNL     1      -0.788  -2.450   1.267  0.00  0.00    -0.060 C 
ATOM      7  C   UNL     1      -2.525  -5.552   1.712  0.00  0.00    +0.134 A 
ATOM      8  C   UNL     1      -3.839  -6.047   1.478  0.00  0.00    +0.051 A 
ATOM      9  C   UNL     1      -4.821  -5.639   0.488  0.00  0.00    -0.025 A 
ATOM     10  C   UNL     1      -6.011  -6.257   0.453  0.00  0.00    -0.007 A 
ATOM     11  S   UNL     1      -5.898  -7.452   1.771  0.00  0.00    -0.073 S 
ATOM     12  C   UNL     1      -4.255  -7.090   2.333  0.00  0.00    +0.115 A 
ATOM     13  N   UNL     1      -3.468  -7.563   3.279  0.00  0.00    -0.215 NA
ATOM     14  C   UNL     1      -2.252  -7.061   3.450  0.00  0.00    +0.191 A 
ATOM     15  N   UNL     1      -1.795  -6.083   2.677  0.00  0.00    -0.206 NA
ATOM     16  C   UNL     1      -7.168  -6.001  -0.478  0.00  0.00    +0.052 C 
ATOM     17  H   UNL     1      -0.870  -2.286  -0.763  0.00  0.00    -0.082 HD
ENDROOT
BRANCH   9  18
ATOM     18  C   UNL     1      -4.507  -4.535  -0.488  0.00  0.00    +0.033 C 
ATOM     19  C   UNL     1      -4.010  -5.141  -1.802  0.00  0.00    +0.009 C 
ENDBRANCH   9  18
BRANCH   1  20
ATOM     20  C   UNL     1       1.044  -1.900  -0.177  0.00  0.00    -0.079 C 
BRANCH  20  22
ATOM     21  C   UNL     1       2.892  -1.222  -1.716  0.00  0.00    +0.002 C 
ATOM     22  C   UNL     1       1.573  -1.990  -1.610  0.00  0.00    -0.022 C 
ENDBRANCH  20  22
ENDBRANCH   1  20
BRANCH  14  23
ATOM     23  S   UNL     1      -1.220  -7.711   4.722  0.00  0.00    -0.081 S 
BRANCH  23  24
ATOM     24  C   UNL     1      -2.235  -9.002   5.494  0.00  0.00    +0.112 C 
BRANCH  24  25
ATOM     25  C   UNL     1      -1.460  -9.648   6.614  0.00  0.00    -0.037 A 
ATOM     26  C   UNL     1      -0.660 -10.745   6.357  0.00  0.00    +0.007 A 
ATOM     27  C   UNL     1       0.051 -11.338   7.383  0.00  0.00    +0.038 A 
ATOM     28  C   UNL     1      -0.038 -10.832   8.669  0.00  0.00    +0.123 A 
ATOM     29  C   UNL     1      -0.840  -9.732   8.925  0.00  0.00    +0.038 A 
ATOM     30  C   UNL     1      -1.546  -9.138   7.896  0.00  0.00    +0.007 A 
ATOM     31  F   UNL     1       0.656 -11.410   9.673  0.00  0.00    -0.205 F 
ENDBRANCH  24  25
ENDBRANCH  23  24
ENDBRANCH  14  23
TORSDOF 6
