REMARK  Name = ZINC18211835
REMARK  6 active torsions:
REMARK  status: ('A' for Active; 'I' for Inactive)
REMARK    1  A    between atoms: C_8  and  N_9
REMARK    2  A    between atoms: N_9  and  C_10
REMARK    3  A    between atoms: C_13  and  S_16
REMARK    4  A    between atoms: S_16  and  N_19
REMARK    5  A    between atoms: N_22  and  C_25
REMARK    6  A    between atoms: C_25  and  C_26
REMARK                            x       y       z     vdW  Elec       q    Type
REMARK                         _______ _______ _______ _____ _____    ______ ____
ROOT
ATOM      1  C   UNL     1       2.280   5.585  -0.261  0.00  0.00    +0.001 A 
ATOM      2  C   UNL     1       1.040   6.207  -0.280  0.00  0.00    +0.001 A 
ATOM      3  C   UNL     1      -0.120   5.466  -0.220  0.00  0.00    +0.013 A 
ATOM      4  C   UNL     1      -0.048   4.075  -0.140  0.00  0.00    +0.045 A 
ATOM      5  C   UNL     1       1.215   3.446  -0.122  0.00  0.00    +0.000 A 
ATOM      6  C   UNL     1       2.374   4.211  -0.183  0.00  0.00    +0.009 A 
ATOM      7  C   UNL     1       1.259   1.972  -0.037  0.00  0.00    +0.059 C 
ATOM      8  C   UNL     1       2.461   1.298  -0.014  0.00  0.00    +0.085 C 
ATOM      9  C   UNL     1      -0.015   1.246   0.023  0.00  0.00    +0.255 C 
ATOM     10  O   UNL     1      -0.014   0.031   0.094  0.00  0.00    -0.269 OA
ATOM     11  N   UNL     1      -1.183   1.909  -0.004  0.00  0.00    -0.230 N 
ATOM     12  C   UNL     1      -1.260   3.248  -0.075  0.00  0.00    +0.254 C 
ATOM     13  O   UNL     1      -2.351   3.784  -0.092  0.00  0.00    -0.270 OA
ENDROOT
BRANCH   8  14
ATOM     14  N   UNL     1       3.572   1.908   0.476  0.00  0.00    -0.320 N 
ATOM     15  H   UNL     1       3.492   2.893   0.959  0.00  0.00    +0.152 HD
BRANCH  14  16
ATOM     16  C   UNL     1       4.818   1.283   0.367  0.00  0.00    +0.031 A 
ATOM     17  C   UNL     1       4.920   0.037  -0.237  0.00  0.00    +0.025 A 
ATOM     18  C   UNL     1       6.153  -0.575  -0.349  0.00  0.00    +0.030 A 
ATOM     19  C   UNL     1       7.283   0.046   0.150  0.00  0.00    +0.105 A 
ATOM     20  C   UNL     1       7.184   1.285   0.757  0.00  0.00    +0.030 A 
ATOM     21  C   UNL     1       5.955   1.905   0.867  0.00  0.00    +0.025 A 
BRANCH  19  22
ATOM     22  S   UNL     1       8.853  -0.741   0.012  0.00  0.00    +0.056 S 
ATOM     23  O   UNL     1       8.760  -1.644  -1.082  0.00  0.00    -0.153 OA
ATOM     24  O   UNL     1       9.831   0.289   0.068  0.00  0.00    -0.153 OA
BRANCH  22  25
ATOM     25  N   UNL     1       9.060  -1.664   1.371  0.00  0.00    -0.204 NA
ATOM     26  H   UNL     1      10.033  -2.175   1.323  0.00  0.00    +0.144 HD
ATOM     27  H   UNL     1       8.256  -2.412   1.432  0.00  0.00    +0.144 HD
ENDBRANCH  22  25
ENDBRANCH  19  22
ENDBRANCH  14  16
ENDBRANCH   8  14
BRANCH  11  28
ATOM     28  C   UNL     1      -2.427   1.138   0.052  0.00  0.00    +0.152 C 
BRANCH  28  29
ATOM     29  C   UNL     1      -2.841   0.956   1.489  0.00  0.00    -0.026 A 
ATOM     30  C   UNL     1      -3.662   1.889   2.094  0.00  0.00    +0.009 A 
ATOM     31  C   UNL     1      -4.045   1.726   3.413  0.00  0.00    +0.050 A 
ATOM     32  C   UNL     1      -3.605   0.627   4.131  0.00  0.00    +0.166 A 
ATOM     33  C   UNL     1      -2.778  -0.314   3.522  0.00  0.00    +0.167 A 
ATOM     34  C   UNL     1      -2.403  -0.147   2.199  0.00  0.00    +0.054 A 
ATOM     35  O   UNL     1      -2.486  -1.291   4.429  0.00  0.00    -0.453 OA
ATOM     36  C   UNL     1      -2.807  -0.730   5.716  0.00  0.00    +0.466 C 
ATOM     37  O   UNL     1      -3.832   0.238   5.420  0.00  0.00    -0.453 OA
ENDBRANCH  28  29
ENDBRANCH  11  28
TORSDOF 6
