REMARK  Name = ZINC39768491
REMARK  12 active torsions:
REMARK  status: ('A' for Active; 'I' for Inactive)
REMARK    1  A    between atoms: C_1  and  C_2
REMARK    2  A    between atoms: C_2  and  C_3
REMARK    3  A    between atoms: C_3  and  C_5
REMARK    4  A    between atoms: C_3  and  S_14
REMARK    5  A    between atoms: C_11  and  C_13
REMARK    6  A    between atoms: S_14  and  C_15
REMARK    7  A    between atoms: C_18  and  C_23
REMARK    8  A    between atoms: N_19  and  C_20
REMARK    9  A    between atoms: C_20  and  C_21
REMARK   10  A    between atoms: C_23  and  C_25
REMARK   11  A    between atoms: C_23  and  N_26
REMARK   12  A    between atoms: C_27  and  C_29
REMARK                            x       y       z     vdW  Elec       q    Type
REMARK                         _______ _______ _______ _____ _____    ______ ____
ROOT
ATOM      1  C   UNL     1      -0.121   1.832   2.428  0.00  0.00    +0.193 A 
ATOM      2  N   UNL     1       0.417   2.527   1.453  0.00  0.00    -0.122 NA
ATOM      3  N   UNL     1       0.181   3.778   1.627  0.00  0.00    -0.132 NA
ATOM      4  C   UNL     1      -0.516   3.955   2.714  0.00  0.00    +0.155 A 
ATOM      5  N   UNL     1      -0.739   2.722   3.260  0.00  0.00    -0.301 N 
ENDROOT
BRANCH   4   6
ATOM      6  C   UNL     1      -0.993   5.275   3.263  0.00  0.00    +0.138 C 
ATOM      7  C   UNL     1      -2.171   5.779   2.428  0.00  0.00    +0.036 C 
BRANCH   6   8
ATOM      8  N   UNL     1       0.098   6.251   3.207  0.00  0.00    -0.302 N 
ATOM      9  C   UNL     1       0.111   7.297   4.056  0.00  0.00    +0.245 C 
ATOM     10  O   UNL     1      -0.783   7.431   4.869  0.00  0.00    -0.270 OA
ATOM     11  H   UNL     1       0.812   6.144   2.559  0.00  0.00    +0.150 HD
BRANCH   9  12
ATOM     12  C   UNL     1       1.212   8.282   4.000  0.00  0.00    +0.037 A 
ATOM     13  C   UNL     1       2.237   8.134   3.064  0.00  0.00    +0.014 A 
ATOM     14  C   UNL     1       3.261   9.056   3.015  0.00  0.00    +0.021 A 
ATOM     15  C   UNL     1       3.275  10.127   3.893  0.00  0.00    +0.041 A 
ATOM     16  C   UNL     1       2.260  10.279   4.824  0.00  0.00    +0.021 A 
ATOM     17  C   UNL     1       1.228   9.367   4.878  0.00  0.00    +0.014 A 
ATOM     18 CL   UNL     1       4.568  11.283   3.827  0.00  0.00    -0.084 Cl
ENDBRANCH   9  12
ENDBRANCH   6   8
ENDBRANCH   4   6
BRANCH   1  19
ATOM     19  S   UNL     1      -0.065   0.082   2.623  0.00  0.00    -0.073 S 
BRANCH  19  20
ATOM     20  C   UNL     1       0.787  -0.498   1.130  0.00  0.00    +0.140 C 
BRANCH  20  21
ATOM     21  C   UNL     1       2.223  -0.043   1.162  0.00  0.00    +0.232 C 
ATOM     22  O   UNL     1       2.761   0.190   2.224  0.00  0.00    -0.274 OA
ATOM     23  N   UNL     1       2.909   0.104   0.012  0.00  0.00    -0.262 N 
ATOM     24  C   UNL     1       4.235   0.524   0.041  0.00  0.00    +0.188 A 
ATOM     25  N   UNL     1       4.990   0.819   1.081  0.00  0.00    -0.126 NA
ATOM     26  N   UNL     1       6.191   1.190   0.949  0.00  0.00    -0.145 NA
ATOM     27  C   UNL     1       6.704   1.287  -0.261  0.00  0.00    +0.101 A 
ATOM     28  S   UNL     1       5.297   0.782  -1.242  0.00  0.00    -0.036 S 
ATOM     29  C   UNL     1       8.086   1.700  -0.695  0.00  0.00    +0.075 C 
ATOM     30  H   UNL     1       2.478  -0.083  -0.837  0.00  0.00    +0.157 HD
ENDBRANCH  20  21
BRANCH  20  32
ATOM     31  C   UNL     1      -0.713  -2.484   0.902  0.00  0.00    +0.005 C 
ATOM     32  C   UNL     1       0.737  -2.027   1.076  0.00  0.00    +0.020 C 
ENDBRANCH  20  32
ENDBRANCH  19  20
ENDBRANCH   1  19
BRANCH   5  33
ATOM     33  C   UNL     1      -1.482   2.418   4.486  0.00  0.00    +0.152 C 
BRANCH  33  34
ATOM     34  C   UNL     1      -0.541   2.437   5.662  0.00  0.00    -0.013 C 
ATOM     35  C   UNL     1      -0.795   3.205   6.692  0.00  0.00    +0.005 C 
ENDBRANCH  33  34
ENDBRANCH   5  33
TORSDOF 9
