REMARK  Name = ZINC67205664
REMARK  11 active torsions:
REMARK  status: ('A' for Active; 'I' for Inactive)
REMARK    1  A    between atoms: C_1  and  C_2
REMARK    2  A    between atoms: C_4  and  C_7
REMARK    3  A    between atoms: C_7  and  N_12
REMARK    4  A    between atoms: C_13  and  C_15
REMARK    5  A    between atoms: C_15  and  C_17
REMARK    6  A    between atoms: C_15  and  N_18
REMARK    7  A    between atoms: C_19  and  O_21
REMARK    8  A    between atoms: O_21  and  C_22
REMARK    9  A    between atoms: C_22  and  C_23
REMARK   10  A    between atoms: C_22  and  C_24
REMARK   11  A    between atoms: C_22  and  C_25
REMARK                            x       y       z     vdW  Elec       q    Type
REMARK                         _______ _______ _______ _____ _____    ______ ____
ROOT
ATOM      1  N   UNL     1      -2.557  -3.150   1.086  0.00  0.00    -0.301 N 
ATOM      2  C   UNL     1      -3.390  -2.093   1.150  0.00  0.00    +0.234 C 
ATOM      3  O   UNL     1      -3.338  -1.228   0.302  0.00  0.00    -0.274 OA
ATOM      4  H   UNL     1      -2.598  -3.842   1.764  0.00  0.00    +0.150 HD
ENDROOT
BRANCH   1   5
ATOM      5  C   UNL     1      -1.588  -3.254  -0.008  0.00  0.00    +0.097 C 
ATOM      6  C   UNL     1      -2.315  -3.374  -1.370  0.00  0.00    +0.034 C 
ATOM      7  C   UNL     1      -2.696  -4.874  -1.424  0.00  0.00    +0.003 C 
ATOM      8  C   UNL     1      -1.487  -5.595  -0.793  0.00  0.00    +0.003 C 
ATOM      9  C   UNL     1      -0.782  -4.565   0.107  0.00  0.00    +0.034 C 
BRANCH   5  13
ATOM     10  C   UNL     1      -0.018   1.503   0.010  0.00  0.00    +0.112 C 
ATOM     11  C   UNL     1       0.002  -0.004   0.002  0.00  0.00    +0.224 A 
ATOM     12  N   UNL     1      -1.044  -0.783   0.003  0.00  0.00    -0.194 NA
ATOM     13  C   UNL     1      -0.663  -2.065  -0.006  0.00  0.00    +0.195 A 
ATOM     14  N   UNL     1       0.638  -2.118  -0.012  0.00  0.00    -0.059 NA
ATOM     15  O   UNL     1       1.097  -0.774  -0.013  0.00  0.00    -0.338 OA
ENDBRANCH   5  13
ENDBRANCH   1   5
BRANCH   2  16
ATOM     16  C   UNL     1      -4.387  -1.986   2.275  0.00  0.00    +0.159 C 
ATOM     17  C   UNL     1      -3.644  -1.953   3.613  0.00  0.00    +0.038 C 
BRANCH  16  18
ATOM     18  N   UNL     1      -5.168  -0.757   2.120  0.00  0.00    -0.270 N 
ATOM     19  C   UNL     1      -6.402  -0.671   2.655  0.00  0.00    +0.401 C 
ATOM     20  O   UNL     1      -6.866  -1.613   3.267  0.00  0.00    -0.226 OA
ATOM     21  H   UNL     1      -4.798  -0.005   1.632  0.00  0.00    +0.153 HD
BRANCH  19  22
ATOM     22  O   UNL     1      -7.120   0.459   2.513  0.00  0.00    -0.445 OA
BRANCH  22  23
ATOM     23  C   UNL     1      -8.420   0.481   3.106  0.00  0.00    +0.107 C 
ATOM     24  C   UNL     1      -8.296   0.260   4.615  0.00  0.00    +0.055 C 
ATOM     25  C   UNL     1      -9.079   1.836   2.841  0.00  0.00    +0.055 C 
ATOM     26  C   UNL     1      -9.277  -0.631   2.497  0.00  0.00    +0.055 C 
ENDBRANCH  22  23
ENDBRANCH  19  22
ENDBRANCH  16  18
ENDBRANCH   2  16
TORSDOF 6
