REMARK  Name = ZINC62893411
REMARK  5 active torsions:
REMARK  status: ('A' for Active; 'I' for Inactive)
REMARK    1  A    between atoms: C_1  and  C_2
REMARK    2  A    between atoms: C_2  and  C_3
REMARK    3  A    between atoms: C_3  and  C_8
REMARK    4  A    between atoms: N_10  and  C_11
REMARK    5  A    between atoms: C_16  and  C_19
REMARK                            x       y       z     vdW  Elec       q    Type
REMARK                         _______ _______ _______ _____ _____    ______ ____
ROOT
ATOM      1  C   UNL     1      -0.064   0.109   2.490  0.00  0.00    +0.218 C 
ATOM      2  O   UNL     1      -0.408  -0.655   3.367  0.00  0.00    -0.275 OA
ATOM      3  N   UNL     1      -0.365   1.420   2.582  0.00  0.00    -0.312 N 
ATOM      4  H   UNL     1      -0.026   2.042   1.920  0.00  0.00    +0.149 HD
ENDROOT
BRANCH   1   5
ATOM      5  C   UNL     1       0.702  -0.407   1.299  0.00  0.00    +0.030 C 
ATOM      6  C   UNL     1       2.146   0.145   1.306  0.00  0.00    -0.005 C 
ATOM      7  C   UNL     1       2.954  -1.008   1.954  0.00  0.00    -0.082 C 
ATOM      8  N   UNL     1       2.305  -2.227   1.406  0.00  0.00    +0.380 N 
ATOM      9  C   UNL     1       0.855  -1.937   1.384  0.00  0.00    -0.067 C 
ATOM     10  H   UNL     1       2.638  -2.408   0.471  0.00  0.00    -0.086 HD
ATOM     11  H   UNL     1       2.493  -3.019   2.003  0.00  0.00    -0.086 HD
BRANCH   5  13
ATOM     12  C   UNL     1      -1.440  -0.558   0.022  0.00  0.00    +0.005 C 
ATOM     13  C   UNL     1      -0.010  -0.016   0.002  0.00  0.00    +0.011 C 
ENDBRANCH   5  13
ENDBRANCH   1   5
BRANCH   3  14
ATOM     14  C   UNL     1      -1.204   1.904   3.681  0.00  0.00    +0.073 C 
ATOM     15  C   UNL     1      -0.332   2.169   4.910  0.00  0.00    +0.022 C 
ATOM     16  C   UNL     1       0.722   3.225   4.569  0.00  0.00    +0.002 C 
ATOM     17  C   UNL     1       0.027   4.521   4.148  0.00  0.00    +0.012 C 
ATOM     18  C   UNL     1      -0.845   4.256   2.919  0.00  0.00    +0.095 C 
ATOM     19  C   UNL     1      -1.899   3.200   3.259  0.00  0.00    +0.034 C 
BRANCH  18  20
ATOM     20  C   UNL     1      -1.540   5.552   2.497  0.00  0.00    +0.393 C 
ATOM     21  F   UNL     1      -0.577   6.518   2.186  0.00  0.00    -0.170 F 
ATOM     22  F   UNL     1      -2.338   5.310   1.374  0.00  0.00    -0.170 F 
ATOM     23  F   UNL     1      -2.341   6.014   3.547  0.00  0.00    -0.170 F 
ENDBRANCH  18  20
ENDBRANCH   3  14
TORSDOF 4
