REMARK  Name = ZINC65197847
REMARK  7 active torsions:
REMARK  status: ('A' for Active; 'I' for Inactive)
REMARK    1  A    between atoms: C_1  and  C_2
REMARK    2  A    between atoms: C_7  and  S_8
REMARK    3  A    between atoms: S_8  and  C_9
REMARK    4  A    between atoms: C_9  and  C_10
REMARK    5  A    between atoms: N_12  and  N_13
REMARK    6  A    between atoms: N_16  and  C_17
REMARK    7  A    between atoms: C_17  and  C_18
REMARK                            x       y       z     vdW  Elec       q    Type
REMARK                         _______ _______ _______ _____ _____    ______ ____
ROOT
ATOM      1  C   UNL     1       0.060  -0.534   5.359  0.00  0.00    +0.239 C 
ATOM      2  O   UNL     1       0.045   0.672   5.484  0.00  0.00    -0.273 OA
ATOM      3  N   UNL     1       0.081  -1.324   6.451  0.00  0.00    -0.233 N 
ATOM      4  H   UNL     1       0.093  -2.289   6.351  0.00  0.00    +0.173 HD
ENDROOT
BRANCH   3   5
ATOM      5  N   UNL     1       0.086  -0.752   7.730  0.00  0.00    -0.218 N 
ATOM      6  C   UNL     1       0.107  -1.542   8.822  0.00  0.00    +0.316 C 
ATOM      7  O   UNL     1       0.111  -1.045   9.931  0.00  0.00    -0.251 OA
ATOM      8  N   UNL     1       0.124  -2.882   8.683  0.00  0.00    -0.298 N 
ATOM      9  H   UNL     1       0.073   0.213   7.829  0.00  0.00    +0.174 HD
ATOM     10  H   UNL     1       0.121  -3.279   7.798  0.00  0.00    +0.150 HD
BRANCH   8  11
ATOM     11  C   UNL     1       0.147  -3.741   9.870  0.00  0.00    +0.109 C 
BRANCH  11  12
ATOM     12  C   UNL     1       0.162  -5.208   9.438  0.00  0.00    +0.006 C 
ATOM     13  C   UNL     1      -1.038  -6.073   9.828  0.00  0.00    +0.005 C 
ATOM     14  C   UNL     1       0.305  -6.266  10.534  0.00  0.00    +0.005 C 
ENDBRANCH  11  12
ENDBRANCH   8  11
ENDBRANCH   3   5
BRANCH   1  15
ATOM     15  C   UNL     1       0.056  -1.150   3.984  0.00  0.00    +0.171 C 
BRANCH  15  16
ATOM     16  S   UNL     1       0.026   0.164   2.733  0.00  0.00    -0.116 S 
BRANCH  16  23
ATOM     17  C   UNL     1      -0.018   1.503   0.010  0.00  0.00    +0.045 C 
ATOM     18  C   UNL     1       0.002  -0.004   0.002  0.00  0.00    -0.036 A 
ATOM     19  C   UNL     1       0.006  -0.689  -1.197  0.00  0.00    +0.019 A 
ATOM     20  C   UNL     1       0.024  -2.072  -1.206  0.00  0.00    +0.018 A 
ATOM     21  C   UNL     1       0.039  -2.774  -0.013  0.00  0.00    +0.016 A 
ATOM     22  C   UNL     1       0.035  -2.096   1.189  0.00  0.00    +0.016 A 
ATOM     23  C   UNL     1       0.023  -0.706   1.201  0.00  0.00    +0.011 A 
ATOM     24 BR   UNL     1       0.029  -3.006  -2.850  0.00  0.00    -0.050 Br
ENDBRANCH  16  23
ENDBRANCH  15  16
ENDBRANCH   1  15
TORSDOF 6
