REMARK  Name = ZINC15125722
REMARK  10 active torsions:
REMARK  status: ('A' for Active; 'I' for Inactive)
REMARK    1  A    between atoms: C_1  and  C_2
REMARK    2  A    between atoms: C_5  and  N_11
REMARK    3  A    between atoms: C_6  and  N_8
REMARK    4  A    between atoms: C_12  and  C_14
REMARK    5  A    between atoms: C_14  and  N_15
REMARK    6  A    between atoms: N_15  and  C_16
REMARK    7  A    between atoms: C_21  and  C_22
REMARK    8  A    between atoms: C_22  and  N_60
REMARK    9  A    between atoms: C_23  and  N_60
REMARK   10  A    between atoms: C_24  and  N_60
REMARK                            x       y       z     vdW  Elec       q    Type
REMARK                         _______ _______ _______ _____ _____    ______ ____
ROOT
ATOM      1  N   UNL     1      -4.585   0.914  -0.405  0.00  0.00    -0.335 N 
ATOM      2  H   UNL     1      -4.356  -0.028  -0.414  0.00  0.00    +0.147 HD
ENDROOT
BRANCH   1   3
ATOM      3  C   UNL     1      -5.919   1.310  -0.531  0.00  0.00    +0.029 A 
ATOM      4  C   UNL     1      -6.250   2.659  -0.512  0.00  0.00    +0.023 A 
ATOM      5  C   UNL     1      -7.569   3.046  -0.642  0.00  0.00    +0.002 A 
ATOM      6  C   UNL     1      -8.561   2.093  -0.779  0.00  0.00    +0.000 A 
ATOM      7  C   UNL     1      -8.236   0.749  -0.792  0.00  0.00    +0.003 A 
ATOM      8  C   UNL     1      -6.918   0.355  -0.668  0.00  0.00    -0.043 A 
BRANCH   8   9
ATOM      9  C   UNL     1      -6.564  -1.110  -0.684  0.00  0.00    -0.041 C 
BRANCH   9  11
ATOM     10  C   UNL     1      -7.610  -1.529   1.459  0.00  0.00    -0.095 C 
ATOM     11  N   UNL     1      -6.339  -1.561   0.706  0.00  0.00    +0.382 N 
ATOM     12  H   UNL     1      -5.668  -0.928   1.157  0.00  0.00    -0.081 HD
BRANCH  11  13
ATOM     13  C   UNL     1      -5.784  -2.930   0.709  0.00  0.00    -0.069 C 
ATOM     14  C   UNL     1      -6.788  -3.918   0.112  0.00  0.00    -0.015 C 
ATOM     15  C   UNL     1      -6.190  -5.326   0.128  0.00  0.00    -0.002 C 
ATOM     16  C   UNL     1      -5.875  -5.729   1.570  0.00  0.00    -0.000 C 
ATOM     17  C   UNL     1      -4.870  -4.742   2.167  0.00  0.00    -0.002 C 
ATOM     18  C   UNL     1      -5.468  -3.333   2.151  0.00  0.00    -0.015 C 
ENDBRANCH  11  13
ENDBRANCH   9  11
ENDBRANCH   8   9
ENDBRANCH   1   3
BRANCH   1  19
ATOM     19  C   UNL     1      -3.533   1.923  -0.260  0.00  0.00    +0.198 C 
BRANCH  19  21
ATOM     20  N   UNL     1      -1.073   1.974  -0.001  0.00  0.00    -0.282 N 
ATOM     21  C   UNL     1      -2.195   1.240  -0.144  0.00  0.00    +0.234 C 
ATOM     22  O   UNL     1      -2.127   0.029  -0.179  0.00  0.00    -0.274 OA
ATOM     23  H   UNL     1      -1.134   2.936   0.109  0.00  0.00    +0.155 HD
BRANCH  20  28
ATOM     24  C   UNL     1       4.006  -0.553  -0.059  0.00  0.00    +0.044 C 
ATOM     25  C   UNL     1       2.656   0.117  -0.042  0.00  0.00    -0.048 A 
ATOM     26  C   UNL     1       1.582  -0.479  -0.676  0.00  0.00    +0.005 A 
ATOM     27  C   UNL     1       0.344   0.133  -0.662  0.00  0.00    +0.026 A 
ATOM     28  C   UNL     1       0.178   1.349  -0.011  0.00  0.00    +0.064 A 
ATOM     29  C   UNL     1       1.259   1.944   0.625  0.00  0.00    +0.148 A 
ATOM     30  C   UNL     1       2.495   1.327   0.608  0.00  0.00    +0.038 A 
BRANCH  29  31
ATOM     31  N   UNL     1       1.088   3.240   1.319  0.00  0.00    +0.058 N 
ATOM     32  O   UNL     1       2.054   3.810   1.793  0.00  0.00    -0.126 OA
ATOM     33  O   UNL     1      -0.020   3.737   1.417  0.00  0.00    -0.126 OA
ENDBRANCH  29  31
ENDBRANCH  20  28
ENDBRANCH  19  21
ENDBRANCH   1  19
TORSDOF 8
