REMARK  Name = ZINC39635123
REMARK  8 active torsions:
REMARK  status: ('A' for Active; 'I' for Inactive)
REMARK    1  A    between atoms: C_1  and  O_2
REMARK    2  A    between atoms: O_2  and  C_3
REMARK    3  A    between atoms: C_6  and  C_9
REMARK    4  A    between atoms: C_9  and  C_10
REMARK    5  A    between atoms: C_10  and  N_11
REMARK    6  A    between atoms: C_12  and  C_14
REMARK    7  A    between atoms: C_25  and  C_27
REMARK    8  A    between atoms: C_30  and  C_32
REMARK                            x       y       z     vdW  Elec       q    Type
REMARK                         _______ _______ _______ _____ _____    ______ ____
ROOT
ATOM      1  C   UNL     1       6.620  -4.335  -6.328  0.00  0.00    +0.100 C 
ATOM      2  C   UNL     1       6.098  -5.779  -6.494  0.00  0.00    +0.121 C 
ATOM      3  N   UNL     1       7.285  -6.562  -6.909  0.00  0.00    -0.294 N 
ATOM      4  C   UNL     1       8.395  -6.006  -6.099  0.00  0.00    +0.115 C 
ATOM      5  C   UNL     1       8.128  -4.488  -6.068  0.00  0.00    -0.004 C 
ATOM      6  C   UNL     1       8.489  -3.917  -4.700  0.00  0.00    -0.010 C 
ATOM      7  C   UNL     1      10.002  -4.028  -4.488  0.00  0.00    -0.082 C 
ATOM      8  N   UNL     1      10.701  -3.291  -5.548  0.00  0.00    +0.379 N 
ATOM      9  C   UNL     1      10.422  -3.905  -6.852  0.00  0.00    -0.082 C 
ATOM     10  C   UNL     1       8.927  -3.789  -7.163  0.00  0.00    -0.010 C 
ATOM     11  C   UNL     1       7.344  -7.554  -7.819  0.00  0.00    +0.282 C 
ATOM     12  O   UNL     1       8.404  -8.105  -8.052  0.00  0.00    -0.267 OA
ATOM     13  H   UNL     1      10.386  -2.333  -5.554  0.00  0.00    -0.086 HD
ATOM     14  H   UNL     1      11.695  -3.314  -5.373  0.00  0.00    -0.086 HD
ENDROOT
BRANCH  11  15
ATOM     15  C   UNL     1       6.131  -7.970  -8.528  0.00  0.00    +0.190 A 
ATOM     16  C   UNL     1       6.049  -8.969  -9.474  0.00  0.00    +0.055 A 
ATOM     17  C   UNL     1       4.714  -9.028  -9.884  0.00  0.00    +0.051 A 
ATOM     18  C   UNL     1       4.036  -8.072  -9.182  0.00  0.00    +0.139 A 
ATOM     19  O   UNL     1       4.898  -7.446  -8.365  0.00  0.00    -0.450 OA
BRANCH  18  20
ATOM     20  C   UNL     1       2.593  -7.781  -9.298  0.00  0.00    +0.052 A 
ATOM     21  C   UNL     1       2.014  -7.590 -10.555  0.00  0.00    +0.014 A 
ATOM     22  C   UNL     1       0.666  -7.318 -10.656  0.00  0.00    +0.001 A 
ATOM     23  C   UNL     1      -0.115  -7.234  -9.517  0.00  0.00    +0.003 A 
ATOM     24  C   UNL     1       0.449  -7.421  -8.268  0.00  0.00    +0.039 A 
ATOM     25  C   UNL     1       1.798  -7.700  -8.151  0.00  0.00    +0.134 A 
ATOM     26  F   UNL     1       2.348  -7.889  -6.931  0.00  0.00    -0.205 F 
ENDBRANCH  18  20
ENDBRANCH  11  15
BRANCH   1  28
ATOM     27  N   UNL     1       5.787  -2.329  -5.145  0.00  0.00    -0.315 N 
ATOM     28  C   UNL     1       5.951  -3.666  -5.155  0.00  0.00    +0.218 C 
ATOM     29  O   UNL     1       5.560  -4.332  -4.220  0.00  0.00    -0.275 OA
ATOM     30  H   UNL     1       6.100  -1.796  -5.893  0.00  0.00    +0.149 HD
BRANCH  27  31
ATOM     31  C   UNL     1       5.136  -1.679  -4.005  0.00  0.00    +0.109 C 
BRANCH  31  32
ATOM     32  C   UNL     1       5.077  -0.169  -4.245  0.00  0.00    +0.054 C 
BRANCH  32  36
ATOM     33  C   UNL     1       3.178   1.728  -0.919  0.00  0.00    +0.120 A 
ATOM     34  C   UNL     1       4.554   1.547  -0.923  0.00  0.00    +0.046 A 
ATOM     35  C   UNL     1       5.165   0.933  -1.999  0.00  0.00    +0.007 A 
ATOM     36  C   UNL     1       4.407   0.500  -3.072  0.00  0.00    -0.046 A 
ATOM     37  C   UNL     1       3.036   0.680  -3.070  0.00  0.00    +0.007 A 
ATOM     38  C   UNL     1       2.420   1.288  -1.994  0.00  0.00    +0.046 A 
BRANCH  33  40
ATOM     39  C   UNL     1       3.418   2.759   1.210  0.00  0.00    +0.277 C 
ATOM     40  O   UNL     1       2.575   2.331   0.139  0.00  0.00    -0.495 OA
ENDBRANCH  33  40
ENDBRANCH  32  36
ENDBRANCH  31  32
ENDBRANCH  27  31
ENDBRANCH   1  28
TORSDOF 7
