REMARK  Name = ZINC35206109
REMARK  3 active torsions:
REMARK  status: ('A' for Active; 'I' for Inactive)
REMARK    1  A    between atoms: C_1  and  C_2
REMARK    2  A    between atoms: C_2  and  C_4
REMARK    3  A    between atoms: C_7  and  C_9
REMARK                            x       y       z     vdW  Elec       q    Type
REMARK                         _______ _______ _______ _____ _____    ______ ____
ROOT
ATOM      1  C   UNL     1       0.731  -0.503   1.223  0.00  0.00    +0.235 A 
ATOM      2  N   UNL     1       2.020  -0.481   1.411  0.00  0.00    -0.111 NA
ATOM      3  N   UNL     1       2.297  -0.986   2.562  0.00  0.00    -0.107 NA
ATOM      4  C   UNL     1       1.180  -1.351   3.155  0.00  0.00    +0.255 A 
ATOM      5  O   UNL     1       0.167  -1.047   2.317  0.00  0.00    -0.418 OA
ENDROOT
BRANCH   4   6
ATOM      6  C   UNL     1       1.059  -1.970   4.482  0.00  0.00    +0.077 A 
ATOM      7  C   UNL     1       2.054  -2.294   5.387  0.00  0.00    +0.022 A 
ATOM      8  C   UNL     1       1.690  -2.873   6.580  0.00  0.00    +0.024 A 
ATOM      9  C   UNL     1       0.374  -3.107   6.832  0.00  0.00    +0.056 A 
ATOM     10  S   UNL     1      -0.411  -2.492   5.351  0.00  0.00    -0.077 S 
ATOM     11 BR   UNL     1      -0.422  -3.881   8.362  0.00  0.00    -0.043 Br
ENDBRANCH   4   6
BRANCH   1  13
ATOM     12  C   UNL     1      -0.019   1.526   0.010  0.00  0.00    +0.034 C 
ATOM     13  C   UNL     1       0.002  -0.004   0.002  0.00  0.00    +0.165 C 
ATOM     14 CL   UNL     1       0.846  -0.586  -1.481  0.00  0.00    -0.112 Cl
ENDBRANCH   1  13
TORSDOF 2
