REMARK  Name = ZINC02108424
REMARK  9 active torsions:
REMARK  status: ('A' for Active; 'I' for Inactive)
REMARK    1  A    between atoms: C_1  and  C_2
REMARK    2  A    between atoms: C_6  and  C_33
REMARK    3  A    between atoms: C_10  and  C_32
REMARK    4  A    between atoms: C_15  and  C_16
REMARK    5  A    between atoms: C_16  and  C_17
REMARK    6  A    between atoms: C_17  and  C_18
REMARK    7  A    between atoms: C_23  and  O_31
REMARK    8  A    between atoms: C_36  and  O_39
REMARK    9  A    between atoms: O_39  and  C_40
REMARK                            x       y       z     vdW  Elec       q    Type
REMARK                         _______ _______ _______ _____ _____    ______ ____
ROOT
ATOM      1  C   UNL     1      -7.062  -0.263   3.598  0.00  0.00    +0.045 C 
ATOM      2  C   UNL     1      -6.733   1.063   4.234  0.00  0.00    -0.030 A 
ATOM      3  C   UNL     1      -7.334   1.456   5.512  0.00  0.00    +0.022 A 
ATOM      4  C   UNL     1      -8.227   0.610   6.170  0.00  0.00    +0.024 A 
ATOM      5  C   UNL     1      -8.782   1.013   7.375  0.00  0.00    +0.029 A 
ATOM      6  C   UNL     1      -9.733   0.399   8.322  0.00  0.00    +0.028 A 
ATOM      7  C   UNL     1      -9.886   1.293   9.324  0.00  0.00    +0.204 A 
ATOM      8  O   UNL     1      -9.134   2.382   9.089  0.00  0.00    -0.462 OA
ATOM      9  C   UNL     1      -8.452   2.264   7.931  0.00  0.00    +0.142 A 
ATOM     10  C   UNL     1      -7.564   3.101   7.271  0.00  0.00    +0.035 A 
ATOM     11  C   UNL     1      -7.003   2.708   6.068  0.00  0.00    +0.146 A 
ATOM     12  O   UNL     1      -6.137   3.520   5.420  0.00  0.00    -0.422 OA
ATOM     13  C   UNL     1      -5.580   3.163   4.253  0.00  0.00    +0.341 A 
ATOM     14  O   UNL     1      -4.806   3.929   3.707  0.00  0.00    -0.245 OA
ATOM     15  C   UNL     1      -5.868   1.925   3.641  0.00  0.00    +0.041 A 
ATOM     16  C   UNL     1      -7.208   4.439   7.865  0.00  0.00    +0.051 C 
ENDROOT
BRANCH   6  17
ATOM     17  C   UNL     1     -10.385  -0.927   8.200  0.00  0.00    -0.014 A 
ATOM     18  C   UNL     1     -11.033  -1.280   7.017  0.00  0.00    +0.012 A 
ATOM     19  C   UNL     1     -11.636  -2.516   6.906  0.00  0.00    +0.046 A 
ATOM     20  C   UNL     1     -11.605  -3.404   7.973  0.00  0.00    +0.120 A 
ATOM     21  C   UNL     1     -10.965  -3.053   9.153  0.00  0.00    +0.046 A 
ATOM     22  C   UNL     1     -10.357  -1.820   9.270  0.00  0.00    +0.012 A 
BRANCH  20  23
ATOM     23  O   UNL     1     -12.204  -4.619   7.861  0.00  0.00    -0.495 OA
ATOM     24  C   UNL     1     -12.844  -4.915   6.618  0.00  0.00    +0.277 C 
ENDBRANCH  20  23
ENDBRANCH   6  17
BRANCH  15  25
ATOM     25  C   UNL     1      -5.220   1.562   2.329  0.00  0.00    +0.052 C 
BRANCH  25  26
ATOM     26  C   UNL     1      -3.902   0.834   2.595  0.00  0.00    +0.101 C 
BRANCH  26  27
ATOM     27  C   UNL     1      -3.254   0.471   1.284  0.00  0.00    +0.216 C 
ATOM     28  O   UNL     1      -3.794   0.767   0.238  0.00  0.00    -0.276 OA
ATOM     29  N   UNL     1      -2.075  -0.181   1.272  0.00  0.00    -0.301 N 
ATOM     30  C   UNL     1      -1.408  -0.546   2.529  0.00  0.00    +0.110 C 
ATOM     31  C   UNL     1       0.024  -0.002   2.502  0.00  0.00    +0.054 C 
ATOM     32  C   UNL     1       0.737  -0.510   1.246  0.00  0.00    +0.072 C 
ATOM     33  C   UNL     1       2.175   0.014   1.229  0.00  0.00    +0.035 C 
ATOM     34  C   UNL     1       2.159   1.544   1.237  0.00  0.00    +0.003 C 
ATOM     35  C   UNL     1       1.417   2.053  -0.000  0.00  0.00    +0.001 C 
ATOM     36  C   UNL     1      -0.019   1.526   0.010  0.00  0.00    +0.008 C 
ATOM     37  C   UNL     1       0.002  -0.004   0.002  0.00  0.00    +0.038 C 
ATOM     38  C   UNL     1      -1.433  -0.536   0.005  0.00  0.00    +0.114 C 
BRANCH  32  39
ATOM     39  O   UNL     1       0.747  -1.939   1.247  0.00  0.00    -0.388 OA
ATOM     40  H   UNL     1       1.198  -2.328   2.009  0.00  0.00    +0.210 HD
ENDBRANCH  32  39
ENDBRANCH  26  27
ENDBRANCH  25  26
ENDBRANCH  15  25
TORSDOF 6
