REMARK  Name = ZINC06025366
REMARK  6 active torsions:
REMARK  status: ('A' for Active; 'I' for Inactive)
REMARK    1  A    between atoms: C_1  and  C_2
REMARK    2  A    between atoms: C_6  and  C_14
REMARK    3  A    between atoms: C_12  and  C_13
REMARK    4  A    between atoms: C_14  and  O_15
REMARK    5  A    between atoms: O_15  and  C_16
REMARK    6  A    between atoms: C_16  and  C_18
REMARK                            x       y       z     vdW  Elec       q    Type
REMARK                         _______ _______ _______ _____ _____    ______ ____
ROOT
ATOM      1  C   UNL     1       1.268   2.020   0.001  0.00  0.00    +0.269 C 
ENDROOT
BRANCH   1   7
ATOM      2  C   UNL     1       5.458   7.184  -0.011  0.00  0.00    +0.044 C 
ATOM      3  C   UNL     1       4.299   6.221  -0.006  0.00  0.00    -0.044 A 
ATOM      4  C   UNL     1       4.541   4.855  -0.015  0.00  0.00    +0.004 A 
ATOM      5  C   UNL     1       3.503   3.967  -0.010  0.00  0.00    +0.012 A 
ATOM      6  C   UNL     1       2.187   4.439   0.005  0.00  0.00    +0.024 A 
ATOM      7  C   UNL     1       1.051   3.511   0.011  0.00  0.00    +0.007 A 
ATOM      8  C   UNL     1      -0.202   4.033   0.020  0.00  0.00    +0.099 A 
ATOM      9  C   UNL     1      -0.379   5.434   0.033  0.00  0.00    +0.338 A 
ATOM     10  O   UNL     1      -1.508   5.889   0.045  0.00  0.00    -0.245 OA
ATOM     11  O   UNL     1       0.666   6.276   0.028  0.00  0.00    -0.422 OA
ATOM     12  C   UNL     1       1.937   5.822   0.014  0.00  0.00    +0.143 A 
ATOM     13  C   UNL     1       3.008   6.707   0.009  0.00  0.00    -0.005 A 
ATOM     14  C   UNL     1       2.760   8.193   0.018  0.00  0.00    +0.048 C 
ENDBRANCH   1   7
BRANCH   1  15
ATOM     15  O   UNL     1      -0.016   1.344   0.009  0.00  0.00    -0.455 OA
BRANCH  15  16
ATOM     16  C   UNL     1       0.002  -0.004   0.002  0.00  0.00    +0.360 C 
ATOM     17  O   UNL     1       1.063  -0.597  -0.011  0.00  0.00    -0.243 OA
BRANCH  16  18
ATOM     18  C   UNL     1      -1.263  -0.758   0.010  0.00  0.00    +0.177 A 
ATOM     19  C   UNL     1      -1.418  -2.219   0.004  0.00  0.00    +0.034 A 
ATOM     20  C   UNL     1      -0.553  -3.309  -0.010  0.00  0.00    +0.012 A 
ATOM     21  C   UNL     1      -1.068  -4.576  -0.012  0.00  0.00    +0.001 A 
ATOM     22  C   UNL     1      -2.442  -4.780   0.000  0.00  0.00    +0.002 A 
ATOM     23  C   UNL     1      -3.308  -3.722   0.015  0.00  0.00    +0.028 A 
ATOM     24  C   UNL     1      -2.811  -2.422   0.016  0.00  0.00    +0.067 A 
ATOM     25  N   UNL     1      -3.377  -1.174   0.028  0.00  0.00    -0.276 N 
ATOM     26  H   UNL     1      -4.362  -1.001   0.034  0.00  0.00    +0.189 HD
ATOM     27  N   UNL     1      -2.480  -0.256   0.030  0.00  0.00    -0.166 NA
ENDBRANCH  16  18
ENDBRANCH  15  16
ENDBRANCH   1  15
TORSDOF 4
