REMARK  Name = ZINC16612997
REMARK  6 active torsions:
REMARK  status: ('A' for Active; 'I' for Inactive)
REMARK    1  A    between atoms: C_4  and  N_7
REMARK    2  A    between atoms: N_9  and  C_26
REMARK    3  A    between atoms: C_18  and  C_20
REMARK    4  A    between atoms: C_26  and  C_27
REMARK    5  A    between atoms: N_29  and  C_30
REMARK    6  A    between atoms: C_30  and  C_31
REMARK                            x       y       z     vdW  Elec       q    Type
REMARK                         _______ _______ _______ _____ _____    ______ ____
ROOT
ATOM      1  N   UNL     1      -3.532  -0.770  -1.125  0.00  0.00    -0.300 N 
ATOM      2  C   UNL     1      -2.759   0.439  -1.499  0.00  0.00    +0.217 C 
ATOM      3  N   UNL     1      -2.289   1.028  -0.238  0.00  0.00    -0.275 N 
ATOM      4  C   UNL     1      -3.016   0.536   0.788  0.00  0.00    +0.241 C 
ATOM      5  O   UNL     1      -2.886   0.835   1.956  0.00  0.00    -0.273 OA
ATOM      6  C   UNL     1      -4.016  -0.448   0.234  0.00  0.00    +0.115 C 
ATOM      7  C   UNL     1      -5.401   0.187   0.158  0.00  0.00    +0.054 C 
ATOM      8  C   UNL     1      -5.868   0.561   1.569  0.00  0.00    +0.110 C 
ATOM      9  N   UNL     1      -5.783  -0.630   2.425  0.00  0.00    -0.301 N 
ATOM     10  C   UNL     1      -4.506  -1.353   2.508  0.00  0.00    +0.110 C 
ATOM     11  C   UNL     1      -4.050  -1.711   1.090  0.00  0.00    +0.054 C 
ATOM     12  C   UNL     1      -6.856  -1.053   3.122  0.00  0.00    +0.219 C 
ATOM     13  O   UNL     1      -6.805  -2.093   3.743  0.00  0.00    -0.275 OA
ENDROOT
BRANCH   1  17
ATOM     14  C   UNL     1      -6.715  -1.362  -3.743  0.00  0.00    +0.000 A 
ATOM     15  C   UNL     1      -5.751  -0.414  -4.033  0.00  0.00    +0.002 A 
ATOM     16  C   UNL     1      -4.694  -0.215  -3.166  0.00  0.00    +0.023 A 
ATOM     17  C   UNL     1      -4.600  -0.969  -2.003  0.00  0.00    +0.032 A 
ATOM     18  C   UNL     1      -5.567  -1.924  -1.718  0.00  0.00    +0.023 A 
ATOM     19  C   UNL     1      -6.625  -2.114  -2.586  0.00  0.00    +0.002 A 
ENDBRANCH   1  17
BRANCH  12  20
ATOM     20  C   UNL     1      -8.120  -0.232   3.129  0.00  0.00    +0.075 C 
ATOM     21  C   UNL     1      -8.799  -0.353   4.495  0.00  0.00    +0.013 C 
ATOM     22  C   UNL     1     -10.082   0.480   4.502  0.00  0.00    +0.001 C 
ATOM     23  C   UNL     1     -11.029  -0.032   3.415  0.00  0.00    +0.000 C 
ATOM     24  C   UNL     1     -10.350   0.089   2.049  0.00  0.00    +0.001 C 
ATOM     25  C   UNL     1      -9.067  -0.745   2.042  0.00  0.00    +0.013 C 
ENDBRANCH  12  20
BRANCH   3  26
ATOM     26  C   UNL     1      -1.204   2.003  -0.114  0.00  0.00    +0.205 C 
BRANCH  26  27
ATOM     27  C   UNL     1       0.103   1.278   0.082  0.00  0.00    +0.231 C 
ATOM     28  O   UNL     1       0.125   0.066   0.115  0.00  0.00    -0.274 OA
ATOM     29  N   UNL     1       1.248   1.977   0.216  0.00  0.00    -0.312 N 
ATOM     30  H   UNL     1       1.230   2.947   0.190  0.00  0.00    +0.149 HD
BRANCH  29  31
ATOM     31  C   UNL     1       2.519   1.272   0.400  0.00  0.00    +0.135 C 
BRANCH  31  32
ATOM     32  C   UNL     1       3.653   2.291   0.524  0.00  0.00    +0.135 C 
ATOM     33  C   UNL     1       5.018   1.570   0.594  0.00  0.00    +0.035 C 
ATOM     34  C   UNL     1       5.837   2.413   1.597  0.00  0.00    +0.031 C 
ATOM     35  C   UNL     1       4.870   3.543   2.015  0.00  0.00    +0.160 C 
ATOM     36  O   UNL     1       3.550   3.008   1.774  0.00  0.00    -0.375 OA
ENDBRANCH  31  32
ENDBRANCH  29  31
ENDBRANCH  26  27
ENDBRANCH   3  26
TORSDOF 6
