REMARK  Name = ZINC04809605
REMARK  2 active torsions:
REMARK  status: ('A' for Active; 'I' for Inactive)
REMARK    1  A    between atoms: C_10  and  C_26
REMARK    2  A    between atoms: C_16  and  C_21
REMARK                            x       y       z     vdW  Elec       q    Type
REMARK                         _______ _______ _______ _____ _____    ______ ____
ROOT
ATOM      1  C   UNL     1      -0.017   1.379   0.010  0.00  0.00    +0.002 A 
ATOM      2  C   UNL     1       1.147   2.129   0.003  0.00  0.00    +0.002 A 
ATOM      3  C   UNL     1       2.401   1.539  -0.013  0.00  0.00    +0.028 A 
ATOM      4  C   UNL     1       2.447   0.150  -0.022  0.00  0.00    +0.071 A 
ATOM      5  C   UNL     1       1.258  -0.622  -0.014  0.00  0.00    +0.091 A 
ATOM      6  C   UNL     1       0.002  -0.004   0.002  0.00  0.00    +0.030 A 
ATOM      7  N   UNL     1       1.621  -1.920  -0.023  0.00  0.00    -0.214 NA
ATOM      8  C   UNL     1       2.924  -2.005  -0.036  0.00  0.00    +0.202 A 
ATOM      9  N   UNL     1       3.478  -0.744  -0.040  0.00  0.00    -0.299 N 
ATOM     10  C   UNL     1       4.920  -0.513  -0.065  0.00  0.00    +0.162 C 
ATOM     11  C   UNL     1       5.659  -1.790   0.265  0.00  0.00    +0.040 C 
ATOM     12  C   UNL     1       5.055  -2.997   0.250  0.00  0.00    +0.020 C 
ATOM     13  N   UNL     1       3.720  -3.137  -0.043  0.00  0.00    -0.288 N 
ATOM     14  C   UNL     1       5.832  -4.257   0.553  0.00  0.00    +0.063 C 
ATOM     15  C   UNL     1       6.947  -3.945   1.552  0.00  0.00    +0.068 C 
ATOM     16  C   UNL     1       7.856  -2.872   0.942  0.00  0.00    +0.091 C 
ATOM     17  C   UNL     1       7.024  -1.671   0.588  0.00  0.00    +0.164 C 
ATOM     18  O   UNL     1       7.542  -0.572   0.582  0.00  0.00    -0.292 OA
ATOM     19  H   UNL     1       3.345  -4.007  -0.251  0.00  0.00    +0.155 HD
ENDROOT
BRANCH  15  20
ATOM     20  C   UNL     1       7.747  -5.192   1.826  0.00  0.00    +0.109 A 
ATOM     21  C   UNL     1       7.903  -5.779   3.027  0.00  0.00    +0.045 A 
ATOM     22  C   UNL     1       8.723  -6.913   2.825  0.00  0.00    +0.041 A 
ATOM     23  C   UNL     1       9.018  -6.952   1.514  0.00  0.00    +0.195 A 
ATOM     24  O   UNL     1       8.420  -5.911   0.912  0.00  0.00    -0.468 OA
ENDBRANCH  15  20
BRANCH  10  25
ATOM     25  C   UNL     1       5.324  -0.043  -1.438  0.00  0.00    +0.017 A 
ATOM     26  C   UNL     1       5.908   1.124  -1.803  0.00  0.00    +0.013 A 
ATOM     27  C   UNL     1       6.192   1.343  -3.138  0.00  0.00    +0.008 A 
ATOM     28  C   UNL     1       5.878   0.383  -4.043  0.00  0.00    +0.045 A 
ATOM     29  S   UNL     1       5.164  -0.882  -3.006  0.00  0.00    -0.099 S 
ENDBRANCH  10  25
TORSDOF 2
