REMARK  Name = ZINC21776233
REMARK  10 active torsions:
REMARK  status: ('A' for Active; 'I' for Inactive)
REMARK    1  A    between atoms: C_1  and  C_2
REMARK    2  A    between atoms: C_4  and  O_31
REMARK    3  A    between atoms: C_7  and  S_8
REMARK    4  A    between atoms: S_8  and  N_11
REMARK    5  A    between atoms: N_11  and  C_12
REMARK    6  A    between atoms: C_12  and  C_13
REMARK    7  A    between atoms: C_13  and  C_15
REMARK    8  A    between atoms: C_13  and  N_25
REMARK    9  A    between atoms: N_23  and  C_24
REMARK   10  A    between atoms: O_31  and  C_32
REMARK                            x       y       z     vdW  Elec       q    Type
REMARK                         _______ _______ _______ _____ _____    ______ ____
ROOT
ATOM      1  C   UNL     1       6.121   3.154  -2.752  0.00  0.00    +0.102 C 
ENDROOT
BRANCH   1   2
ATOM      2  C   UNL     1       6.559   4.582  -2.954  0.00  0.00    -0.029 A 
ATOM      3  C   UNL     1       6.029   5.329  -3.990  0.00  0.00    +0.007 A 
ATOM      4  C   UNL     1       6.427   6.636  -4.179  0.00  0.00    +0.024 A 
ATOM      5  C   UNL     1       7.368   7.212  -3.328  0.00  0.00    +0.033 A 
ATOM      6  C   UNL     1       7.891   6.455  -2.287  0.00  0.00    -0.025 A 
ATOM      7  C   UNL     1       7.487   5.149  -2.099  0.00  0.00    +0.010 A 
ATOM      8  C   UNL     1       8.871   7.323  -1.523  0.00  0.00    +0.056 C 
ATOM      9  C   UNL     1       8.516   8.748  -2.007  0.00  0.00    +0.109 C 
ATOM     10  N   UNL     1       7.921   8.499  -3.338  0.00  0.00    -0.332 N 
ATOM     11  C   UNL     1       6.902   9.508  -3.657  0.00  0.00    +0.129 C 
ENDBRANCH   1   2
BRANCH   1  12
ATOM     12  N   UNL     1       5.987   2.494  -4.057  0.00  0.00    -0.290 NA
ATOM     13  C   UNL     1       5.506   1.113  -3.902  0.00  0.00    +0.113 C 
ATOM     14  C   UNL     1       5.324   0.484  -5.286  0.00  0.00    +0.175 C 
ATOM     15  O   UNL     1       6.561   0.549  -6.000  0.00  0.00    -0.377 OA
ATOM     16  C   UNL     1       7.058   1.879  -6.170  0.00  0.00    +0.175 C 
ATOM     17  C   UNL     1       7.258   2.523  -4.795  0.00  0.00    +0.113 C 
ENDBRANCH   1  12
BRANCH   1  18
ATOM     18  C   UNL     1       4.774   3.131  -2.028  0.00  0.00    +0.129 C 
BRANCH  18  19
ATOM     19  N   UNL     1       4.930   3.700  -0.687  0.00  0.00    -0.188 NA
ATOM     20  H   UNL     1       5.909   3.666  -0.185  0.00  0.00    +0.148 HD
BRANCH  19  21
ATOM     21  S   UNL     1       3.596   4.170   0.174  0.00  0.00    +0.059 S 
ATOM     22  O   UNL     1       2.842   5.022  -0.678  0.00  0.00    -0.153 OA
ATOM     23  O   UNL     1       4.062   4.588   1.450  0.00  0.00    -0.153 OA
BRANCH  21  30
ATOM     24  C   UNL     1       4.475   1.804   1.838  0.00  0.00    +0.046 C 
ATOM     25  C   UNL     1       3.105   1.698   1.220  0.00  0.00    -0.021 A 
ATOM     26  C   UNL     1       2.338   0.568   1.432  0.00  0.00    +0.051 A 
ATOM     27  C   UNL     1       1.077   0.471   0.863  0.00  0.00    +0.120 A 
ATOM     28  C   UNL     1       0.586   1.511   0.088  0.00  0.00    +0.047 A 
ATOM     29  C   UNL     1       1.358   2.636  -0.125  0.00  0.00    +0.032 A 
ATOM     30  C   UNL     1       2.616   2.731   0.442  0.00  0.00    +0.108 A 
BRANCH  27  31
ATOM     31  O   UNL     1       0.321  -0.639   1.070  0.00  0.00    -0.495 OA
ATOM     32  C   UNL     1      -0.968  -0.671   0.454  0.00  0.00    +0.277 C 
ENDBRANCH  27  31
ENDBRANCH  21  30
ENDBRANCH  19  21
ENDBRANCH  18  19
ENDBRANCH   1  18
TORSDOF 7
