REMARK  Name = ZINC41125483
REMARK  6 active torsions:
REMARK  status: ('A' for Active; 'I' for Inactive)
REMARK    1  A    between atoms: C_4  and  C_7
REMARK    2  A    between atoms: C_7  and  C_8
REMARK    3  A    between atoms: C_8  and  C_10
REMARK    4  A    between atoms: C_8  and  N_21
REMARK    5  A    between atoms: N_21  and  S_22
REMARK    6  A    between atoms: S_22  and  C_25
REMARK                            x       y       z     vdW  Elec       q    Type
REMARK                         _______ _______ _______ _____ _____    ______ ____
ROOT
ATOM      1  C   UNL     1       4.274  -0.936   1.395  0.00  0.00    +0.111 C 
ENDROOT
BRANCH   1   2
ATOM      2  C   UNL     1       5.670  -1.501   1.454  0.00  0.00    -0.025 A 
ATOM      3  C   UNL     1       5.867  -2.863   1.325  0.00  0.00    +0.009 A 
ATOM      4  C   UNL     1       7.146  -3.390   1.378  0.00  0.00    +0.050 A 
ATOM      5  C   UNL     1       8.228  -2.546   1.561  0.00  0.00    +0.162 A 
ATOM      6  C   UNL     1       8.030  -1.179   1.691  0.00  0.00    +0.162 A 
ATOM      7  C   UNL     1       6.750  -0.655   1.632  0.00  0.00    +0.054 A 
ATOM      8  O   UNL     1       9.104  -0.356   1.870  0.00  0.00    -0.488 OA
ATOM      9  C   UNL     1       9.786  -0.482   3.119  0.00  0.00    +0.232 C 
ATOM     10  C   UNL     1      10.802  -1.612   3.067  0.00  0.00    +0.082 C 
ATOM     11  C   UNL     1      10.147  -2.971   2.883  0.00  0.00    +0.232 C 
ATOM     12  O   UNL     1       9.495  -3.052   1.614  0.00  0.00    -0.488 OA
ENDBRANCH   1   2
BRANCH   1  13
ATOM     13  N   UNL     1       3.359  -1.818   2.122  0.00  0.00    -0.182 NA
ATOM     14  H   UNL     1       2.969  -2.586   1.677  0.00  0.00    +0.149 HD
BRANCH  13  15
ATOM     15  S   UNL     1       2.988  -1.503   3.705  0.00  0.00    +0.059 S 
ATOM     16  O   UNL     1       2.068  -2.505   4.114  0.00  0.00    -0.153 OA
ATOM     17  O   UNL     1       4.222  -1.283   4.375  0.00  0.00    -0.153 OA
BRANCH  15  18
ATOM     18  C   UNL     1       2.116   0.027   3.742  0.00  0.00    +0.105 A 
ATOM     19  C   UNL     1       2.813   1.220   3.798  0.00  0.00    +0.030 A 
ATOM     20  C   UNL     1       2.129   2.420   3.826  0.00  0.00    +0.022 A 
ATOM     21  C   UNL     1       0.746   2.429   3.799  0.00  0.00    +0.041 A 
ATOM     22  C   UNL     1       0.049   1.236   3.743  0.00  0.00    +0.022 A 
ATOM     23  C   UNL     1       0.734   0.036   3.708  0.00  0.00    +0.030 A 
ATOM     24 CL   UNL     1      -0.114   3.937   3.835  0.00  0.00    -0.084 Cl
ENDBRANCH  15  18
ENDBRANCH  13  15
ENDBRANCH   1  13
BRANCH   1  25
ATOM     25  C   UNL     1       3.829  -0.830  -0.065  0.00  0.00    +0.060 C 
BRANCH  25  29
ATOM     26  C   UNL     1      -0.022   1.010  -0.251  0.00  0.00    +0.000 A 
ATOM     27  C   UNL     1       1.116   1.792  -0.190  0.00  0.00    +0.000 A 
ATOM     28  C   UNL     1       2.362   1.197  -0.130  0.00  0.00    +0.004 A 
ATOM     29  C   UNL     1       2.470  -0.181  -0.130  0.00  0.00    -0.046 A 
ATOM     30  C   UNL     1       1.332  -0.964  -0.191  0.00  0.00    +0.004 A 
ATOM     31  C   UNL     1       0.086  -0.369  -0.252  0.00  0.00    +0.000 A 
ENDBRANCH  25  29
ENDBRANCH   1  25
TORSDOF 6
