REMARK  Name = ZINC06420271
REMARK  8 active torsions:
REMARK  status: ('A' for Active; 'I' for Inactive)
REMARK    1  A    between atoms: C_1  and  O_2
REMARK    2  A    between atoms: O_2  and  C_3
REMARK    3  A    between atoms: C_5  and  C_12
REMARK    4  A    between atoms: C_7  and  O_10
REMARK    5  A    between atoms: C_8  and  O_9
REMARK    6  A    between atoms: O_10  and  C_11
REMARK    7  A    between atoms: C_19  and  S_30
REMARK    8  A    between atoms: S_30  and  C_31
REMARK                            x       y       z     vdW  Elec       q    Type
REMARK                         _______ _______ _______ _____ _____    ______ ____
ROOT
ATOM      1  C   UNL     1       2.548  -2.797  -0.038  0.00  0.00    +0.093 C 
ATOM      2  C   UNL     1       2.640  -3.612  -1.293  0.00  0.00    +0.069 A 
ATOM      3  C   UNL     1       2.934  -2.997  -2.516  0.00  0.00    +0.258 A 
ATOM      4  O   UNL     1       3.122  -1.792  -2.576  0.00  0.00    -0.267 OA
ATOM      5  N   UNL     1       3.005  -3.761  -3.626  0.00  0.00    -0.302 N 
ATOM      6  H   UNL     1       3.237  -3.299  -4.597  0.00  0.00    +0.171 HD
ATOM      7  C   UNL     1       2.791  -5.104  -3.547  0.00  0.00    +0.171 A 
ATOM      8  N   UNL     1       2.515  -5.688  -2.398  0.00  0.00    -0.208 NA
ATOM      9  C   UNL     1       2.435  -4.980  -1.266  0.00  0.00    +0.135 A 
ATOM     10  N   UNL     1       2.151  -5.606  -0.068  0.00  0.00    -0.302 N 
ATOM     11  C   UNL     1       2.447  -4.999   1.122  0.00  0.00    +0.017 C 
ATOM     12  C   UNL     1       2.645  -3.666   1.190  0.00  0.00    +0.024 C 
ATOM     13  C   UNL     1       2.946  -3.041   2.414  0.00  0.00    +0.162 C 
ATOM     14  O   UNL     1       3.137  -1.841   2.439  0.00  0.00    -0.292 OA
ATOM     15  C   UNL     1       3.038  -3.828   3.692  0.00  0.00    +0.080 C 
ATOM     16  C   UNL     1       2.130  -5.058   3.585  0.00  0.00    +0.014 C 
ATOM     17  C   UNL     1       2.551  -5.864   2.355  0.00  0.00    +0.051 C 
ATOM     18  H   UNL     1       1.681  -6.600  -0.065  0.00  0.00    +0.153 HD
ENDROOT
BRANCH   1  21
ATOM     19  C   UNL     1       0.002  -0.004   0.002  0.00  0.00    +0.165 A 
ATOM     20  C   UNL     1       1.212  -0.682  -0.013  0.00  0.00    +0.054 A 
ATOM     21  C   UNL     1       1.232  -2.064  -0.021  0.00  0.00    -0.028 A 
ATOM     22  C   UNL     1       0.047  -2.776  -0.013  0.00  0.00    +0.054 A 
ATOM     23  C   UNL     1      -1.167  -2.106   0.002  0.00  0.00    +0.165 A 
ATOM     24  C   UNL     1      -1.191  -0.716   0.015  0.00  0.00    +0.201 A 
BRANCH  19  26
ATOM     25  C   UNL     1       1.248   2.022   0.001  0.00  0.00    +0.277 C 
ATOM     26  O   UNL     1      -0.016   1.356   0.009  0.00  0.00    -0.491 OA
ENDBRANCH  19  26
BRANCH  24  27
ATOM     27  O   UNL     1      -2.380  -0.055   0.036  0.00  0.00    -0.501 OA
ATOM     28  H   UNL     1      -3.324  -0.620   0.047  0.00  0.00    +0.292 HD
ENDBRANCH  24  27
BRANCH  23  29
ATOM     29  O   UNL     1      -2.332  -2.807   0.010  0.00  0.00    -0.491 OA
ATOM     30  C   UNL     1      -2.231  -4.233   0.001  0.00  0.00    +0.277 C 
ENDBRANCH  23  29
ENDBRANCH   1  21
BRANCH   7  31
ATOM     31  S   UNL     1       2.885  -6.080  -5.011  0.00  0.00    -0.091 S 
ATOM     32  C   UNL     1       2.527  -7.715  -4.321  0.00  0.00    +0.093 C 
ENDBRANCH   7  31
TORSDOF 5
