REMARK  Name = ZINC38546879
REMARK  7 active torsions:
REMARK  status: ('A' for Active; 'I' for Inactive)
REMARK    1  A    between atoms: C_1  and  C_2
REMARK    2  A    between atoms: C_3  and  C_29
REMARK    3  A    between atoms: C_5  and  N_21
REMARK    4  A    between atoms: C_6  and  C_7
REMARK    5  A    between atoms: C_7  and  C_9
REMARK    6  A    between atoms: C_7  and  N_16
REMARK    7  A    between atoms: C_22  and  C_24
REMARK                            x       y       z     vdW  Elec       q    Type
REMARK                         _______ _______ _______ _____ _____    ______ ____
ROOT
ATOM      1  C   UNL     1      -0.459   1.479   0.109  0.00  0.00    +0.045 C 
ATOM      2  C   UNL     1      -0.215  -0.007   0.043  0.00  0.00    -0.037 A 
ATOM      3  C   UNL     1      -0.180  -0.645  -1.152  0.00  0.00    -0.008 A 
ATOM      4  S   UNL     1       0.131  -2.333  -0.664  0.00  0.00    -0.078 S 
ATOM      5  C   UNL     1       0.194  -2.079   1.102  0.00  0.00    +0.074 A 
ATOM      6  C   UNL     1      -0.019  -0.737   1.201  0.00  0.00    -0.025 A 
ATOM      7  C   UNL     1      -0.358  -0.075  -2.536  0.00  0.00    +0.052 C 
ENDROOT
BRANCH   5   8
ATOM      8  N   UNL     1       0.410  -3.013   2.118  0.00  0.00    -0.275 N 
ATOM      9  C   UNL     1       0.475  -4.327   1.823  0.00  0.00    +0.255 C 
ATOM     10  O   UNL     1       0.346  -4.699   0.671  0.00  0.00    -0.269 OA
ATOM     11  H   UNL     1       0.513  -2.716   3.036  0.00  0.00    +0.156 HD
BRANCH   9  12
ATOM     12  C   UNL     1       0.702  -5.306   2.889  0.00  0.00    +0.074 A 
ATOM     13  C   UNL     1       0.807  -6.686   2.800  0.00  0.00    +0.021 A 
ATOM     14  C   UNL     1       1.022  -7.346   3.987  0.00  0.00    +0.008 A 
ATOM     15  C   UNL     1       1.116  -6.628   5.133  0.00  0.00    +0.046 A 
ATOM     16  S   UNL     1       0.922  -5.034   4.637  0.00  0.00    -0.092 S 
ENDBRANCH   9  12
ENDBRANCH   5   8
BRANCH   6  17
ATOM     17  C   UNL     1      -0.045  -0.061   2.548  0.00  0.00    -0.001 C 
BRANCH  17  18
ATOM     18  C   UNL     1       1.352  -0.008   3.110  0.00  0.00    -0.021 A 
ATOM     19  C   UNL     1       1.787  -0.995   3.975  0.00  0.00    +0.005 A 
ATOM     20  C   UNL     1       3.069  -0.946   4.491  0.00  0.00    +0.000 A 
ATOM     21  C   UNL     1       3.917   0.089   4.143  0.00  0.00    +0.003 A 
ATOM     22  C   UNL     1       3.484   1.076   3.278  0.00  0.00    +0.038 A 
ATOM     23  C   UNL     1       2.202   1.025   2.756  0.00  0.00    +0.125 A 
ATOM     24  F   UNL     1       1.780   1.987   1.907  0.00  0.00    -0.205 F 
ENDBRANCH  17  18
BRANCH  17  25
ATOM     25  N   UNL     1      -0.911  -0.821   3.459  0.00  0.00    +0.387 N 
ATOM     26  C   UNL     1      -1.122  -0.060   4.718  0.00  0.00    -0.078 C 
ATOM     27  C   UNL     1      -2.429  -0.668   5.285  0.00  0.00    -0.020 C 
ATOM     28  C   UNL     1      -3.273  -0.921   4.015  0.00  0.00    -0.020 C 
ATOM     29  C   UNL     1      -2.254  -0.993   2.862  0.00  0.00    -0.078 C 
ATOM     30  H   UNL     1      -0.502  -1.720   3.660  0.00  0.00    -0.080 HD
ENDBRANCH  17  25
ENDBRANCH   6  17
TORSDOF 5
