REMARK  Name = ZINC43259429
REMARK  5 active torsions:
REMARK  status: ('A' for Active; 'I' for Inactive)
REMARK    1  A    between atoms: C_1  and  C_2
REMARK    2  A    between atoms: C_2  and  C_4
REMARK    3  A    between atoms: C_2  and  N_23
REMARK    4  A    between atoms: C_4  and  C_6
REMARK    5  A    between atoms: C_4  and  N_12
REMARK                            x       y       z     vdW  Elec       q    Type
REMARK                         _______ _______ _______ _____ _____    ______ ____
ROOT
ATOM      1  C   UNL     1       0.742  -0.511   1.241  0.00  0.00    +0.096 C 
ENDROOT
BRANCH   1   2
ATOM      2  N   UNL     1       2.147  -0.104   1.171  0.00  0.00    -0.314 N 
ATOM      3  C   UNL     1       2.977  -0.438   0.004  0.00  0.00    +0.201 C 
ATOM      4  C   UNL     1       4.338  -0.879   0.479  0.00  0.00    +0.235 C 
ATOM      5  O   UNL     1       4.978  -1.667  -0.186  0.00  0.00    -0.274 OA
ATOM      6  N   UNL     1       4.853  -0.408   1.631  0.00  0.00    -0.283 N 
ATOM      7  C   UNL     1       4.114   0.463   2.440  0.00  0.00    +0.055 A 
ATOM      8  C   UNL     1       2.743   0.622   2.212  0.00  0.00    +0.052 A 
ATOM      9  C   UNL     1       1.998   1.478   3.003  0.00  0.00    +0.025 A 
ATOM     10  C   UNL     1       2.615   2.185   4.021  0.00  0.00    +0.002 A 
ATOM     11  C   UNL     1       3.971   2.037   4.246  0.00  0.00    +0.002 A 
ATOM     12  C   UNL     1       4.725   1.171   3.462  0.00  0.00    +0.025 A 
ATOM     13  H   UNL     1       5.744  -0.676   1.903  0.00  0.00    +0.155 HD
ENDBRANCH   1   2
BRANCH   1  14
ATOM     14  C   UNL     1       0.657  -2.014   1.312  0.00  0.00    +0.010 A 
ATOM     15  C   UNL     1      -0.174  -2.788   2.051  0.00  0.00    +0.014 A 
ATOM     16  C   UNL     1      -0.072  -4.163   1.956  0.00  0.00    +0.023 A 
ATOM     17  C   UNL     1       0.858  -4.697   1.126  0.00  0.00    +0.055 A 
ATOM     18  S   UNL     1       1.622  -3.237   0.439  0.00  0.00    -0.085 S 
ATOM     19 BR   UNL     1       1.242  -6.516   0.779  0.00  0.00    -0.043 Br
ENDBRANCH   1  14
BRANCH   1  21
ATOM     20  C   UNL     1      -1.482  -0.354   0.114  0.00  0.00    -0.012 C 
ATOM     21  C   UNL     1       0.005  -0.018  -0.006  0.00  0.00    -0.053 C 
BRANCH  21  22
ATOM     22  N   UNL     1       0.170   1.437  -0.128  0.00  0.00    +0.381 N 
ATOM     23  H   UNL     1      -0.137   1.883   0.724  0.00  0.00    -0.090 HD
ATOM     24  H   UNL     1       1.143   1.653  -0.289  0.00  0.00    -0.090 HD
ATOM     25  H   UNL     1      -0.382   1.774  -0.902  0.00  0.00    -0.090 HD
ENDBRANCH  21  22
ENDBRANCH   1  21
TORSDOF 4
