REMARK  Name = ZINC35753932
REMARK  8 active torsions:
REMARK  status: ('A' for Active; 'I' for Inactive)
REMARK    1  A    between atoms: C_4  and  C_7
REMARK    2  A    between atoms: N_9  and  C_10
REMARK    3  A    between atoms: C_14  and  C_16
REMARK    4  A    between atoms: C_18  and  C_32
REMARK    5  A    between atoms: N_20  and  C_24
REMARK    6  A    between atoms: C_24  and  C_25
REMARK    7  A    between atoms: N_34  and  C_35
REMARK    8  A    between atoms: C_35  and  C_36
REMARK                            x       y       z     vdW  Elec       q    Type
REMARK                         _______ _______ _______ _____ _____    ______ ____
ROOT
ATOM      1  C   UNL     1       5.980  -6.369  -0.492  0.00  0.00    +0.238 C 
ATOM      2  C   UNL     1       6.247  -7.003   0.894  0.00  0.00    +0.210 C 
ATOM      3  N   UNL     1       7.083  -8.169   0.548  0.00  0.00    -0.248 N 
ATOM      4  C   UNL     1       7.515  -8.004  -0.716  0.00  0.00    +0.405 C 
ATOM      5  O   UNL     1       8.206  -8.814  -1.302  0.00  0.00    -0.226 OA
ATOM      6  O   UNL     1       7.099  -6.848  -1.263  0.00  0.00    -0.440 OA
ENDROOT
BRANCH   1  11
ATOM      7  C   UNL     1       4.809  -2.785  -0.231  0.00  0.00    +0.034 A 
ATOM      8  C   UNL     1       6.017  -2.100  -0.252  0.00  0.00    +0.023 A 
ATOM      9  C   UNL     1       7.204  -2.799  -0.350  0.00  0.00    +0.002 A 
ATOM     10  C   UNL     1       7.191  -4.179  -0.428  0.00  0.00    +0.007 A 
ATOM     11  C   UNL     1       5.990  -4.864  -0.407  0.00  0.00    -0.003 A 
ATOM     12  C   UNL     1       4.799  -4.171  -0.302  0.00  0.00    +0.030 A 
BRANCH   7  15
ATOM     13  C   UNL     1       3.474  -0.883  -0.737  0.00  0.00    +0.248 C 
ATOM     14  O   UNL     1       4.423  -0.383  -1.308  0.00  0.00    -0.270 OA
ATOM     15  N   UNL     1       3.605  -2.080  -0.131  0.00  0.00    -0.281 N 
ATOM     16  H   UNL     1       2.865  -2.452   0.373  0.00  0.00    +0.155 HD
BRANCH  13  20
ATOM     17  C   UNL     1      -0.260   1.141  -0.651  0.00  0.00    +0.000 A 
ATOM     18  C   UNL     1       0.819   1.713  -1.301  0.00  0.00    +0.001 A 
ATOM     19  C   UNL     1       2.034   1.061  -1.333  0.00  0.00    +0.013 A 
ATOM     20  C   UNL     1       2.174  -0.179  -0.706  0.00  0.00    +0.037 A 
ATOM     21  C   UNL     1       1.082  -0.750  -0.052  0.00  0.00    +0.013 A 
ATOM     22  C   UNL     1      -0.128  -0.088  -0.028  0.00  0.00    +0.001 A 
ENDBRANCH  13  20
ENDBRANCH   7  15
ENDBRANCH   1  11
BRANCH   2  23
ATOM     23  C   UNL     1       4.958  -7.435   1.544  0.00  0.00    +0.238 C 
ATOM     24  O   UNL     1       4.652  -8.608   1.563  0.00  0.00    -0.274 OA
ATOM     25  N   UNL     1       4.145  -6.517   2.104  0.00  0.00    -0.307 N 
ATOM     26  H   UNL     1       4.389  -5.579   2.088  0.00  0.00    +0.149 HD
BRANCH  25  27
ATOM     27  C   UNL     1       2.892  -6.938   2.735  0.00  0.00    +0.178 C 
BRANCH  27  28
ATOM     28  C   UNL     1       2.174  -5.729   3.280  0.00  0.00    +0.122 A 
ATOM     29  C   UNL     1       1.275  -4.982   2.614  0.00  0.00    +0.046 A 
ATOM     30  C   UNL     1       0.858  -3.959   3.497  0.00  0.00    +0.041 A 
ATOM     31  C   UNL     1       1.527  -4.143   4.649  0.00  0.00    +0.195 A 
ATOM     32  O   UNL     1       2.318  -5.220   4.514  0.00  0.00    -0.466 OA
ENDBRANCH  27  28
ENDBRANCH  25  27
ENDBRANCH   2  23
BRANCH   3  33
ATOM     33  C   UNL     1       7.388  -9.303   1.424  0.00  0.00    +0.147 C 
BRANCH  33  34
ATOM     34  C   UNL     1       8.707  -9.064   2.114  0.00  0.00    -0.030 A 
ATOM     35  C   UNL     1       9.889  -9.402   1.480  0.00  0.00    +0.008 A 
ATOM     36  C   UNL     1      11.098  -9.184   2.112  0.00  0.00    +0.038 A 
ATOM     37  C   UNL     1      11.127  -8.626   3.379  0.00  0.00    +0.123 A 
ATOM     38  C   UNL     1       9.943  -8.288   4.012  0.00  0.00    +0.038 A 
ATOM     39  C   UNL     1       8.734  -8.503   3.376  0.00  0.00    +0.008 A 
ATOM     40  F   UNL     1      12.309  -8.412   3.997  0.00  0.00    -0.205 F 
ENDBRANCH  33  34
ENDBRANCH   3  33
TORSDOF 8
