REMARK  Name = ZINC02914684
REMARK  2 active torsions:
REMARK  status: ('A' for Active; 'I' for Inactive)
REMARK    1  A    between atoms: C_6  and  C_7
REMARK    2  A    between atoms: C_10  and  C_18
REMARK                            x       y       z     vdW  Elec       q    Type
REMARK                         _______ _______ _______ _____ _____    ______ ____
ROOT
ATOM      1  C   UNL     1      -1.293  -0.775   0.011  0.00  0.00    +0.106 C 
ATOM      2  C   UNL     1      -1.588  -1.268   1.432  0.00  0.00    +0.059 C 
ATOM      3  C   UNL     1      -0.422  -2.127   1.936  0.00  0.00    +0.144 C 
ATOM      4  N   UNL     1      -0.089  -3.115   0.913  0.00  0.00    -0.206 N 
ATOM      5  C   UNL     1      -0.449  -3.020  -0.392  0.00  0.00    +0.236 A 
ATOM      6  N   UNL     1       0.015  -4.074  -1.000  0.00  0.00    -0.092 NA
ATOM      7  N   UNL     1       0.646  -4.829  -0.167  0.00  0.00    -0.021 NA
ATOM      8  N   UNL     1       0.625  -4.309   1.017  0.00  0.00    -0.042 NA
ATOM      9  N   UNL     1      -1.180  -1.943  -0.885  0.00  0.00    -0.305 N 
ATOM     10  H   UNL     1      -1.592  -1.958  -1.762  0.00  0.00    +0.150 HD
ENDROOT
BRANCH   1  16
ATOM     11  C   UNL     1      -0.017   1.378   0.010  0.00  0.00    +0.007 A 
ATOM     12  C   UNL     1       1.171   2.086   0.002  0.00  0.00    +0.020 A 
ATOM     13  C   UNL     1       2.378   1.410  -0.013  0.00  0.00    +0.041 A 
ATOM     14  C   UNL     1       2.396   0.027  -0.021  0.00  0.00    +0.020 A 
ATOM     15  C   UNL     1       1.208  -0.679  -0.013  0.00  0.00    +0.007 A 
ATOM     16  C   UNL     1       0.002  -0.004   0.002  0.00  0.00    -0.027 A 
ATOM     17 CL   UNL     1       3.870   2.298  -0.023  0.00  0.00    -0.084 Cl
ENDBRANCH   1  16
BRANCH   3  18
ATOM     18  C   UNL     1      -0.824  -2.828   3.208  0.00  0.00    -0.023 A 
ATOM     19  C   UNL     1      -1.896  -3.700   3.207  0.00  0.00    +0.007 A 
ATOM     20  C   UNL     1      -2.265  -4.344   4.373  0.00  0.00    +0.015 A 
ATOM     21  C   UNL     1      -1.561  -4.116   5.541  0.00  0.00    +0.018 A 
ATOM     22  C   UNL     1      -0.487  -3.243   5.542  0.00  0.00    +0.015 A 
ATOM     23  C   UNL     1      -0.116  -2.604   4.374  0.00  0.00    +0.007 A 
ATOM     24 BR   UNL     1      -2.065  -4.996   7.137  0.00  0.00    -0.050 Br
ENDBRANCH   3  18
TORSDOF 2
