REMARK  Name = ZINC00931004
REMARK  9 active torsions:
REMARK  status: ('A' for Active; 'I' for Inactive)
REMARK    1  A    between atoms: C_1  and  O_2
REMARK    2  A    between atoms: O_2  and  C_3
REMARK    3  A    between atoms: C_3  and  C_5
REMARK    4  A    between atoms: C_8  and  N_11
REMARK    5  A    between atoms: N_11  and  C_12
REMARK    6  A    between atoms: C_12  and  C_14
REMARK    7  A    between atoms: C_12  and  C_19
REMARK    8  A    between atoms: N_21  and  C_22
REMARK    9  A    between atoms: C_28  and  C_30
REMARK                            x       y       z     vdW  Elec       q    Type
REMARK                         _______ _______ _______ _____ _____    ______ ____
ROOT
ATOM      1  N   UNL     1      -3.977   0.329  -0.490  0.00  0.00    -0.252 N 
ATOM      2  C   UNL     1      -5.266   0.721  -0.522  0.00  0.00    +0.265 C 
ATOM      3  O   UNL     1      -5.543   1.875  -0.772  0.00  0.00    -0.271 OA
ENDROOT
BRANCH   2   4
ATOM      4  C   UNL     1      -6.363  -0.275  -0.245  0.00  0.00    +0.296 C 
ATOM      5  C   UNL     1      -7.704   0.282  -0.742  0.00  0.00    +0.283 C 
ATOM      6  O   UNL     1      -8.720  -0.692  -0.477  0.00  0.00    -0.484 OA
ATOM      7  C   UNL     1      -8.434  -1.980  -0.812  0.00  0.00    +0.162 A 
ATOM      8  C   UNL     1      -9.467  -2.899  -0.922  0.00  0.00    +0.049 A 
ATOM      9  C   UNL     1      -9.193  -4.211  -1.259  0.00  0.00    +0.004 A 
ATOM     10  C   UNL     1      -7.890  -4.611  -1.487  0.00  0.00    +0.004 A 
ATOM     11  C   UNL     1      -6.856  -3.700  -1.379  0.00  0.00    +0.049 A 
ATOM     12  C   UNL     1      -7.124  -2.381  -1.043  0.00  0.00    +0.163 A 
ATOM     13  O   UNL     1      -6.096  -1.494  -0.945  0.00  0.00    -0.472 OA
ENDBRANCH   2   4
BRANCH   1  17
ATOM     14  C   UNL     1      -2.955  -3.337   1.203  0.00  0.00    +0.059 A 
ATOM     15  C   UNL     1      -3.411  -3.278  -0.117  0.00  0.00    +0.017 A 
ATOM     16  C   UNL     1      -3.748  -2.065  -0.674  0.00  0.00    +0.024 A 
ATOM     17  C   UNL     1      -3.635  -0.898   0.076  0.00  0.00    +0.038 A 
ATOM     18  C   UNL     1      -3.176  -0.953   1.389  0.00  0.00    +0.024 A 
ATOM     19  C   UNL     1      -2.843  -2.163   1.954  0.00  0.00    +0.017 A 
BRANCH  14  20
ATOM     20  C   UNL     1      -2.594  -4.635   1.803  0.00  0.00    +0.339 C 
ATOM     21  O   UNL     1      -2.692  -5.655   1.149  0.00  0.00    -0.245 OA
BRANCH  20  23
ATOM     22  C   UNL     1      -1.818  -6.001   3.600  0.00  0.00    +0.280 C 
ATOM     23  O   UNL     1      -2.155  -4.690   3.075  0.00  0.00    -0.464 OA
ENDBRANCH  20  23
ENDBRANCH  14  20
ENDBRANCH   1  17
BRANCH   1  24
ATOM     24  C   UNL     1      -2.935   1.192  -1.052  0.00  0.00    +0.204 C 
BRANCH  24  25
ATOM     25  C   UNL     1      -3.224   1.445  -2.509  0.00  0.00    +0.019 A 
ATOM     26  C   UNL     1      -2.970   2.552  -3.250  0.00  0.00    +0.013 A 
ATOM     27  C   UNL     1      -3.327   2.560  -4.586  0.00  0.00    +0.008 A 
ATOM     28  C   UNL     1      -3.919   1.462  -5.115  0.00  0.00    +0.045 A 
ATOM     29  S   UNL     1      -3.983   0.363  -3.710  0.00  0.00    -0.099 S 
ENDBRANCH  24  25
BRANCH  24  30
ATOM     30  C   UNL     1      -1.595   0.515  -0.916  0.00  0.00    +0.239 C 
ATOM     31  O   UNL     1      -1.518  -0.580  -0.401  0.00  0.00    -0.273 OA
ATOM     32  N   UNL     1      -0.482   1.127  -1.368  0.00  0.00    -0.311 N 
ATOM     33  H   UNL     1      -0.544   2.003  -1.780  0.00  0.00    +0.149 HD
BRANCH  32  34
ATOM     34  C   UNL     1       0.821   0.473  -1.230  0.00  0.00    +0.073 C 
ATOM     35  C   UNL     1       1.394   0.763   0.158  0.00  0.00    +0.022 C 
ATOM     36  C   UNL     1       2.755   0.080   0.302  0.00  0.00    +0.002 C 
ATOM     37  C   UNL     1       3.710   0.615  -0.766  0.00  0.00    +0.000 C 
ATOM     38  C   UNL     1       3.137   0.325  -2.155  0.00  0.00    +0.002 C 
ATOM     39  C   UNL     1       1.776   1.008  -2.299  0.00  0.00    +0.022 C 
ENDBRANCH  32  34
ENDBRANCH  24  30
ENDBRANCH   1  24
TORSDOF 8
