REMARK  Name = ZINC44268254
REMARK  4 active torsions:
REMARK  status: ('A' for Active; 'I' for Inactive)
REMARK    1  A    between atoms: C_1  and  C_2
REMARK    2  A    between atoms: N_14  and  C_15
REMARK    3  A    between atoms: C_20  and  C_21
REMARK    4  A    between atoms: C_21  and  N_22
REMARK                            x       y       z     vdW  Elec       q    Type
REMARK                         _______ _______ _______ _____ _____    ______ ____
ROOT
ATOM      1  C   UNL     1      -0.335   1.517   0.313  0.00  0.00    +0.033 C 
ATOM      2  C   UNL     1      -0.180   0.002   0.169  0.00  0.00    +0.105 C 
ATOM      3  C   UNL     1      -1.535  -0.677   0.357  0.00  0.00    -0.017 A 
ATOM      4  C   UNL     1      -2.699  -0.248  -0.279  0.00  0.00    +0.013 A 
ATOM      5  C   UNL     1      -3.865  -0.901  -0.068  0.00  0.00    +0.046 A 
ATOM      6  S   UNL     1      -3.367  -2.186   1.068  0.00  0.00    -0.101 S 
ATOM      7  C   UNL     1      -1.650  -1.756   1.178  0.00  0.00    -0.004 A 
ATOM      8  C   UNL     1      -0.577  -2.415   1.983  0.00  0.00    +0.062 C 
ATOM      9  C   UNL     1       0.789  -1.955   1.454  0.00  0.00    +0.115 C 
ATOM     10  N   UNL     1       0.727  -0.506   1.207  0.00  0.00    -0.278 N 
ATOM     11  C   UNL     1       1.489   0.343   1.924  0.00  0.00    +0.307 C 
ATOM     12  O   UNL     1       1.361   1.544   1.782  0.00  0.00    -0.252 OA
ATOM     13  N   UNL     1       2.393  -0.139   2.800  0.00  0.00    -0.269 N 
ATOM     14  H   UNL     1       2.526  -1.096   2.883  0.00  0.00    +0.156 HD
ENDROOT
BRANCH  13  15
ATOM     15  C   UNL     1       3.142   0.742   3.589  0.00  0.00    +0.040 A 
ATOM     16  C   UNL     1       3.137   2.103   3.309  0.00  0.00    +0.024 A 
ATOM     17  C   UNL     1       3.876   2.969   4.090  0.00  0.00    +0.002 A 
ATOM     18  C   UNL     1       4.621   2.484   5.149  0.00  0.00    +0.000 A 
ATOM     19  C   UNL     1       4.628   1.130   5.430  0.00  0.00    +0.007 A 
ATOM     20  C   UNL     1       3.886   0.259   4.657  0.00  0.00    -0.005 A 
BRANCH  20  21
ATOM     21  C   UNL     1       3.890  -1.216   4.967  0.00  0.00    +0.180 C 
BRANCH  21  22
ATOM     22  N   UNL     1       4.898  -1.886   4.143  0.00  0.00    -0.267 N 
ATOM     23  C   UNL     1       5.902  -2.666   4.595  0.00  0.00    +0.108 A 
ATOM     24  C   UNL     1       6.609  -3.092   3.523  0.00  0.00    +0.041 A 
ATOM     25  C   UNL     1       6.017  -2.553   2.376  0.00  0.00    +0.134 A 
ATOM     26  N   UNL     1       4.987  -1.835   2.746  0.00  0.00    -0.179 NA
ENDBRANCH  21  22
ENDBRANCH  20  21
ENDBRANCH  13  15
TORSDOF 3
