REMARK  Name = ZINC20442817
REMARK  6 active torsions:
REMARK  status: ('A' for Active; 'I' for Inactive)
REMARK    1  A    between atoms: C_1  and  C_2
REMARK    2  A    between atoms: C_2  and  C_4
REMARK    3  A    between atoms: C_2  and  N_11
REMARK    4  A    between atoms: C_9  and  O_10
REMARK    5  A    between atoms: N_11  and  C_12
REMARK    6  A    between atoms: C_13  and  C_19
REMARK                            x       y       z     vdW  Elec       q    Type
REMARK                         _______ _______ _______ _____ _____    ______ ____
ROOT
ATOM      1  N   UNL     1      -2.466   1.683   0.009  0.00  0.00    -0.336 N 
ATOM      2  H   UNL     1      -3.260   1.640  -0.751  0.00  0.00    +0.147 HD
ENDROOT
BRANCH   1   3
ATOM      3  C   UNL     1      -1.366   2.542   0.084  0.00  0.00    +0.058 A 
ATOM      4  C   UNL     1      -1.449   3.718   0.818  0.00  0.00    +0.077 A 
ATOM      5  C   UNL     1      -0.362   4.566   0.885  0.00  0.00    +0.014 A 
ATOM      6  C   UNL     1       0.811   4.244   0.228  0.00  0.00    +0.002 A 
ATOM      7  C   UNL     1       0.900   3.071  -0.499  0.00  0.00    +0.022 A 
ATOM      8  C   UNL     1      -0.184   2.217  -0.571  0.00  0.00    +0.062 A 
ATOM      9 CL   UNL     1      -0.072   0.746  -1.485  0.00  0.00    -0.082 Cl
BRANCH   4  10
ATOM     10  C   UNL     1      -2.727   4.071   1.535  0.00  0.00    +0.419 C 
ATOM     11  F   UNL     1      -2.569   5.295   2.194  0.00  0.00    -0.166 F 
ATOM     12  F   UNL     1      -3.770   4.171   0.608  0.00  0.00    -0.166 F 
ATOM     13  F   UNL     1      -3.028   3.074   2.469  0.00  0.00    -0.166 F 
ENDBRANCH   4  10
ENDBRANCH   1   3
BRANCH   1  15
ATOM     14  C   UNL     1      -1.681  -0.504   0.780  0.00  0.00    +0.033 C 
ATOM     15  C   UNL     1      -2.482   0.748   1.142  0.00  0.00    +0.101 C 
BRANCH  15  16
ATOM     16  C   UNL     1      -3.905   0.361   1.454  0.00  0.00    +0.014 A 
ATOM     17  C   UNL     1      -4.872   0.429   0.470  0.00  0.00    +0.009 A 
ATOM     18  C   UNL     1      -6.177   0.075   0.756  0.00  0.00    +0.001 A 
ATOM     19  C   UNL     1      -6.519  -0.348   2.027  0.00  0.00    +0.004 A 
ATOM     20  C   UNL     1      -5.556  -0.418   3.015  0.00  0.00    +0.046 A 
ATOM     21  C   UNL     1      -4.244  -0.068   2.729  0.00  0.00    +0.122 A 
BRANCH  21  22
ATOM     22  O   UNL     1      -3.293  -0.140   3.698  0.00  0.00    -0.506 OA
ATOM     23  H   UNL     1      -3.563  -0.481   4.709  0.00  0.00    +0.292 HD
ENDBRANCH  21  22
ENDBRANCH  15  16
ENDBRANCH   1  15
TORSDOF 5
