REMARK  Name = ZINC39710322
REMARK  12 active torsions:
REMARK  status: ('A' for Active; 'I' for Inactive)
REMARK    1  A    between atoms: C_1  and  C_2
REMARK    2  A    between atoms: C_9  and  C_14
REMARK    3  A    between atoms: C_14  and  C_16
REMARK    4  A    between atoms: C_14  and  N_25
REMARK    5  A    between atoms: N_20  and  C_21
REMARK    6  A    between atoms: C_21  and  C_22
REMARK    7  A    between atoms: C_22  and  O_23
REMARK    8  A    between atoms: O_23  and  C_24
REMARK    9  A    between atoms: N_25  and  C_26
REMARK   10  A    between atoms: N_25  and  C_34
REMARK   11  A    between atoms: C_26  and  C_27
REMARK   12  A    between atoms: C_34  and  C_35
REMARK                            x       y       z     vdW  Elec       q    Type
REMARK                         _______ _______ _______ _____ _____    ______ ____
ROOT
ATOM      1  C   UNL     1      -1.074  -4.840   3.059  0.00  0.00    +0.019 C 
ENDROOT
BRANCH   1  10
ATOM      2  C   UNL     1       5.503  -4.237   5.776  0.00  0.00    +0.044 C 
ATOM      3  C   UNL     1       4.297  -3.712   5.041  0.00  0.00    -0.050 A 
ATOM      4  C   UNL     1       4.084  -2.335   4.974  0.00  0.00    +0.005 A 
ATOM      5  C   UNL     1       3.020  -1.788   4.330  0.00  0.00    +0.024 A 
ATOM      6  C   UNL     1       2.072  -2.609   3.691  0.00  0.00    +0.040 A 
ATOM      7  N   UNL     1       1.033  -2.061   3.062  0.00  0.00    -0.285 N 
ATOM      8  C   UNL     1       0.107  -2.773   2.442  0.00  0.00    +0.223 C 
ATOM      9  O   UNL     1      -0.820  -2.217   1.884  0.00  0.00    -0.275 OA
ATOM     10  C   UNL     1       0.204  -4.282   2.430  0.00  0.00    +0.092 C 
ATOM     11  C   UNL     1       1.385  -4.910   3.145  0.00  0.00    -0.006 C 
ATOM     12  C   UNL     1       2.272  -4.067   3.746  0.00  0.00    -0.007 A 
ATOM     13  C   UNL     1       3.443  -4.589   4.452  0.00  0.00    +0.012 A 
ATOM     14  H   UNL     1       0.952  -1.095   3.058  0.00  0.00    +0.155 HD
ENDBRANCH   1  10
BRANCH   1  15
ATOM     15  C   UNL     1      -1.133  -4.447   4.512  0.00  0.00    +0.139 A 
ATOM     16  N   UNL     1      -0.427  -4.960   5.490  0.00  0.00    -0.115 NA
ATOM     17  N   UNL     1      -0.763  -4.360   6.580  0.00  0.00    -0.023 NA
ATOM     18  N   UNL     1      -1.664  -3.478   6.322  0.00  0.00    -0.044 NA
ATOM     19  N   UNL     1      -1.915  -3.497   5.057  0.00  0.00    -0.229 N 
BRANCH  19  20
ATOM     20  C   UNL     1      -2.875  -2.648   4.347  0.00  0.00    +0.175 C 
BRANCH  20  21
ATOM     21  C   UNL     1      -4.243  -3.332   4.324  0.00  0.00    +0.183 C 
BRANCH  21  22
ATOM     22  O   UNL     1      -5.179  -2.503   3.632  0.00  0.00    -0.381 OA
ATOM     23  C   UNL     1      -6.495  -3.054   3.553  0.00  0.00    +0.194 C 
ENDBRANCH  21  22
ENDBRANCH  20  21
ENDBRANCH  19  20
ENDBRANCH   1  15
BRANCH   1  24
ATOM     24  N   UNL     1      -1.076  -6.305   2.947  0.00  0.00    +0.394 N 
ATOM     25  H   UNL     1      -0.235  -6.675   3.365  0.00  0.00    -0.080 HD
BRANCH  24  26
ATOM     26  C   UNL     1      -1.129  -6.688   1.530  0.00  0.00    -0.041 C 
BRANCH  26  27
ATOM     27  C   UNL     1      -2.326  -6.045   0.880  0.00  0.00    -0.064 A 
ATOM     28  C   UNL     1      -3.559  -6.669   0.932  0.00  0.00    +0.003 A 
ATOM     29  C   UNL     1      -4.658  -6.079   0.336  0.00  0.00    +0.020 A 
ATOM     30  C   UNL     1      -4.524  -4.865  -0.313  0.00  0.00    +0.041 A 
ATOM     31  C   UNL     1      -3.290  -4.241  -0.365  0.00  0.00    +0.020 A 
ATOM     32  C   UNL     1      -2.193  -4.829   0.236  0.00  0.00    +0.003 A 
ATOM     33 CL   UNL     1      -5.904  -4.124  -1.063  0.00  0.00    -0.084 Cl
ENDBRANCH  26  27
ENDBRANCH  24  26
BRANCH  24  34
ATOM     34  C   UNL     1      -2.249  -6.848   3.645  0.00  0.00    -0.002 C 
BRANCH  34  35
ATOM     35  C   UNL     1      -2.178  -8.353   3.650  0.00  0.00    +0.089 A 
ATOM     36  C   UNL     1      -1.671  -9.114   4.637  0.00  0.00    +0.042 A 
ATOM     37  C   UNL     1      -1.806 -10.460   4.228  0.00  0.00    +0.041 A 
ATOM     38  C   UNL     1      -2.388 -10.442   3.015  0.00  0.00    +0.195 A 
ATOM     39  O   UNL     1      -2.616  -9.164   2.673  0.00  0.00    -0.470 OA
ENDBRANCH  34  35
ENDBRANCH  24  34
ENDBRANCH   1  24
TORSDOF 10
