REMARK  Name = ZINC09731527
REMARK  5 active torsions:
REMARK  status: ('A' for Active; 'I' for Inactive)
REMARK    1  A    between atoms: C_4  and  C_7
REMARK    2  A    between atoms: C_8  and  C_29
REMARK    3  A    between atoms: C_10  and  S_13
REMARK    4  A    between atoms: S_13  and  C_14
REMARK    5  A    between atoms: C_14  and  C_15
REMARK                            x       y       z     vdW  Elec       q    Type
REMARK                         _______ _______ _______ _____ _____    ______ ____
ROOT
ATOM      1  C   UNL     1       0.002  -0.004   0.002  0.00  0.00    +0.075 A 
ATOM      2  C   UNL     1      -0.761  -0.847   0.786  0.00  0.00    +0.098 A 
ATOM      3  N   UNL     1      -0.434  -2.114   0.464  0.00  0.00    -0.221 NA
ATOM      4  C   UNL     1       0.484  -2.107  -0.473  0.00  0.00    +0.168 A 
ATOM      5  N   UNL     1       0.784  -0.818  -0.797  0.00  0.00    -0.332 N 
ATOM      6  H   UNL     1       1.446  -0.517  -1.484  0.00  0.00    +0.168 HD
ENDROOT
BRANCH   1  10
ATOM      7  C   UNL     1      -0.056   4.241   0.026  0.00  0.00    +0.000 A 
ATOM      8  C   UNL     1       1.154   3.568   0.010  0.00  0.00    +0.001 A 
ATOM      9  C   UNL     1       1.181   2.190   0.003  0.00  0.00    +0.010 A 
ATOM     10  C   UNL     1      -0.018   1.471   0.010  0.00  0.00    +0.000 A 
ATOM     11  C   UNL     1      -1.235   2.157   0.020  0.00  0.00    +0.010 A 
ATOM     12  C   UNL     1      -1.246   3.536   0.034  0.00  0.00    +0.001 A 
ENDBRANCH   1  10
BRANCH   2  13
ATOM     13  C   UNL     1      -1.758  -0.432   1.801  0.00  0.00    +0.002 A 
ATOM     14  C   UNL     1      -1.542   0.713   2.567  0.00  0.00    +0.010 A 
ATOM     15  C   UNL     1      -2.476   1.096   3.507  0.00  0.00    +0.001 A 
ATOM     16  C   UNL     1      -3.620   0.342   3.697  0.00  0.00    +0.000 A 
ATOM     17  C   UNL     1      -3.838  -0.798   2.943  0.00  0.00    +0.001 A 
ATOM     18  C   UNL     1      -2.913  -1.189   1.996  0.00  0.00    +0.010 A 
ENDBRANCH   2  13
BRANCH   4  19
ATOM     19  S   UNL     1       1.210  -3.537  -1.202  0.00  0.00    -0.079 S 
BRANCH  19  20
ATOM     20  C   UNL     1       0.331  -4.833  -0.294  0.00  0.00    +0.173 C 
BRANCH  20  21
ATOM     21  C   UNL     1       0.802  -6.185  -0.764  0.00  0.00    +0.226 C 
ATOM     22  O   UNL     1       1.650  -6.264  -1.628  0.00  0.00    -0.275 OA
ATOM     23  N   UNL     1       0.283  -7.305  -0.225  0.00  0.00    -0.298 N 
ATOM     24  C   UNL     1      -0.741  -7.231   0.829  0.00  0.00    +0.127 C 
ATOM     25  C   UNL     1      -1.923  -8.123   0.415  0.00  0.00    +0.127 C 
ATOM     26  N   UNL     1      -1.430  -9.475   0.123  0.00  0.00    -0.297 N 
ATOM     27  C   UNL     1      -0.506  -9.470  -1.019  0.00  0.00    +0.127 C 
ATOM     28  C   UNL     1       0.729  -8.634  -0.669  0.00  0.00    +0.127 C 
ATOM     29  C   UNL     1      -2.481 -10.350  -0.093  0.00  0.00    +0.218 A 
ATOM     30  N   UNL     1      -2.532 -11.031  -1.228  0.00  0.00    -0.223 NA
ATOM     31  C   UNL     1      -3.520 -11.880  -1.463  0.00  0.00    +0.116 A 
ATOM     32  C   UNL     1      -4.513 -12.042  -0.510  0.00  0.00    +0.039 A 
ATOM     33  C   UNL     1      -4.431 -11.310   0.664  0.00  0.00    +0.116 A 
ATOM     34  N   UNL     1      -3.414 -10.482   0.838  0.00  0.00    -0.223 NA
ENDBRANCH  20  21
ENDBRANCH  19  20
ENDBRANCH   4  19
TORSDOF 5
