REMARK  Name = ZINC43424165
REMARK  5 active torsions:
REMARK  status: ('A' for Active; 'I' for Inactive)
REMARK    1  A    between atoms: C_1  and  C_2
REMARK    2  A    between atoms: C_4  and  N_23
REMARK    3  A    between atoms: C_5  and  S_9
REMARK    4  A    between atoms: C_7  and  C_8
REMARK    5  A    between atoms: S_9  and  N_12
REMARK                            x       y       z     vdW  Elec       q    Type
REMARK                         _______ _______ _______ _____ _____    ______ ____
ROOT
ATOM      1  S   UNL     1      -0.122  -4.631   0.243  0.00  0.00    +0.063 S 
ATOM      2  O   UNL     1       0.935  -5.108  -0.579  0.00  0.00    -0.153 OA
ATOM      3  O   UNL     1      -0.252  -5.003   1.608  0.00  0.00    -0.153 OA
ENDROOT
BRANCH   1   4
ATOM      4  N   UNL     1      -1.535  -5.066  -0.503  0.00  0.00    -0.169 NA
ATOM      5  C   UNL     1      -1.591  -5.503  -1.917  0.00  0.00    +0.138 C 
ATOM      6  C   UNL     1      -2.700  -4.767  -2.667  0.00  0.00    +0.177 C 
ATOM      7  O   UNL     1      -3.923  -4.724  -1.909  0.00  0.00    -0.374 OA
ATOM      8  C   UNL     1      -3.726  -4.102  -0.658  0.00  0.00    +0.137 C 
ATOM      9  C   UNL     1      -2.820  -5.056   0.182  0.00  0.00    +0.109 C 
ATOM     10  C   UNL     1      -2.874  -4.443   1.575  0.00  0.00    +0.023 C 
ATOM     11  C   UNL     1      -4.269  -3.773   1.671  0.00  0.00    +0.004 C 
ATOM     12  C   UNL     1      -4.930  -3.928   0.265  0.00  0.00    +0.033 C 
ENDBRANCH   1   4
BRANCH   1  17
ATOM     13  C   UNL     1       0.180   1.398   0.124  0.00  0.00    +0.044 C 
ATOM     14  C   UNL     1       0.105  -0.106   0.149  0.00  0.00    -0.046 A 
ATOM     15  C   UNL     1       0.174  -0.821  -1.031  0.00  0.00    +0.028 A 
ATOM     16  C   UNL     1       0.106  -2.208  -1.006  0.00  0.00    +0.051 A 
ATOM     17  C   UNL     1      -0.033  -2.872   0.206  0.00  0.00    +0.126 A 
ATOM     18  C   UNL     1      -0.103  -2.152   1.382  0.00  0.00    +0.034 A 
ATOM     19  C   UNL     1      -0.029  -0.771   1.354  0.00  0.00    -0.046 A 
ATOM     20  C   UNL     1      -0.098   0.011   2.640  0.00  0.00    +0.044 C 
BRANCH  16  21
ATOM     21  N   UNL     1       0.176  -2.933  -2.198  0.00  0.00    -0.356 N 
ATOM     22  H   UNL     1       0.143  -2.471  -3.050  0.00  0.00    +0.142 HD
ATOM     23  H   UNL     1       0.257  -3.900  -2.173  0.00  0.00    +0.142 HD
ENDBRANCH  16  21
ENDBRANCH   1  17
TORSDOF 3
