REMARK  Name = ZINC22929438
REMARK  5 active torsions:
REMARK  status: ('A' for Active; 'I' for Inactive)
REMARK    1  A    between atoms: C_1  and  C_2
REMARK    2  A    between atoms: C_2  and  C_21
REMARK    3  A    between atoms: C_3  and  C_4
REMARK    4  A    between atoms: N_6  and  N_7
REMARK    5  A    between atoms: C_8  and  C_10
REMARK                            x       y       z     vdW  Elec       q    Type
REMARK                         _______ _______ _______ _____ _____    ______ ____
ROOT
ATOM      1  N   UNL     1       1.984  -3.060   0.778  0.00  0.00    -0.231 N 
ATOM      2  C   UNL     1       0.906  -2.283   0.556  0.00  0.00    +0.273 C 
ATOM      3  O   UNL     1      -0.045  -2.724  -0.054  0.00  0.00    -0.270 OA
ATOM      4  H   UNL     1       2.846  -2.660   1.332  0.00  0.00    +0.173 HD
ENDROOT
BRANCH   2   5
ATOM      5  C   UNL     1       0.882  -0.864   1.065  0.00  0.00    +0.297 C 
ATOM      6  C   UNL     1       1.942  -0.032   0.330  0.00  0.00    +0.283 C 
ATOM      7  O   UNL     1       1.883   1.309   0.829  0.00  0.00    -0.484 OA
ATOM      8  C   UNL     1       0.645   1.865   0.943  0.00  0.00    +0.162 A 
ATOM      9  C   UNL     1       0.526   3.241   1.068  0.00  0.00    +0.049 A 
ATOM     10  C   UNL     1      -0.723   3.820   1.188  0.00  0.00    +0.004 A 
ATOM     11  C   UNL     1      -1.857   3.029   1.185  0.00  0.00    +0.004 A 
ATOM     12  C   UNL     1      -1.746   1.658   1.054  0.00  0.00    +0.049 A 
ATOM     13  C   UNL     1      -0.495   1.070   0.937  0.00  0.00    +0.163 A 
ATOM     14  O   UNL     1      -0.401  -0.282   0.811  0.00  0.00    -0.472 OA
ENDBRANCH   2   5
BRANCH   1  17
ATOM     15  C   UNL     1       3.084  -5.157   0.528  0.00  0.00    +0.253 C 
ATOM     16  O   UNL     1       4.038  -4.714   1.139  0.00  0.00    -0.269 OA
ATOM     17  N   UNL     1       2.006  -4.379   0.305  0.00  0.00    -0.231 N 
ATOM     18  H   UNL     1       1.144  -4.779  -0.248  0.00  0.00    +0.173 HD
BRANCH  15  21
ATOM     19  C   UNL     1       5.391  -6.733   0.920  0.00  0.00    +0.039 C 
ATOM     20  C   UNL     1       4.210  -7.274   0.157  0.00  0.00    -0.071 C 
ATOM     21  C   UNL     1       3.107  -6.541   0.031  0.00  0.00    +0.067 C 
ATOM     22  C   UNL     1       4.277  -8.646  -0.463  0.00  0.00    +0.039 C 
ENDBRANCH  15  21
ENDBRANCH   1  17
TORSDOF 3
