REMARK  Name = ZINC39738435
REMARK  8 active torsions:
REMARK  status: ('A' for Active; 'I' for Inactive)
REMARK    1  A    between atoms: C_1  and  C_2
REMARK    2  A    between atoms: C_5  and  C_8
REMARK    3  A    between atoms: C_8  and  C_10
REMARK    4  A    between atoms: C_8  and  N_16
REMARK    5  A    between atoms: N_16  and  C_17
REMARK    6  A    between atoms: C_17  and  C_18
REMARK    7  A    between atoms: N_20  and  C_21
REMARK    8  A    between atoms: N_20  and  C_29
REMARK                            x       y       z     vdW  Elec       q    Type
REMARK                         _______ _______ _______ _____ _____    ______ ____
ROOT
ATOM      1  N   UNL     1       1.559  -4.829   0.544  0.00  0.00    +0.392 N 
ATOM      2  H   UNL     1       2.530  -4.791   0.273  0.00  0.00    -0.084 HD
ATOM      3  H   UNL     1       1.414  -4.250   1.358  0.00  0.00    -0.084 HD
ENDROOT
BRANCH   1   4
ATOM      4  C   UNL     1       0.722  -4.340  -0.559  0.00  0.00    -0.009 C 
BRANCH   4   9
ATOM      5  C   UNL     1       2.472   0.944  -2.112  0.00  0.00    +0.044 C 
ATOM      6  C   UNL     1       2.016  -0.434  -1.708  0.00  0.00    -0.050 A 
ATOM      7  C   UNL     1       1.643  -1.350  -2.673  0.00  0.00    +0.003 A 
ATOM      8  C   UNL     1       1.224  -2.614  -2.302  0.00  0.00    +0.002 A 
ATOM      9  C   UNL     1       1.179  -2.962  -0.965  0.00  0.00    -0.057 A 
ATOM     10  C   UNL     1       1.553  -2.046   0.001  0.00  0.00    +0.002 A 
ATOM     11  C   UNL     1       1.976  -0.784  -0.371  0.00  0.00    +0.003 A 
ENDBRANCH   4   9
BRANCH   4  12
ATOM     12  C   UNL     1      -0.716  -4.281  -0.112  0.00  0.00    -0.057 A 
ATOM     13  C   UNL     1      -1.026  -3.836   1.159  0.00  0.00    +0.002 A 
ATOM     14  C   UNL     1      -2.345  -3.782   1.570  0.00  0.00    +0.000 A 
ATOM     15  C   UNL     1      -3.353  -4.172   0.709  0.00  0.00    +0.000 A 
ATOM     16  C   UNL     1      -3.043  -4.616  -0.563  0.00  0.00    +0.000 A 
ATOM     17  C   UNL     1      -1.724  -4.666  -0.975  0.00  0.00    +0.002 A 
ENDBRANCH   4  12
ENDBRANCH   1   4
BRANCH   1  18
ATOM     18  C   UNL     1       1.193  -6.216   0.860  0.00  0.00    +0.016 C 
BRANCH  18  19
ATOM     19  C   UNL     1       2.051  -6.717   1.992  0.00  0.00    +0.199 C 
ATOM     20  O   UNL     1       2.630  -5.929   2.710  0.00  0.00    -0.278 OA
ATOM     21  N   UNL     1       2.176  -8.042   2.208  0.00  0.00    -0.295 N 
BRANCH  21  22
ATOM     22  C   UNL     1       1.555  -8.996   1.286  0.00  0.00    +0.099 C 
ATOM     23  C   UNL     1       0.043  -8.725   1.212  0.00  0.00    +0.046 C 
ATOM     24  C   UNL     1      -0.534  -9.526   0.011  0.00  0.00    +0.168 C 
ATOM     25  S   UNL     1       0.794  -9.264  -1.239  0.00  0.00    -0.029 S 
ATOM     26  O   UNL     1       0.470  -8.125  -2.026  0.00  0.00    -0.174 OA
ATOM     27  O   UNL     1       1.075 -10.500  -1.881  0.00  0.00    -0.174 OA
ATOM     28  C   UNL     1       2.187  -8.839  -0.118  0.00  0.00    +0.188 C 
ENDBRANCH  21  22
BRANCH  21  29
ATOM     29  C   UNL     1       2.932  -8.527   3.365  0.00  0.00    +0.076 C 
ATOM     30  C   UNL     1       2.291  -8.002   4.651  0.00  0.00    +0.022 C 
ATOM     31  C   UNL     1       3.081  -8.509   5.859  0.00  0.00    +0.002 C 
ATOM     32  C   UNL     1       4.525  -8.012   5.769  0.00  0.00    +0.000 C 
ATOM     33  C   UNL     1       5.166  -8.537   4.484  0.00  0.00    +0.002 C 
ATOM     34  C   UNL     1       4.377  -8.030   3.276  0.00  0.00    +0.022 C 
ENDBRANCH  21  29
ENDBRANCH  18  19
ENDBRANCH   1  18
TORSDOF 7
