REMARK  Name = ZINC12195427
REMARK  10 active torsions:
REMARK  status: ('A' for Active; 'I' for Inactive)
REMARK    1  A    between atoms: C_1  and  O_2
REMARK    2  A    between atoms: O_2  and  C_3
REMARK    3  A    between atoms: C_3  and  C_5
REMARK    4  A    between atoms: C_8  and  C_11
REMARK    5  A    between atoms: C_11  and  N_12
REMARK    6  A    between atoms: C_13  and  C_15
REMARK    7  A    between atoms: C_15  and  C_16
REMARK    8  A    between atoms: C_23  and  C_24
REMARK    9  A    between atoms: C_23  and  N_58
REMARK   10  A    between atoms: C_25  and  C_26
REMARK                            x       y       z     vdW  Elec       q    Type
REMARK                         _______ _______ _______ _____ _____    ______ ____
ROOT
ATOM      1  C   UNL     1      -0.684   1.521   1.263  0.00  0.00    +0.028 C 
ATOM      2  C   UNL     1       0.099   1.040   2.453  0.00  0.00    +0.200 C 
ATOM      3  O   UNL     1       0.529  -0.094   2.446  0.00  0.00    -0.278 OA
ATOM      4  N   UNL     1       0.340   1.807   3.519  0.00  0.00    -0.318 N 
ATOM      5  C   UNL     1      -0.099   3.197   3.612  0.00  0.00    +0.085 C 
ATOM      6  C   UNL     1      -1.204   3.467   2.590  0.00  0.00    -0.058 C 
ATOM      7  H   UNL     1       0.830   1.425   4.264  0.00  0.00    +0.149 HD
ATOM      8  N   UNL     1      -0.733   2.995   1.272  0.00  0.00    +0.391 N 
ATOM      9  H   UNL     1       0.210   3.363   1.101  0.00  0.00    -0.080 HD
ENDROOT
BRANCH   1  10
ATOM     10  C   UNL     1       0.005   1.054  -0.021  0.00  0.00    +0.089 C 
BRANCH  10  12
ATOM     11  N   UNL     1       2.216   1.310  -1.099  0.00  0.00    -0.311 N 
ATOM     12  C   UNL     1       1.378   1.669  -0.107  0.00  0.00    +0.212 C 
ATOM     13  O   UNL     1       1.728   2.487   0.717  0.00  0.00    -0.276 OA
ATOM     14  H   UNL     1       1.936   0.655  -1.757  0.00  0.00    +0.149 HD
BRANCH  11  15
ATOM     15  C   UNL     1       3.551   1.908  -1.183  0.00  0.00    +0.139 C 
BRANCH  15  19
ATOM     16  C   UNL     1       5.626   0.299  -4.558  0.00  0.00    +0.059 A 
ATOM     17  C   UNL     1       4.845   1.448  -4.697  0.00  0.00    +0.015 A 
ATOM     18  C   UNL     1       4.178   1.962  -3.604  0.00  0.00    +0.006 A 
ATOM     19  C   UNL     1       4.282   1.341  -2.372  0.00  0.00    -0.030 A 
ATOM     20  C   UNL     1       5.058   0.205  -2.226  0.00  0.00    +0.006 A 
ATOM     21  C   UNL     1       5.726  -0.322  -3.312  0.00  0.00    +0.015 A 
BRANCH  16  22
ATOM     22  C   UNL     1       6.342  -0.257  -5.724  0.00  0.00    +0.339 C 
ATOM     23  O   UNL     1       6.253   0.286  -6.807  0.00  0.00    -0.245 OA
BRANCH  22  25
ATOM     24  C   UNL     1       7.771  -1.855  -6.774  0.00  0.00    +0.280 C 
ATOM     25  O   UNL     1       7.095  -1.365  -5.586  0.00  0.00    -0.464 OA
ENDBRANCH  22  25
ENDBRANCH  16  22
ENDBRANCH  15  19
ENDBRANCH  11  15
ENDBRANCH  10  12
ENDBRANCH   1  10
BRANCH   8  26
ATOM     26  C   UNL     1      -1.639   3.478   0.205  0.00  0.00    -0.050 C 
BRANCH  26  27
ATOM     27  C   UNL     1      -1.407   4.953  -0.002  0.00  0.00    -0.045 C 
ATOM     28  C   UNL     1      -1.098   5.412  -1.206  0.00  0.00    +0.002 C 
BRANCH  28  29
ATOM     29  C   UNL     1      -0.870   6.859  -1.409  0.00  0.00    -0.025 A 
ATOM     30  C   UNL     1      -0.986   7.744  -0.336  0.00  0.00    +0.008 A 
ATOM     31  C   UNL     1      -0.765   9.092  -0.530  0.00  0.00    +0.001 A 
ATOM     32  C   UNL     1      -0.443   9.568  -1.788  0.00  0.00    +0.000 A 
ATOM     33  C   UNL     1      -0.333   8.697  -2.857  0.00  0.00    +0.001 A 
ATOM     34  C   UNL     1      -0.544   7.346  -2.675  0.00  0.00    +0.008 A 
ENDBRANCH  28  29
ENDBRANCH  26  27
ENDBRANCH   8  26
TORSDOF 9
