REMARK  Name = ZINC00526223
REMARK  4 active torsions:
REMARK  status: ('A' for Active; 'I' for Inactive)
REMARK    1  A    between atoms: C_1  and  C_2
REMARK    2  A    between atoms: N_14  and  C_17
REMARK    3  A    between atoms: C_17  and  C_18
REMARK    4  A    between atoms: C_18  and  C_19
REMARK                            x       y       z     vdW  Elec       q    Type
REMARK                         _______ _______ _______ _____ _____    ______ ____
ROOT
ATOM      1  C   UNL     1       3.978   4.952  -0.010  0.00  0.00    +0.044 C 
ATOM      2  C   UNL     1       2.962   3.840  -0.006  0.00  0.00    -0.050 A 
ATOM      3  C   UNL     1       3.386   2.518  -0.018  0.00  0.00    +0.005 A 
ATOM      4  C   UNL     1       2.472   1.488  -0.014  0.00  0.00    +0.026 A 
ATOM      5  C   UNL     1       1.108   1.771   0.001  0.00  0.00    +0.049 A 
ATOM      6  C   UNL     1       0.685   3.111   0.012  0.00  0.00    +0.026 A 
ATOM      7  C   UNL     1       1.629   4.139   0.008  0.00  0.00    +0.015 A 
ATOM      8  C   UNL     1      -0.784   3.084   0.026  0.00  0.00    +0.103 A 
ATOM      9  C   UNL     1      -1.154   1.742   0.016  0.00  0.00    +0.131 A 
ATOM     10  N   UNL     1      -0.011   0.966   0.007  0.00  0.00    -0.349 N 
ATOM     11  H   UNL     1       0.002  -0.004   0.002  0.00  0.00    +0.166 HD
ATOM     12  C   UNL     1      -2.533   1.428   0.020  0.00  0.00    +0.278 A 
ATOM     13  O   UNL     1      -2.910   0.268   0.015  0.00  0.00    -0.265 OA
ATOM     14  N   UNL     1      -3.424   2.443   0.028  0.00  0.00    -0.297 N 
ATOM     15  C   UNL     1      -2.998   3.732   0.034  0.00  0.00    +0.202 A 
ATOM     16  N   UNL     1      -1.732   4.038   0.040  0.00  0.00    -0.235 NA
ENDROOT
BRANCH  14  17
ATOM     17  C   UNL     1      -4.860   2.152   0.032  0.00  0.00    +0.131 C 
BRANCH  17  18
ATOM     18  C   UNL     1      -5.355   2.042   1.475  0.00  0.00    +0.059 C 
BRANCH  18  19
ATOM     19  C   UNL     1      -6.832   1.743   1.478  0.00  0.00    -0.021 A 
ATOM     20  C   UNL     1      -7.827   2.637   1.580  0.00  0.00    +0.087 A 
ATOM     21  N   UNL     1      -9.036   1.995   1.547  0.00  0.00    -0.360 N 
ATOM     22  H   UNL     1      -9.900   2.432   1.605  0.00  0.00    +0.165 HD
ATOM     23  C   UNL     1      -8.842   0.638   1.419  0.00  0.00    +0.047 A 
ATOM     24  C   UNL     1      -7.452   0.421   1.365  0.00  0.00    +0.003 A 
ATOM     25  C   UNL     1      -6.955  -0.877   1.229  0.00  0.00    +0.010 A 
ATOM     26  C   UNL     1      -7.822  -1.930   1.147  0.00  0.00    +0.001 A 
ATOM     27  C   UNL     1      -9.193  -1.721   1.196  0.00  0.00    +0.002 A 
ATOM     28  C   UNL     1      -9.705  -0.449   1.337  0.00  0.00    +0.026 A 
ENDBRANCH  18  19
ENDBRANCH  17  18
ENDBRANCH  14  17
TORSDOF 3
