REMARK  Name = ZINC24123343
REMARK  6 active torsions:
REMARK  status: ('A' for Active; 'I' for Inactive)
REMARK    1  A    between atoms: C_1  and  C_2
REMARK    2  A    between atoms: N_5  and  C_8
REMARK    3  A    between atoms: C_11  and  C_17
REMARK    4  A    between atoms: C_13  and  N_14
REMARK    5  A    between atoms: N_19  and  N_20
REMARK    6  A    between atoms: C_21  and  C_23
REMARK                            x       y       z     vdW  Elec       q    Type
REMARK                         _______ _______ _______ _____ _____    ______ ____
ROOT
ATOM      1  C   UNL     1       1.190   1.797   0.010  0.00  0.00    +0.060 A 
ATOM      2  C   UNL     1       0.001   1.079   0.110  0.00  0.00    +0.026 A 
ATOM      3  C   UNL     1      -1.206   1.740   0.110  0.00  0.00    +0.015 A 
ATOM      4  C   UNL     1      -1.237   3.135   0.021  0.00  0.00    +0.040 A 
ATOM      5  C   UNL     1      -0.042   3.853  -0.079  0.00  0.00    +0.047 A 
ATOM      6  C   UNL     1       1.161   3.186  -0.084  0.00  0.00    +0.148 A 
ENDROOT
BRANCH   1  11
ATOM      7  C   UNL     1       5.598  -1.718   0.025  0.00  0.00    +0.007 C 
ATOM      8  C   UNL     1       4.175  -1.157   0.039  0.00  0.00    -0.011 C 
ATOM      9  C   UNL     1       3.935  -0.337  -1.231  0.00  0.00    +0.022 C 
ATOM     10  C   UNL     1       2.531   0.271  -1.183  0.00  0.00    +0.105 C 
ATOM     11  N   UNL     1       2.407   1.126   0.004  0.00  0.00    -0.328 N 
ATOM     12  C   UNL     1       2.587   0.351   1.238  0.00  0.00    +0.105 C 
ATOM     13  C   UNL     1       3.992  -0.254   1.262  0.00  0.00    +0.022 C 
ENDBRANCH   1  11
BRANCH   4  14
ATOM     14  C   UNL     1      -2.529   3.847   0.028  0.00  0.00    +0.260 C 
ATOM     15  O   UNL     1      -2.555   5.060  -0.053  0.00  0.00    -0.269 OA
ATOM     16  N   UNL     1      -3.681   3.153   0.124  0.00  0.00    -0.230 N 
ATOM     17  H   UNL     1      -3.657   2.056   0.198  0.00  0.00    +0.173 HD
BRANCH  16  18
ATOM     18  N   UNL     1      -4.908   3.830   0.130  0.00  0.00    -0.229 N 
ATOM     19  C   UNL     1      -6.059   3.136   0.227  0.00  0.00    +0.276 C 
ATOM     20  O   UNL     1      -6.033   1.922   0.308  0.00  0.00    -0.267 OA
ATOM     21  H   UNL     1      -4.931   4.927   0.057  0.00  0.00    +0.173 HD
BRANCH  19  22
ATOM     22  C   UNL     1      -7.343   3.844   0.233  0.00  0.00    +0.104 A 
ATOM     23  C   UNL     1      -8.592   3.266   0.320  0.00  0.00    +0.047 A 
ATOM     24  C   UNL     1      -9.529   4.304   0.295  0.00  0.00    +0.036 A 
ATOM     25  C   UNL     1      -8.851   5.473   0.187  0.00  0.00    +0.098 A 
ATOM     26  N   UNL     1      -7.522   5.206   0.148  0.00  0.00    -0.356 N 
ATOM     27  H   UNL     1      -6.649   5.871   0.066  0.00  0.00    +0.166 HD
ATOM     28 BR   UNL     1     -11.408   4.112   0.388  0.00  0.00    -0.049 Br
ENDBRANCH  19  22
ENDBRANCH  16  18
ENDBRANCH   4  14
BRANCH   6  29
ATOM     29  N   UNL     1       2.428   3.946  -0.189  0.00  0.00    +0.058 N 
ATOM     30  O   UNL     1       2.410   5.163  -0.172  0.00  0.00    -0.126 OA
ATOM     31  O   UNL     1       3.486   3.353  -0.293  0.00  0.00    -0.126 OA
ENDBRANCH   6  29
TORSDOF 5
