REMARK  Name = ZINC12497587
REMARK  10 active torsions:
REMARK  status: ('A' for Active; 'I' for Inactive)
REMARK    1  A    between atoms: C_1  and  C_2
REMARK    2  A    between atoms: C_2  and  O_3
REMARK    3  A    between atoms: O_3  and  C_4
REMARK    4  A    between atoms: C_4  and  C_6
REMARK    5  A    between atoms: C_6  and  C_30
REMARK    6  A    between atoms: C_11  and  C_13
REMARK    7  A    between atoms: N_20  and  C_23
REMARK    8  A    between atoms: C_30  and  C_31
REMARK    9  A    between atoms: C_31  and  S_32
REMARK   10  A    between atoms: S_32  and  C_33
REMARK                            x       y       z     vdW  Elec       q    Type
REMARK                         _______ _______ _______ _____ _____    ______ ____
ROOT
ATOM      1  C   UNL     1       5.372   5.625   1.179  0.00  0.00    +0.045 C 
ATOM      2  C   UNL     1       4.358   4.660   0.681  0.00  0.00    +0.086 C 
ATOM      3  C   UNL     1       3.978   5.311  -0.709  0.00  0.00    +0.080 C 
ATOM      4  C   UNL     1       5.378   5.501  -1.238  0.00  0.00    +0.010 C 
ATOM      5  C   UNL     1       3.004   4.285  -1.143  0.00  0.00    +0.229 C 
ATOM      6  O   UNL     1       2.814   3.881  -2.271  0.00  0.00    -0.275 OA
ATOM      7  N   UNL     1       2.361   3.888   0.000  0.00  0.00    -0.207 N 
ATOM      8  C   UNL     1       3.022   4.278   1.138  0.00  0.00    +0.229 C 
ATOM      9  O   UNL     1       2.594   4.297   2.272  0.00  0.00    -0.275 OA
ATOM     10  N   UNL     1       6.085   6.072  -0.052  0.00  0.00    +0.397 N 
ATOM     11  H   UNL     1       7.055   5.738  -0.032  0.00  0.00    -0.083 HD
ATOM     12  H   UNL     1       6.077   7.097  -0.104  0.00  0.00    -0.083 HD
ENDROOT
BRANCH   7  13
ATOM     13  C   UNL     1       1.156   3.169   0.008  0.00  0.00    +0.079 A 
ATOM     14  C   UNL     1       1.175   1.782   0.000  0.00  0.00    +0.027 A 
ATOM     15  C   UNL     1      -0.013   1.076   0.008  0.00  0.00    +0.002 A 
ATOM     16  C   UNL     1      -1.220   1.750   0.017  0.00  0.00    +0.003 A 
ATOM     17  C   UNL     1      -1.244   3.132   0.030  0.00  0.00    +0.040 A 
ATOM     18  C   UNL     1      -0.058   3.845   0.022  0.00  0.00    +0.145 A 
ATOM     19  F   UNL     1      -0.081   5.196   0.029  0.00  0.00    -0.204 F 
ENDBRANCH   7  13
BRANCH   4  20
ATOM     20  C   UNL     1       5.387   6.467  -2.395  0.00  0.00    +0.092 A 
ATOM     21  C   UNL     1       5.432   6.135  -3.697  0.00  0.00    +0.043 A 
ATOM     22  C   UNL     1       5.423   7.345  -4.429  0.00  0.00    +0.041 A 
ATOM     23  C   UNL     1       5.373   8.344  -3.530  0.00  0.00    +0.195 A 
ATOM     24  O   UNL     1       5.346   7.806  -2.300  0.00  0.00    -0.469 OA
ENDBRANCH   4  20
BRANCH   1  25
ATOM     25  C   UNL     1       4.700   6.792   1.855  0.00  0.00    +0.297 C 
ATOM     26  O   UNL     1       3.624   6.645   2.385  0.00  0.00    -0.252 OA
BRANCH  25  27
ATOM     27  O   UNL     1       5.296   7.994   1.869  0.00  0.00    -0.466 OA
BRANCH  27  29
ATOM     28  C   UNL     1       5.420  10.355   2.451  0.00  0.00    +0.048 C 
ATOM     29  C   UNL     1       4.591   9.072   2.539  0.00  0.00    +0.228 C 
ENDBRANCH  27  29
ENDBRANCH  25  27
ENDBRANCH   1  25
BRANCH   1  30
ATOM     30  C   UNL     1       6.339   4.935   2.143  0.00  0.00    +0.010 C 
BRANCH  30  31
ATOM     31  C   UNL     1       7.421   5.927   2.576  0.00  0.00    +0.068 C 
BRANCH  31  32
ATOM     32  S   UNL     1       8.568   5.110   3.719  0.00  0.00    -0.164 S 
ATOM     33  C   UNL     1       9.772   6.402   4.132  0.00  0.00    +0.084 C 
ENDBRANCH  31  32
ENDBRANCH  30  31
ENDBRANCH   1  30
TORSDOF 8
