REMARK  Name = ZINC11224075
REMARK  9 active torsions:
REMARK  status: ('A' for Active; 'I' for Inactive)
REMARK    1  A    between atoms: C_1  and  C_2
REMARK    2  A    between atoms: C_7  and  N_8
REMARK    3  A    between atoms: C_14  and  C_19
REMARK    4  A    between atoms: C_19  and  O_21
REMARK    5  A    between atoms: O_21  and  C_22
REMARK    6  A    between atoms: C_22  and  C_24
REMARK    7  A    between atoms: C_22  and  C_25
REMARK    8  A    between atoms: N_27  and  C_28
REMARK    9  A    between atoms: C_28  and  C_29
REMARK                            x       y       z     vdW  Elec       q    Type
REMARK                         _______ _______ _______ _____ _____    ______ ____
ROOT
ATOM      1  N   UNL     1       0.025  -0.013   2.419  0.00  0.00    -0.202 N 
ATOM      2  C   UNL     1      -1.083   0.342   3.094  0.00  0.00    +0.258 C 
ATOM      3  O   UNL     1      -2.225   0.118   2.749  0.00  0.00    -0.269 OA
ATOM      4  C   UNL     1      -0.675   1.052   4.327  0.00  0.00    +0.050 A 
ATOM      5  C   UNL     1      -1.366   1.632   5.379  0.00  0.00    +0.014 A 
ATOM      6  C   UNL     1      -0.670   2.236   6.413  0.00  0.00    +0.016 A 
ATOM      7  C   UNL     1       0.725   2.263   6.401  0.00  0.00    +0.060 A 
ATOM      8  C   UNL     1       1.429   1.681   5.343  0.00  0.00    +0.028 A 
ATOM      9  C   UNL     1       0.735   1.077   4.309  0.00  0.00    +0.051 A 
ATOM     10  C   UNL     1       1.135   0.377   3.070  0.00  0.00    +0.258 C 
ATOM     11  O   UNL     1       2.277   0.189   2.700  0.00  0.00    -0.269 OA
ENDROOT
BRANCH   1  18
ATOM     12  C   UNL     1      -0.018   1.503   0.010  0.00  0.00    +0.045 C 
ATOM     13  C   UNL     1       0.002  -0.004   0.002  0.00  0.00    -0.029 A 
ATOM     14  C   UNL     1       0.006  -0.689  -1.198  0.00  0.00    +0.005 A 
ATOM     15  C   UNL     1       0.024  -2.071  -1.206  0.00  0.00    +0.000 A 
ATOM     16  C   UNL     1       0.039  -2.773  -0.014  0.00  0.00    +0.002 A 
ATOM     17  C   UNL     1       0.036  -2.094   1.188  0.00  0.00    +0.024 A 
ATOM     18  C   UNL     1       0.023  -0.705   1.200  0.00  0.00    +0.047 A 
ENDBRANCH   1  18
BRANCH   7  19
ATOM     19  C   UNL     1       1.460   2.910   7.509  0.00  0.00    +0.340 C 
ATOM     20  O   UNL     1       2.674   2.935   7.500  0.00  0.00    -0.245 OA
BRANCH  19  21
ATOM     21  O   UNL     1       0.782   3.472   8.529  0.00  0.00    -0.449 OA
BRANCH  21  22
ATOM     22  C   UNL     1       1.556   4.079   9.565  0.00  0.00    +0.259 C 
ATOM     23  C   UNL     1       1.863   3.042  10.647  0.00  0.00    +0.062 C 
BRANCH  22  24
ATOM     24  C   UNL     1       0.779   5.220  10.170  0.00  0.00    +0.254 C 
ATOM     25  O   UNL     1      -0.362   5.430   9.818  0.00  0.00    -0.272 OA
ATOM     26  N   UNL     1       1.352   6.007  11.102  0.00  0.00    -0.312 N 
ATOM     27  H   UNL     1       2.265   5.839  11.383  0.00  0.00    +0.149 HD
BRANCH  26  28
ATOM     28  C   UNL     1       0.597   7.116  11.690  0.00  0.00    +0.107 C 
BRANCH  28  29
ATOM     29  C   UNL     1       1.472   7.844  12.712  0.00  0.00    +0.006 C 
ATOM     30  C   UNL     1       2.657   8.496  11.997  0.00  0.00    +0.005 C 
ATOM     31  C   UNL     1       3.532   9.224  13.019  0.00  0.00    +0.000 C 
ATOM     32  C   UNL     1       2.705  10.302  13.723  0.00  0.00    +0.000 C 
ATOM     33  C   UNL     1       1.520   9.650  14.438  0.00  0.00    +0.000 C 
ATOM     34  C   UNL     1       0.645   8.922  13.415  0.00  0.00    +0.005 C 
ENDBRANCH  28  29
ENDBRANCH  26  28
ENDBRANCH  22  24
ENDBRANCH  21  22
ENDBRANCH  19  21
ENDBRANCH   7  19
TORSDOF 7
