REMARK  Name = ZINC31482044
REMARK  9 active torsions:
REMARK  status: ('A' for Active; 'I' for Inactive)
REMARK    1  A    between atoms: C_1  and  C_2
REMARK    2  A    between atoms: C_2  and  C_3
REMARK    3  A    between atoms: C_2  and  C_4
REMARK    4  A    between atoms: C_2  and  N_5
REMARK    5  A    between atoms: N_5  and  S_6
REMARK    6  A    between atoms: S_6  and  C_9
REMARK    7  A    between atoms: C_12  and  C_14
REMARK    8  A    between atoms: N_16  and  N_17
REMARK    9  A    between atoms: C_18  and  C_20
REMARK                            x       y       z     vdW  Elec       q    Type
REMARK                         _______ _______ _______ _____ _____    ______ ____
ROOT
ATOM      1  C   UNL     1      -2.236   1.022  -0.367  0.00  0.00    +0.295 C 
ATOM      2  O   UNL     1      -2.544  -0.126  -0.628  0.00  0.00    -0.265 OA
ATOM      3  N   UNL     1      -3.171   1.889   0.070  0.00  0.00    -0.228 N 
ATOM      4  H   UNL     1      -2.893   2.926   0.306  0.00  0.00    +0.173 HD
ENDROOT
BRANCH   1   8
ATOM      5  C   UNL     1       0.940   2.737  -0.535  0.00  0.00    +0.258 A 
ATOM      6  C   UNL     1       1.332   1.516  -0.963  0.00  0.00    +0.072 A 
ATOM      7  C   UNL     1       0.196   0.692  -0.957  0.00  0.00    +0.057 A 
ATOM      8  C   UNL     1      -0.846   1.463  -0.526  0.00  0.00    +0.193 A 
ATOM      9  O   UNL     1      -0.372   2.700  -0.270  0.00  0.00    -0.432 OA
BRANCH   5  10
ATOM     10  S   UNL     1       1.984   4.145  -0.355  0.00  0.00    +0.092 S 
ATOM     11  O   UNL     1       1.281   5.069   0.464  0.00  0.00    -0.150 OA
ATOM     12  O   UNL     1       3.273   3.654  -0.016  0.00  0.00    -0.150 OA
BRANCH  10  13
ATOM     13  N   UNL     1       2.122   4.846  -1.849  0.00  0.00    -0.182 NA
ATOM     14  H   UNL     1       3.048   4.703  -2.426  0.00  0.00    +0.149 HD
BRANCH  13  16
ATOM     15  C   UNL     1       0.545   6.709  -1.699  0.00  0.00    +0.029 C 
ATOM     16  C   UNL     1       0.952   5.459  -2.482  0.00  0.00    +0.032 C 
ATOM     17  C   UNL     1       1.295   5.848  -3.921  0.00  0.00    +0.029 C 
ATOM     18  C   UNL     1      -0.207   4.460  -2.486  0.00  0.00    +0.029 C 
ENDBRANCH  13  16
ENDBRANCH  10  13
ENDBRANCH   5  10
ENDBRANCH   1   8
BRANCH   3  19
ATOM     19  N   UNL     1      -4.499   1.468   0.222  0.00  0.00    -0.230 N 
ATOM     20  C   UNL     1      -5.435   2.334   0.658  0.00  0.00    +0.267 C 
ATOM     21  O   UNL     1      -5.127   3.482   0.920  0.00  0.00    -0.268 OA
ATOM     22  H   UNL     1      -4.778   0.430  -0.014  0.00  0.00    +0.173 HD
BRANCH  20  23
ATOM     23  C   UNL     1      -6.824   1.893   0.818  0.00  0.00    +0.076 A 
ATOM     24  C   UNL     1      -7.921   2.612   1.246  0.00  0.00    +0.024 A 
ATOM     25  C   UNL     1      -9.152   1.959   1.312  0.00  0.00    -0.036 A 
ATOM     26  C   UNL     1      -9.169   0.649   0.948  0.00  0.00    -0.006 A 
ATOM     27  S   UNL     1      -7.539   0.291   0.502  0.00  0.00    -0.088 S 
ATOM     28  C   UNL     1     -10.545   0.052   1.065  0.00  0.00    +0.043 C 
ATOM     29  C   UNL     1     -11.322   1.037   1.966  0.00  0.00    +0.010 C 
ATOM     30  C   UNL     1     -10.574   2.360   1.712  0.00  0.00    +0.036 C 
ENDBRANCH  20  23
ENDBRANCH   3  19
TORSDOF 6
