REMARK  Name = ZINC14916975
REMARK  9 active torsions:
REMARK  status: ('A' for Active; 'I' for Inactive)
REMARK    1  A    between atoms: C_1  and  C_2
REMARK    2  A    between atoms: C_4  and  C_35
REMARK    3  A    between atoms: C_5  and  S_9
REMARK    4  A    between atoms: C_6  and  C_8
REMARK    5  A    between atoms: S_9  and  N_12
REMARK    6  A    between atoms: N_15  and  C_18
REMARK    7  A    between atoms: C_18  and  C_19
REMARK    8  A    between atoms: C_18  and  C_20
REMARK    9  A    between atoms: N_22  and  C_23
REMARK                            x       y       z     vdW  Elec       q    Type
REMARK                         _______ _______ _______ _____ _____    ______ ____
ROOT
ATOM      1  N   UNL     1       0.599  -4.668   1.269  0.00  0.00    -0.174 NA
ATOM      2  C   UNL     1       0.971  -5.396   0.046  0.00  0.00    +0.125 C 
ATOM      3  C   UNL     1       2.479  -5.238  -0.174  0.00  0.00    +0.102 C 
ATOM      4  N   UNL     1       3.195  -5.655   1.039  0.00  0.00    -0.289 NA
ATOM      5  C   UNL     1       2.857  -4.793   2.179  0.00  0.00    +0.102 C 
ATOM      6  C   UNL     1       1.368  -4.928   2.495  0.00  0.00    +0.125 C 
ENDROOT
BRANCH   1   7
ATOM      7  S   UNL     1      -0.649  -3.579   1.263  0.00  0.00    +0.061 S 
ATOM      8  O   UNL     1      -1.188  -3.572   2.578  0.00  0.00    -0.153 OA
ATOM      9  O   UNL     1      -1.437  -3.871   0.118  0.00  0.00    -0.153 OA
BRANCH   7  14
ATOM     10  C   UNL     1       1.756   1.880   0.358  0.00  0.00    +0.044 C 
ATOM     11  C   UNL     1       1.155   0.517   0.584  0.00  0.00    -0.050 A 
ATOM     12  C   UNL     1       0.958   0.053   1.871  0.00  0.00    +0.008 A 
ATOM     13  C   UNL     1       0.406  -1.197   2.079  0.00  0.00    -0.024 A 
ATOM     14  C   UNL     1       0.053  -1.984   0.999  0.00  0.00    +0.111 A 
ATOM     15  C   UNL     1       0.250  -1.521  -0.288  0.00  0.00    -0.024 A 
ATOM     16  C   UNL     1       0.797  -0.268  -0.496  0.00  0.00    +0.008 A 
ATOM     17  C   UNL     1      -0.136  -2.379  -1.466  0.00  0.00    +0.046 C 
ATOM     18  C   UNL     1       0.192  -1.703   3.482  0.00  0.00    +0.046 C 
ENDBRANCH   7  14
ENDBRANCH   1   7
BRANCH   4  19
ATOM     19  C   UNL     1       4.646  -5.682   0.811  0.00  0.00    +0.140 C 
ATOM     20  C   UNL     1       5.082  -4.376   0.143  0.00  0.00    +0.034 C 
BRANCH  19  21
ATOM     21  C   UNL     1       4.992  -6.844  -0.084  0.00  0.00    +0.234 C 
ATOM     22  O   UNL     1       4.109  -7.499  -0.597  0.00  0.00    -0.274 OA
ATOM     23  N   UNL     1       6.282  -7.156  -0.315  0.00  0.00    -0.284 N 
ATOM     24  H   UNL     1       6.987  -6.680   0.152  0.00  0.00    +0.155 HD
BRANCH  23  25
ATOM     25  C   UNL     1       6.606  -8.166  -1.229  0.00  0.00    +0.036 A 
ATOM     26  C   UNL     1       7.731  -8.037  -2.036  0.00  0.00    +0.025 A 
ATOM     27  C   UNL     1       8.056  -9.030  -2.939  0.00  0.00    +0.029 A 
ATOM     28  C   UNL     1       7.258 -10.160  -3.042  0.00  0.00    +0.067 A 
ATOM     29  C   UNL     1       6.128 -10.292  -2.233  0.00  0.00    +0.069 A 
ATOM     30  C   UNL     1       5.808  -9.296  -1.323  0.00  0.00    +0.051 A 
ATOM     31  N   UNL     1       5.539 -11.512  -2.559  0.00  0.00    -0.306 N 
ATOM     32  H   UNL     1       4.734 -11.878  -2.160  0.00  0.00    +0.170 HD
ATOM     33  C   UNL     1       6.277 -12.095  -3.523  0.00  0.00    +0.325 A 
ATOM     34  O   UNL     1       6.036 -13.173  -4.034  0.00  0.00    -0.247 OA
ATOM     35  N   UNL     1       7.321 -11.304  -3.836  0.00  0.00    -0.306 N 
ATOM     36  H   UNL     1       8.000 -11.498  -4.501  0.00  0.00    +0.170 HD
ENDBRANCH  23  25
ENDBRANCH  19  21
ENDBRANCH   4  19
TORSDOF 5
