REMARK  Name = ZINC15676523
REMARK  9 active torsions:
REMARK  status: ('A' for Active; 'I' for Inactive)
REMARK    1  A    between atoms: C_1  and  C_2
REMARK    2  A    between atoms: C_2  and  C_3
REMARK    3  A    between atoms: C_2  and  C_4
REMARK    4  A    between atoms: C_10  and  C_22
REMARK    5  A    between atoms: C_10  and  C_23
REMARK    6  A    between atoms: N_11  and  C_14
REMARK    7  A    between atoms: C_17  and  O_20
REMARK    8  A    between atoms: O_20  and  C_21
REMARK    9  A    between atoms: N_25  and  C_26
REMARK                            x       y       z     vdW  Elec       q    Type
REMARK                         _______ _______ _______ _____ _____    ______ ____
ROOT
ATOM      1  C   UNL     1      -0.621   1.688  -1.593  0.00  0.00    +0.066 A 
ATOM      2  C   UNL     1      -0.080   2.157  -2.797  0.00  0.00    +0.058 A 
ATOM      3  C   UNL     1      -1.135   2.703  -3.472  0.00  0.00    +0.124 A 
ATOM      4  N   UNL     1      -2.248   2.538  -2.678  0.00  0.00    -0.256 N 
ATOM      5  N   UNL     1      -1.907   1.952  -1.598  0.00  0.00    -0.175 NA
ATOM      6  C   UNL     1      -3.572   2.990  -3.124  0.00  0.00    +0.179 C 
ATOM      7  C   UNL     1      -3.408   4.195  -4.049  0.00  0.00    +0.135 C 
ATOM      8  N   UNL     1      -2.390   3.980  -5.072  0.00  0.00    -0.250 N 
ATOM      9  C   UNL     1      -1.223   3.351  -4.789  0.00  0.00    +0.270 C 
ATOM     10  O   UNL     1      -0.300   3.325  -5.580  0.00  0.00    -0.268 OA
ATOM     11  C   UNL     1      -3.017   5.413  -3.211  0.00  0.00    +0.044 C 
ENDROOT
BRANCH   8  12
ATOM     12  C   UNL     1      -2.624   4.434  -6.376  0.00  0.00    +0.038 A 
ATOM     13  C   UNL     1      -2.655   3.530  -7.431  0.00  0.00    +0.027 A 
ATOM     14  C   UNL     1      -2.890   3.978  -8.716  0.00  0.00    +0.047 A 
ATOM     15  C   UNL     1      -3.085   5.330  -8.955  0.00  0.00    +0.120 A 
ATOM     16  C   UNL     1      -3.048   6.234  -7.903  0.00  0.00    +0.047 A 
ATOM     17  C   UNL     1      -2.818   5.787  -6.617  0.00  0.00    +0.027 A 
BRANCH  15  18
ATOM     18  O   UNL     1      -3.312   5.771 -10.221  0.00  0.00    -0.495 OA
ATOM     19  C   UNL     1      -3.337   4.786 -11.256  0.00  0.00    +0.277 C 
ENDBRANCH  15  18
ENDBRANCH   8  12
BRANCH   7  20
ATOM     20  C   UNL     1      -4.726   4.474  -4.725  0.00  0.00    +0.239 C 
ATOM     21  O   UNL     1      -5.431   5.377  -4.328  0.00  0.00    -0.273 OA
ATOM     22  N   UNL     1      -5.121   3.719  -5.769  0.00  0.00    -0.311 N 
ATOM     23  H   UNL     1      -4.592   2.953  -6.041  0.00  0.00    +0.149 HD
BRANCH  22  24
ATOM     24  C   UNL     1      -6.349   4.056  -6.493  0.00  0.00    +0.073 C 
ATOM     25  C   UNL     1      -7.540   3.365  -5.828  0.00  0.00    +0.022 C 
ATOM     26  C   UNL     1      -8.840   4.010  -6.312  0.00  0.00    +0.002 C 
ATOM     27  C   UNL     1      -8.687   5.532  -6.311  0.00  0.00    +0.000 C 
ATOM     28  C   UNL     1      -8.718   6.048  -7.751  0.00  0.00    +0.000 C 
ATOM     29  C   UNL     1      -7.378   5.752  -8.427  0.00  0.00    +0.000 C 
ATOM     30  C   UNL     1      -7.307   4.268  -8.791  0.00  0.00    +0.002 C 
ATOM     31  C   UNL     1      -6.231   3.585  -7.944  0.00  0.00    +0.022 C 
ENDBRANCH  22  24
ENDBRANCH   7  20
BRANCH   1  33
ATOM     32  C   UNL     1       0.236  -0.497  -0.795  0.00  0.00    +0.014 C 
ATOM     33  C   UNL     1       0.138   0.999  -0.488  0.00  0.00    +0.033 C 
ATOM     34  C   UNL     1       1.544   1.592  -0.388  0.00  0.00    +0.014 C 
ENDBRANCH   1  33
TORSDOF 5
