REMARK  Name = ZINC18324525
REMARK  4 active torsions:
REMARK  status: ('A' for Active; 'I' for Inactive)
REMARK    1  A    between atoms: C_1  and  N_2
REMARK    2  A    between atoms: C_6  and  N_10
REMARK    3  A    between atoms: C_13  and  C_16
REMARK    4  A    between atoms: C_13  and  N_19
REMARK                            x       y       z     vdW  Elec       q    Type
REMARK                         _______ _______ _______ _____ _____    ______ ____
ROOT
ATOM      1  N   UNL     1      -1.226  -2.473   1.275  0.00  0.00    -0.291 NA
ATOM      2  C   UNL     1      -2.526  -1.936   0.854  0.00  0.00    +0.084 C 
ATOM      3  C   UNL     1      -3.631  -2.933   1.210  0.00  0.00    +0.013 C 
ATOM      4  C   UNL     1      -3.624  -3.178   2.721  0.00  0.00    +0.015 C 
ATOM      5  C   UNL     1      -2.244  -3.692   3.140  0.00  0.00    +0.013 C 
ATOM      6  C   UNL     1      -1.179  -2.672   2.729  0.00  0.00    +0.084 C 
ENDROOT
BRANCH   1  12
ATOM      7  C   UNL     1      -0.675   2.055   0.291  0.00  0.00    +0.141 C 
ATOM      8  N   UNL     1      -0.453   0.610   0.197  0.00  0.00    -0.244 N 
ATOM      9  C   UNL     1      -0.331  -0.030  -0.972  0.00  0.00    +0.224 C 
ATOM     10  O   UNL     1      -0.386   0.489  -2.066  0.00  0.00    -0.275 OA
ATOM     11  C   UNL     1      -0.111  -1.504  -0.713  0.00  0.00    +0.124 C 
ATOM     12  C   UNL     1      -0.128  -1.607   0.826  0.00  0.00    +0.152 C 
ATOM     13  C   UNL     1      -0.350  -0.178   1.274  0.00  0.00    +0.239 C 
ATOM     14  O   UNL     1      -0.425   0.193   2.426  0.00  0.00    -0.273 OA
ENDBRANCH   1  12
BRANCH   4  15
ATOM     15  N   UNL     1      -4.644  -4.179   3.061  0.00  0.00    +0.389 N 
ATOM     16  C   UNL     1      -5.965  -3.689   2.649  0.00  0.00    -0.077 C 
ATOM     17  C   UNL     1      -7.021  -4.761   2.927  0.00  0.00    -0.019 C 
ATOM     18  C   UNL     1      -7.037  -5.078   4.425  0.00  0.00    -0.004 C 
ATOM     19  C   UNL     1      -5.635  -5.517   4.859  0.00  0.00    -0.019 C 
ATOM     20  C   UNL     1      -4.631  -4.417   4.509  0.00  0.00    -0.077 C 
ATOM     21  H   UNL     1      -4.442  -5.042   2.577  0.00  0.00    -0.080 HD
ENDBRANCH   4  15
BRANCH   4  22
ATOM     22  C   UNL     1      -3.922  -1.889   3.442  0.00  0.00    +0.200 C 
ATOM     23  O   UNL     1      -4.368  -0.941   2.830  0.00  0.00    -0.278 OA
ATOM     24  N   UNL     1      -3.693  -1.788   4.766  0.00  0.00    -0.330 N 
ATOM     25  H   UNL     1      -3.265  -2.518   5.241  0.00  0.00    +0.145 HD
ATOM     26  H   UNL     1      -3.956  -0.987   5.244  0.00  0.00    +0.145 HD
ENDBRANCH   4  22
TORSDOF 3
