REMARK  Name = ZINC20618461
REMARK  3 active torsions:
REMARK  status: ('A' for Active; 'I' for Inactive)
REMARK    1  A    between atoms: C_1  and  C_2
REMARK    2  A    between atoms: C_2  and  C_3
REMARK    3  A    between atoms: C_3  and  C_4
REMARK                            x       y       z     vdW  Elec       q    Type
REMARK                         _______ _______ _______ _____ _____    ______ ____
ROOT
ATOM      1  C   UNL     1       0.739  -2.027  -1.265  0.00  0.00    +0.159 C 
ATOM      2  N   UNL     1      -0.626  -2.535  -1.383  0.00  0.00    -0.326 N 
ATOM      3  C   UNL     1      -1.389  -2.417  -2.541  0.00  0.00    +0.055 A 
ATOM      4  C   UNL     1      -2.778  -2.497  -2.441  0.00  0.00    +0.025 A 
ATOM      5  C   UNL     1      -3.561  -2.400  -3.572  0.00  0.00    +0.002 A 
ATOM      6  C   UNL     1      -2.976  -2.224  -4.813  0.00  0.00    +0.002 A 
ATOM      7  C   UNL     1      -1.600  -2.137  -4.919  0.00  0.00    +0.030 A 
ATOM      8  C   UNL     1      -0.814  -2.225  -3.789  0.00  0.00    +0.126 A 
ATOM      9  S   UNL     1       0.942  -2.073  -3.925  0.00  0.00    +0.062 S 
ATOM     10  O   UNL     1       1.228  -0.692  -4.098  0.00  0.00    -0.153 OA
ATOM     11  O   UNL     1       1.375  -3.069  -4.841  0.00  0.00    -0.153 OA
ATOM     12  N   UNL     1       1.526  -2.506  -2.420  0.00  0.00    -0.170 NA
ATOM     13  H   UNL     1      -1.020  -2.978  -0.615  0.00  0.00    +0.148 HD
ATOM     14  H   UNL     1       2.329  -3.039  -2.310  0.00  0.00    +0.150 HD
ENDROOT
BRANCH   1  15
ATOM     15  C   UNL     1       0.718  -0.497  -1.257  0.00  0.00    +0.039 C 
BRANCH  15  17
ATOM     16  C   UNL     1      -0.019   1.526   0.010  0.00  0.00    +0.004 C 
ATOM     17  C   UNL     1       0.002  -0.004   0.002  0.00  0.00    -0.000 C 
ENDBRANCH  15  17
ENDBRANCH   1  15
TORSDOF 2
