REMARK  Name = ZINC16095578
REMARK  8 active torsions:
REMARK  status: ('A' for Active; 'I' for Inactive)
REMARK    1  A    between atoms: C_1  and  C_2
REMARK    2  A    between atoms: C_2  and  C_3
REMARK    3  A    between atoms: C_3  and  N_4
REMARK    4  A    between atoms: C_13  and  C_15
REMARK    5  A    between atoms: N_17  and  N_18
REMARK    6  A    between atoms: N_18  and  S_19
REMARK    7  A    between atoms: S_19  and  C_22
REMARK    8  A    between atoms: C_25  and  C_28
REMARK                            x       y       z     vdW  Elec       q    Type
REMARK                         _______ _______ _______ _____ _____    ______ ____
ROOT
ATOM      1  C   UNL     1       4.460   1.944  -3.129  0.00  0.00    +0.279 C 
ATOM      2  O   UNL     1       5.346   1.121  -3.007  0.00  0.00    -0.267 OA
ATOM      3  N   UNL     1       3.305   1.796  -2.450  0.00  0.00    -0.226 N 
ATOM      4  H   UNL     1       2.598   2.453  -2.547  0.00  0.00    +0.171 HD
ENDROOT
BRANCH   1  14
ATOM      5  N   UNL     1       3.784   5.034  -4.904  0.00  0.00    -0.228 N 
ATOM      6  C   UNL     1       4.871   5.328  -5.646  0.00  0.00    +0.275 A 
ATOM      7  O   UNL     1       4.898   6.326  -6.343  0.00  0.00    -0.266 OA
ATOM      8  C   UNL     1       6.022   4.415  -5.596  0.00  0.00    +0.050 A 
ATOM      9  C   UNL     1       7.189   4.629  -6.323  0.00  0.00    +0.014 A 
ATOM     10  C   UNL     1       8.224   3.724  -6.220  0.00  0.00    +0.001 A 
ATOM     11  C   UNL     1       8.112   2.607  -5.402  0.00  0.00    +0.001 A 
ATOM     12  C   UNL     1       6.964   2.378  -4.673  0.00  0.00    +0.011 A 
ATOM     13  C   UNL     1       5.910   3.281  -4.758  0.00  0.00    +0.020 A 
ATOM     14  C   UNL     1       4.649   3.107  -4.018  0.00  0.00    +0.155 A 
ATOM     15  N   UNL     1       3.699   4.000  -4.155  0.00  0.00    -0.163 NA
BRANCH   5  16
ATOM     16  C   UNL     1       2.640   5.947  -4.957  0.00  0.00    +0.147 C 
BRANCH  16  18
ATOM     17  C   UNL     1       0.498   6.467  -6.132  0.00  0.00    +0.005 C 
ATOM     18  C   UNL     1       1.692   5.513  -6.077  0.00  0.00    +0.020 C 
ENDBRANCH  16  18
ENDBRANCH   5  16
ENDBRANCH   1  14
BRANCH   3  19
ATOM     19  N   UNL     1       3.125   0.693  -1.606  0.00  0.00    -0.108 NA
ATOM     20  H   UNL     1       3.242  -0.206  -1.951  0.00  0.00    +0.172 HD
BRANCH  19  21
ATOM     21  S   UNL     1       2.713   0.923  -0.019  0.00  0.00    +0.074 S 
ATOM     22  O   UNL     1       3.680   1.809   0.527  0.00  0.00    -0.152 OA
ATOM     23  O   UNL     1       2.464  -0.365   0.527  0.00  0.00    -0.152 OA
BRANCH  21  24
ATOM     24  C   UNL     1       1.175   1.783   0.000  0.00  0.00    +0.107 A 
ATOM     25  C   UNL     1      -0.013   1.076   0.008  0.00  0.00    +0.029 A 
ATOM     26  C   UNL     1      -1.219   1.751   0.017  0.00  0.00    +0.006 A 
ATOM     27  C   UNL     1      -1.238   3.133   0.030  0.00  0.00    -0.044 A 
ATOM     28  C   UNL     1      -0.050   3.840   0.022  0.00  0.00    +0.006 A 
ATOM     29  C   UNL     1       1.156   3.165   0.008  0.00  0.00    +0.029 A 
BRANCH  27  30
ATOM     30  C   UNL     1      -2.553   3.869   0.045  0.00  0.00    +0.019 C 
ATOM     31  C   UNL     1      -3.338   3.482   1.300  0.00  0.00    +0.008 C 
ATOM     32  C   UNL     1      -4.674   4.229   1.316  0.00  0.00    +0.001 C 
ATOM     33  C   UNL     1      -5.482   3.854   0.072  0.00  0.00    +0.000 C 
ATOM     34  C   UNL     1      -4.697   4.241  -1.182  0.00  0.00    +0.001 C 
ATOM     35  C   UNL     1      -3.361   3.494  -1.198  0.00  0.00    +0.008 C 
ENDBRANCH  27  30
ENDBRANCH  21  24
ENDBRANCH  19  21
ENDBRANCH   3  19
TORSDOF 7
