REMARK  Name = ZINC21191038
REMARK  5 active torsions:
REMARK  status: ('A' for Active; 'I' for Inactive)
REMARK    1  A    between atoms: C_1  and  C_2
REMARK    2  A    between atoms: C_5  and  C_11
REMARK    3  A    between atoms: C_7  and  N_8
REMARK    4  A    between atoms: C_12  and  C_13
REMARK    5  A    between atoms: C_18  and  C_23
REMARK                            x       y       z     vdW  Elec       q    Type
REMARK                         _______ _______ _______ _____ _____    ______ ____
ROOT
ATOM      1  C   UNL     1       3.134   0.483   2.533  0.00  0.00    +0.154 A 
ATOM      2  N   UNL     1       1.807   0.172   2.449  0.00  0.00    -0.190 NA
ATOM      3  C   UNL     1       0.906   0.757   3.261  0.00  0.00    +0.282 A 
ATOM      4  O   UNL     1      -0.277   0.478   3.184  0.00  0.00    -0.265 OA
ATOM      5  C   UNL     1       1.389   1.747   4.251  0.00  0.00    +0.080 A 
ATOM      6  C   UNL     1       0.651   2.482   5.188  0.00  0.00    +0.010 A 
ATOM      7  C   UNL     1       1.406   3.400   6.054  0.00  0.00    +0.057 A 
ATOM      8  S   UNL     1       3.041   3.198   5.519  0.00  0.00    -0.078 S 
ATOM      9  C   UNL     1       2.786   1.989   4.246  0.00  0.00    +0.092 A 
ATOM     10  N   UNL     1       3.588   1.369   3.415  0.00  0.00    -0.333 N 
ATOM     11  H   UNL     1       4.663   1.600   3.460  0.00  0.00    +0.168 HD
ENDROOT
BRANCH   6  12
ATOM     12  C   UNL     1      -0.743   2.346   5.298  0.00  0.00    +0.021 A 
ATOM     13  C   UNL     1      -1.526   2.117   6.452  0.00  0.00    +0.016 A 
ATOM     14  C   UNL     1      -2.869   2.030   6.275  0.00  0.00    +0.008 A 
ATOM     15  C   UNL     1      -3.389   2.157   4.996  0.00  0.00    +0.046 A 
ATOM     16  S   UNL     1      -1.982   2.412   4.016  0.00  0.00    -0.097 S 
ENDBRANCH   6  12
BRANCH   1  18
ATOM     17  C   UNL     1       5.373   0.144   1.733  0.00  0.00    +0.031 C 
ATOM     18  C   UNL     1       4.048  -0.153   1.663  0.00  0.00    +0.084 C 
ATOM     19 CL   UNL     1       3.478  -1.314   0.505  0.00  0.00    -0.080 Cl
BRANCH  17  24
ATOM     20  C   UNL     1       9.144  -2.770  -1.476  0.00  0.00    +0.046 C 
ATOM     21  C   UNL     1       8.155  -2.006  -0.634  0.00  0.00    -0.020 A 
ATOM     22  C   UNL     1       7.046  -2.654  -0.115  0.00  0.00    +0.006 A 
ATOM     23  C   UNL     1       6.140  -1.965   0.660  0.00  0.00    +0.008 A 
ATOM     24  C   UNL     1       6.336  -0.600   0.913  0.00  0.00    -0.021 A 
ATOM     25  C   UNL     1       7.460   0.048   0.384  0.00  0.00    +0.041 A 
ATOM     26  C   UNL     1       8.360  -0.659  -0.384  0.00  0.00    +0.130 A 
BRANCH  26  27
ATOM     27  N   UNL     1       9.548   0.023  -0.945  0.00  0.00    +0.057 N 
ATOM     28  O   UNL     1       9.441   1.246  -1.422  0.00  0.00    -0.126 OA
ATOM     29  O   UNL     1      10.712  -0.593  -0.966  0.00  0.00    -0.126 OA
ENDBRANCH  26  27
ENDBRANCH  17  24
ENDBRANCH   1  18
TORSDOF 4
