REMARK  Name = ZINC14746838
REMARK  10 active torsions:
REMARK  status: ('A' for Active; 'I' for Inactive)
REMARK    1  A    between atoms: C_1  and  C_2
REMARK    2  A    between atoms: C_2  and  C_3
REMARK    3  A    between atoms: C_2  and  C_4
REMARK    4  A    between atoms: C_4  and  N_5
REMARK    5  A    between atoms: C_8  and  C_10
REMARK    6  A    between atoms: C_19  and  N_65
REMARK    7  A    between atoms: C_23  and  C_24
REMARK    8  A    between atoms: C_23  and  N_65
REMARK    9  A    between atoms: C_24  and  C_25
REMARK   10  A    between atoms: C_25  and  C_26
REMARK                            x       y       z     vdW  Elec       q    Type
REMARK                         _______ _______ _______ _____ _____    ______ ____
ROOT
ATOM      1  N   UNL     1      -2.189   2.604   2.458  0.00  0.00    -0.267 N 
ATOM      2  C   UNL     1      -2.014   2.021   1.261  0.00  0.00    +0.043 A 
ATOM      3  C   UNL     1      -0.798   1.418   1.283  0.00  0.00    +0.004 A 
ATOM      4  C   UNL     1      -0.265   1.671   2.557  0.00  0.00    +0.151 A 
ATOM      5  N   UNL     1      -1.163   2.392   3.207  0.00  0.00    -0.166 NA
ATOM      6  C   UNL     1      -0.207   0.649   0.134  0.00  0.00    +0.023 C 
ATOM      7  C   UNL     1      -0.986   1.007  -1.139  0.00  0.00    -0.067 C 
ATOM      8  C   UNL     1      -2.488   0.878  -0.872  0.00  0.00    -0.009 C 
ATOM      9  C   UNL     1      -2.942   1.997   0.074  0.00  0.00    +0.054 C 
ENDROOT
BRANCH   4  10
ATOM     10  C   UNL     1       1.044   1.219   3.071  0.00  0.00    +0.267 C 
ATOM     11  O   UNL     1       1.826   0.655   2.330  0.00  0.00    -0.268 OA
ATOM     12  N   UNL     1       1.371   1.432   4.361  0.00  0.00    -0.292 N 
ATOM     13  C   UNL     1       0.392   1.986   5.309  0.00  0.00    +0.136 C 
ATOM     14  C   UNL     1       0.367   1.083   6.553  0.00  0.00    +0.179 C 
ATOM     15  O   UNL     1       1.700   0.920   7.041  0.00  0.00    -0.377 OA
ATOM     16  C   UNL     1       2.583   0.267   6.125  0.00  0.00    +0.179 C 
ATOM     17  C   UNL     1       2.720   1.123   4.861  0.00  0.00    +0.136 C 
ENDBRANCH   4  10
BRANCH   7  18
ATOM     18  N   UNL     1      -0.597   0.083  -2.221  0.00  0.00    +0.381 N 
ATOM     19  H   UNL     1      -1.159  -0.774  -2.152  0.00  0.00    -0.086 HD
ATOM     20  H   UNL     1       0.398  -0.151  -2.125  0.00  0.00    -0.086 HD
BRANCH  18  21
ATOM     21  C   UNL     1      -0.825   0.710  -3.536  0.00  0.00    -0.082 C 
BRANCH  21  22
ATOM     22  C   UNL     1      -0.413  -0.270  -4.637  0.00  0.00    -0.014 C 
BRANCH  22  23
ATOM     23  C   UNL     1      -0.646   0.374  -6.005  0.00  0.00    +0.033 C 
BRANCH  23  24
ATOM     24  C   UNL     1      -0.240  -0.592  -7.090  0.00  0.00    -0.045 A 
ATOM     25  C   UNL     1       1.055  -0.600  -7.584  0.00  0.00    +0.023 A 
ATOM     26  C   UNL     1       1.391  -1.502  -8.576  0.00  0.00    +0.111 A 
ATOM     27  N   UNL     1       0.494  -2.341  -9.057  0.00  0.00    -0.263 NA
ATOM     28  C   UNL     1      -0.747  -2.358  -8.613  0.00  0.00    +0.111 A 
ATOM     29  C   UNL     1      -1.155  -1.488  -7.620  0.00  0.00    +0.023 A 
ENDBRANCH  23  24
ENDBRANCH  22  23
ENDBRANCH  21  22
ENDBRANCH  18  21
ENDBRANCH   7  18
BRANCH   1  30
ATOM     30  C   UNL     1      -3.374   3.369   2.854  0.00  0.00    +0.146 C 
BRANCH  30  32
ATOM     31  C   UNL     1      -5.583   3.244   4.015  0.00  0.00    +0.009 C 
ATOM     32  C   UNL     1      -4.400   2.429   3.490  0.00  0.00    +0.004 C 
ATOM     33  C   UNL     1      -4.894   1.430   2.441  0.00  0.00    +0.009 C 
ENDBRANCH  30  32
ENDBRANCH   1  30
TORSDOF 8
