REMARK  Name = ZINC21775234
REMARK  6 active torsions:
REMARK  status: ('A' for Active; 'I' for Inactive)
REMARK    1  A    between atoms: C_1  and  C_2
REMARK    2  A    between atoms: C_10  and  N_19
REMARK    3  A    between atoms: C_11  and  C_13
REMARK    4  A    between atoms: N_15  and  C_16
REMARK    5  A    between atoms: C_16  and  C_17
REMARK    6  A    between atoms: C_16  and  C_18
REMARK                            x       y       z     vdW  Elec       q    Type
REMARK                         _______ _______ _______ _____ _____    ______ ____
ROOT
ATOM      1  C   UNL     1       1.971  -7.965  -0.899  0.00  0.00    +0.007 C 
ATOM      2  C   UNL     1       1.362  -6.571  -1.060  0.00  0.00    -0.011 C 
ATOM      3  C   UNL     1       0.417  -6.288   0.111  0.00  0.00    +0.022 C 
ATOM      4  C   UNL     1      -0.142  -4.869  -0.023  0.00  0.00    +0.107 C 
ATOM      5  N   UNL     1       0.964  -3.904  -0.028  0.00  0.00    -0.310 N 
ATOM      6  C   UNL     1       1.859  -4.127  -1.171  0.00  0.00    +0.107 C 
ATOM      7  C   UNL     1       2.478  -5.523  -1.071  0.00  0.00    +0.022 C 
ATOM      8  C   UNL     1       0.491  -2.610  -0.017  0.00  0.00    +0.163 A 
ATOM      9  N   UNL     1      -0.764  -2.190  -0.003  0.00  0.00    -0.210 NA
ATOM     10  C   UNL     1      -1.061  -0.912   0.013  0.00  0.00    +0.138 A 
ATOM     11  C   UNL     1       0.002  -0.004   0.002  0.00  0.00    +0.116 A 
ATOM     12  S   UNL     1       1.392  -1.127  -0.017  0.00  0.00    -0.046 S 
ENDROOT
BRANCH  11  13
ATOM     13  C   UNL     1      -0.017   1.406   0.010  0.00  0.00    +0.254 C 
ATOM     14  O   UNL     1      -1.081   2.001   0.018  0.00  0.00    -0.270 OA
ATOM     15  N   UNL     1       1.141   2.096   0.002  0.00  0.00    -0.308 N 
ATOM     16  H   UNL     1       2.101   1.559  -0.010  0.00  0.00    +0.149 HD
BRANCH  15  17
ATOM     17  C   UNL     1       1.121   3.560   0.011  0.00  0.00    +0.067 C 
ATOM     18  C   UNL     1       1.002   4.061   1.451  0.00  0.00    +0.027 C 
ATOM     19  C   UNL     1       2.415   4.091  -0.609  0.00  0.00    +0.027 C 
ENDBRANCH  15  17
ENDBRANCH  11  13
BRANCH  10  20
ATOM     20  N   UNL     1      -2.379  -0.478   0.035  0.00  0.00    -0.342 N 
ATOM     21  H   UNL     1      -2.603   0.599   0.048  0.00  0.00    +0.144 HD
ATOM     22  H   UNL     1      -3.199  -1.211   0.040  0.00  0.00    +0.144 HD
ENDBRANCH  10  20
TORSDOF 3
