REMARK  Name = ZINC19941320
REMARK  7 active torsions:
REMARK  status: ('A' for Active; 'I' for Inactive)
REMARK    1  A    between atoms: C_1  and  C_2
REMARK    2  A    between atoms: C_9  and  C_14
REMARK    3  A    between atoms: C_14  and  C_16
REMARK    4  A    between atoms: C_14  and  N_29
REMARK    5  A    between atoms: N_20  and  C_21
REMARK    6  A    between atoms: C_21  and  C_22
REMARK    7  A    between atoms: N_32  and  C_35
REMARK                            x       y       z     vdW  Elec       q    Type
REMARK                         _______ _______ _______ _____ _____    ______ ____
ROOT
ATOM      1  C   UNL     1       2.112  -1.406   0.168  0.00  0.00    +0.162 C 
ENDROOT
BRANCH   1  10
ATOM      2  C   UNL     1      -1.545  -0.838  -6.307  0.00  0.00    +0.044 C 
ATOM      3  C   UNL     1      -0.692  -1.623  -5.344  0.00  0.00    -0.050 A 
ATOM      4  C   UNL     1      -0.294  -2.913  -5.670  0.00  0.00    +0.005 A 
ATOM      5  C   UNL     1       0.485  -3.648  -4.804  0.00  0.00    +0.026 A 
ATOM      6  C   UNL     1       0.880  -3.095  -3.590  0.00  0.00    +0.049 A 
ATOM      7  C   UNL     1       0.475  -1.787  -3.263  0.00  0.00    -0.001 A 
ATOM      8  C   UNL     1      -0.317  -1.059  -4.157  0.00  0.00    +0.013 A 
ATOM      9  C   UNL     1       0.895  -1.213  -1.983  0.00  0.00    +0.021 A 
ATOM     10  C   UNL     1       1.662  -1.966  -1.157  0.00  0.00    +0.042 A 
ATOM     11  C   UNL     1       2.046  -3.271  -1.535  0.00  0.00    +0.254 A 
ATOM     12  O   UNL     1       2.741  -3.928  -0.779  0.00  0.00    -0.268 OA
ATOM     13  N   UNL     1       1.661  -3.808  -2.706  0.00  0.00    -0.322 N 
ATOM     14  H   UNL     1       1.978  -4.832  -2.954  0.00  0.00    +0.169 HD
ENDBRANCH   1  10
BRANCH   1  15
ATOM     15  N   UNL     1       1.617  -2.261   1.255  0.00  0.00    -0.292 NA
ATOM     16  C   UNL     1       0.153  -2.382   1.204  0.00  0.00    +0.067 C 
ATOM     17  C   UNL     1      -0.315  -3.342   2.301  0.00  0.00    -0.063 C 
ATOM     18  N   UNL     1       0.123  -2.837   3.610  0.00  0.00    +0.383 N 
ATOM     19  C   UNL     1       1.587  -2.715   3.660  0.00  0.00    -0.063 C 
ATOM     20  C   UNL     1       2.055  -1.756   2.564  0.00  0.00    +0.067 C 
ATOM     21  H   UNL     1      -0.306  -1.833   3.748  0.00  0.00    -0.081 HD
BRANCH  18  22
ATOM     22  C   UNL     1      -0.372  -3.692   4.697  0.00  0.00    -0.068 C 
ATOM     23  C   UNL     1       0.142  -5.119   4.497  0.00  0.00    -0.015 C 
ATOM     24  C   UNL     1      -0.374  -6.010   5.629  0.00  0.00    -0.002 C 
ATOM     25  C   UNL     1      -1.904  -6.012   5.619  0.00  0.00    -0.000 C 
ATOM     26  C   UNL     1      -2.418  -4.585   5.819  0.00  0.00    -0.002 C 
ATOM     27  C   UNL     1      -1.902  -3.694   4.687  0.00  0.00    -0.015 C 
ENDBRANCH  18  22
ENDBRANCH   1  15
BRANCH   1  28
ATOM     28  C   UNL     1       1.564  -0.012   0.336  0.00  0.00    +0.173 A 
ATOM     29  N   UNL     1       0.311   0.318   0.532  0.00  0.00    -0.111 NA
ATOM     30  N   UNL     1       0.247   1.601   0.626  0.00  0.00    -0.023 NA
ATOM     31  N   UNL     1       1.427   2.099   0.494  0.00  0.00    -0.044 NA
ATOM     32  N   UNL     1       2.267   1.136   0.314  0.00  0.00    -0.223 N 
BRANCH  32  33
ATOM     33  C   UNL     1       3.713   1.267   0.122  0.00  0.00    +0.182 C 
BRANCH  33  34
ATOM     34  C   UNL     1       4.003   1.548  -1.330  0.00  0.00    -0.026 A 
ATOM     35  C   UNL     1       4.134   0.501  -2.224  0.00  0.00    +0.008 A 
ATOM     36  C   UNL     1       4.395   0.758  -3.556  0.00  0.00    +0.038 A 
ATOM     37  C   UNL     1       4.537   2.064  -3.994  0.00  0.00    +0.123 A 
ATOM     38  C   UNL     1       4.411   3.111  -3.098  0.00  0.00    +0.038 A 
ATOM     39  C   UNL     1       4.144   2.853  -1.766  0.00  0.00    +0.008 A 
ATOM     40  F   UNL     1       4.797   2.316  -5.296  0.00  0.00    -0.205 F 
ENDBRANCH  33  34
ENDBRANCH  32  33
ENDBRANCH   1  28
TORSDOF 6
