REMARK  Name = ZINC60523424
REMARK  4 active torsions:
REMARK  status: ('A' for Active; 'I' for Inactive)
REMARK    1  A    between atoms: C_1  and  C_2
REMARK    2  A    between atoms: C_5  and  C_8
REMARK    3  A    between atoms: C_10  and  C_13
REMARK    4  A    between atoms: C_19  and  C_24
REMARK                            x       y       z     vdW  Elec       q    Type
REMARK                         _______ _______ _______ _____ _____    ______ ____
ROOT
ATOM      1  C   UNL     1       0.102  -7.334   1.986  0.00  0.00    +0.209 C 
ATOM      2  N   UNL     1       0.768  -6.680   3.119  0.00  0.00    -0.320 N 
ATOM      3  C   UNL     1       2.155  -6.580   3.106  0.00  0.00    +0.041 A 
ATOM      4  C   UNL     1       2.820  -5.537   3.728  0.00  0.00    +0.024 A 
ATOM      5  C   UNL     1       4.200  -5.482   3.682  0.00  0.00    +0.002 A 
ATOM      6  C   UNL     1       4.922  -6.462   3.019  0.00  0.00    +0.004 A 
ATOM      7  C   UNL     1       4.275  -7.508   2.395  0.00  0.00    -0.037 A 
ATOM      8  C   UNL     1       2.885  -7.577   2.436  0.00  0.00    +0.060 A 
ATOM      9  C   UNL     1       2.143  -8.677   1.793  0.00  0.00    +0.248 C 
ATOM     10  O   UNL     1       2.726  -9.678   1.424  0.00  0.00    -0.270 OA
ATOM     11  N   UNL     1       0.810  -8.561   1.621  0.00  0.00    -0.288 N 
ATOM     12  C   UNL     1       5.067  -8.569   1.675  0.00  0.00    +0.044 C 
ATOM     13  H   UNL     1       0.252  -6.327   3.860  0.00  0.00    +0.148 HD
ATOM     14  H   UNL     1       0.311  -9.305   1.248  0.00  0.00    +0.151 HD
ENDROOT
BRANCH   1  17
ATOM     15  C   UNL     1       0.061  -4.251  -0.021  0.00  0.00    +0.109 A 
ATOM     16  N   UNL     1       0.072  -5.098   0.998  0.00  0.00    -0.240 NA
ATOM     17  C   UNL     1       0.089  -6.396   0.806  0.00  0.00    +0.087 A 
ATOM     18  C   UNL     1       0.097  -6.894  -0.459  0.00  0.00    +0.074 A 
ATOM     19  S   UNL     1       0.068  -5.379  -1.409  0.00  0.00    -0.075 S 
BRANCH  15  24
ATOM     20  C   UNL     1      -0.018   1.503   0.010  0.00  0.00    +0.044 C 
ATOM     21  C   UNL     1       0.002  -0.004   0.002  0.00  0.00    -0.050 A 
ATOM     22  C   UNL     1       0.006  -0.686  -1.202  0.00  0.00    +0.004 A 
ATOM     23  C   UNL     1       0.025  -2.066  -1.216  0.00  0.00    +0.011 A 
ATOM     24  C   UNL     1       0.041  -2.773  -0.013  0.00  0.00    +0.007 A 
ATOM     25  C   UNL     1       0.037  -2.079   1.197  0.00  0.00    +0.011 A 
ATOM     26  C   UNL     1       0.023  -0.699   1.198  0.00  0.00    +0.004 A 
ENDBRANCH  15  24
ENDBRANCH   1  17
TORSDOF 2
