REMARK  Name = ZINC04086514
REMARK  2 active torsions:
REMARK  status: ('A' for Active; 'I' for Inactive)
REMARK    1  A    between atoms: C_8  and  C_24
REMARK    2  A    between atoms: C_14  and  C_19
REMARK                            x       y       z     vdW  Elec       q    Type
REMARK                         _______ _______ _______ _____ _____    ______ ____
ROOT
ATOM      1  C   UNL     1       3.241   2.350   1.028  0.00  0.00    +0.002 A 
ATOM      2  C   UNL     1       3.514   3.171  -0.051  0.00  0.00    +0.002 A 
ATOM      3  C   UNL     1       2.637   3.231  -1.121  0.00  0.00    +0.025 A 
ATOM      4  C   UNL     1       1.487   2.461  -1.100  0.00  0.00    +0.052 A 
ATOM      5  C   UNL     1       1.193   1.669  -0.000  0.00  0.00    +0.049 A 
ATOM      6  C   UNL     1       2.080   1.597   1.061  0.00  0.00    +0.025 A 
ATOM      7  N   UNL     1      -0.011   0.966   0.007  0.00  0.00    -0.331 N 
ATOM      8  C   UNL     1      -1.280   1.661   0.017  0.00  0.00    +0.143 C 
ATOM      9  C   UNL     1      -1.561   2.483  -1.212  0.00  0.00    +0.037 C 
ATOM     10  C   UNL     1      -0.674   2.786  -2.176  0.00  0.00    +0.017 C 
ATOM     11  N   UNL     1       0.623   2.387  -2.186  0.00  0.00    -0.316 N 
ATOM     12  C   UNL     1      -1.095   3.619  -3.375  0.00  0.00    +0.060 C 
ATOM     13  C   UNL     1      -2.174   4.619  -2.962  0.00  0.00    +0.039 C 
ATOM     14  C   UNL     1      -3.367   3.821  -2.423  0.00  0.00    +0.088 C 
ATOM     15  C   UNL     1      -2.893   2.954  -1.296  0.00  0.00    +0.163 C 
ATOM     16  O   UNL     1      -3.680   2.644  -0.423  0.00  0.00    -0.292 OA
ATOM     17  H   UNL     1       0.002  -0.004   0.002  0.00  0.00    +0.147 HD
ATOM     18  H   UNL     1       0.973   2.023  -3.014  0.00  0.00    +0.152 HD
ENDROOT
BRANCH  13  19
ATOM     19  C   UNL     1      -2.601   5.432  -4.157  0.00  0.00    -0.006 A 
ATOM     20  C   UNL     1      -2.570   6.776  -4.330  0.00  0.00    +0.011 A 
ATOM     21  C   UNL     1      -3.017   7.309  -5.524  0.00  0.00    +0.008 A 
ATOM     22  C   UNL     1      -3.474   6.471  -6.487  0.00  0.00    +0.045 A 
ATOM     23  S   UNL     1      -3.272   4.875  -5.715  0.00  0.00    -0.101 S 
ENDBRANCH  13  19
BRANCH   8  24
ATOM     24  C   UNL     1      -1.314   2.576   1.215  0.00  0.00    +0.014 A 
ATOM     25  C   UNL     1      -2.345   2.846   2.053  0.00  0.00    +0.013 A 
ATOM     26  C   UNL     1      -2.143   3.725   3.101  0.00  0.00    +0.008 A 
ATOM     27  C   UNL     1      -0.925   4.300   3.252  0.00  0.00    +0.045 A 
ATOM     28  S   UNL     1      -0.011   3.590   1.892  0.00  0.00    -0.099 S 
ENDBRANCH   8  24
TORSDOF 2
