REMARK  Name = ZINC61888197
REMARK  5 active torsions:
REMARK  status: ('A' for Active; 'I' for Inactive)
REMARK    1  A    between atoms: C_5  and  S_7
REMARK    2  A    between atoms: S_7  and  N_10
REMARK    3  A    between atoms: N_10  and  C_11
REMARK    4  A    between atoms: C_16  and  C_18
REMARK    5  A    between atoms: N_19  and  O_20
REMARK                            x       y       z     vdW  Elec       q    Type
REMARK                         _______ _______ _______ _____ _____    ______ ____
ROOT
ATOM      1  N   UNL     1       1.151  -2.831   1.534  0.00  0.00    -0.186 NA
ATOM      2  H   UNL     1       1.946  -3.305   1.825  0.00  0.00    +0.148 HD
ENDROOT
BRANCH   1   3
ATOM      3  C   UNL     1       0.042  -2.618   2.466  0.00  0.00    +0.087 C 
ATOM      4  C   UNL     1       0.322  -1.385   3.345  0.00  0.00    +0.021 C 
ATOM      5  C   UNL     1       0.357  -1.883   4.804  0.00  0.00    +0.002 C 
ATOM      6  C   UNL     1      -0.477  -3.188   4.780  0.00  0.00    +0.013 C 
ATOM      7  C   UNL     1      -0.084  -3.822   3.422  0.00  0.00    +0.074 C 
BRANCH   7   8
ATOM      8  C   UNL     1      -1.161  -4.763   2.946  0.00  0.00    +0.136 C 
ATOM      9  N   UNL     1      -1.012  -6.038   3.086  0.00  0.00    -0.076 NA
ATOM     10  N   UNL     1      -2.303  -4.262   2.362  0.00  0.00    -0.344 N 
ATOM     11  H   UNL     1      -2.415  -3.304   2.257  0.00  0.00    +0.144 HD
ATOM     12  H   UNL     1      -2.996  -4.868   2.056  0.00  0.00    +0.144 HD
BRANCH   9  13
ATOM     13  O   UNL     1       0.109  -6.548   3.785  0.00  0.00    -0.408 OA
ATOM     14  H   UNL     1       0.134  -7.513   3.838  0.00  0.00    +0.328 HD
ENDBRANCH   9  13
ENDBRANCH   7   8
ENDBRANCH   1   3
BRANCH   1  15
ATOM     15  S   UNL     1       1.049  -2.263  -0.019  0.00  0.00    +0.059 S 
ATOM     16  O   UNL     1      -0.212  -2.683  -0.522  0.00  0.00    -0.153 OA
ATOM     17  O   UNL     1       2.274  -2.599  -0.656  0.00  0.00    -0.153 OA
BRANCH  15  22
ATOM     18  C   UNL     1      -0.266   1.525   0.243  0.00  0.00    +0.005 A 
ATOM     19  C   UNL     1       0.906   2.257   0.214  0.00  0.00    +0.038 A 
ATOM     20  C   UNL     1       2.125   1.607   0.115  0.00  0.00    +0.125 A 
ATOM     21  C   UNL     1       2.168   0.225   0.044  0.00  0.00    +0.066 A 
ATOM     22  C   UNL     1       0.995  -0.505   0.072  0.00  0.00    +0.108 A 
ATOM     23  C   UNL     1      -0.222   0.145   0.172  0.00  0.00    +0.029 A 
ATOM     24  F   UNL     1       3.271   2.322   0.087  0.00  0.00    -0.205 F 
ENDBRANCH  15  22
ENDBRANCH   1  15
TORSDOF 5
