REMARK  Name = ZINC44713736
REMARK  9 active torsions:
REMARK  status: ('A' for Active; 'I' for Inactive)
REMARK    1  A    between atoms: C_1  and  C_2
REMARK    2  A    between atoms: C_3  and  C_9
REMARK    3  A    between atoms: C_4  and  C_8
REMARK    4  A    between atoms: C_9  and  C_11
REMARK    5  A    between atoms: C_9  and  N_12
REMARK    6  A    between atoms: C_13  and  C_15
REMARK    7  A    between atoms: C_26  and  C_28
REMARK    8  A    between atoms: C_31  and  O_34
REMARK    9  A    between atoms: O_34  and  C_35
REMARK                            x       y       z     vdW  Elec       q    Type
REMARK                         _______ _______ _______ _____ _____    ______ ____
ROOT
ATOM      1  C   UNL     1       2.946  -1.860  -5.370  0.00  0.00    +0.100 C 
ATOM      2  C   UNL     1       2.036  -3.047  -5.756  0.00  0.00    +0.121 C 
ATOM      3  N   UNL     1       1.521  -2.702  -7.102  0.00  0.00    -0.296 N 
ATOM      4  C   UNL     1       2.680  -2.087  -7.793  0.00  0.00    +0.115 C 
ATOM      5  C   UNL     1       3.369  -1.235  -6.710  0.00  0.00    -0.004 C 
ATOM      6  C   UNL     1       2.890   0.211  -6.793  0.00  0.00    -0.010 C 
ATOM      7  C   UNL     1       3.371   0.829  -8.109  0.00  0.00    -0.082 C 
ATOM      8  N   UNL     1       4.836   0.774  -8.170  0.00  0.00    +0.379 N 
ATOM      9  C   UNL     1       5.285  -0.624  -8.183  0.00  0.00    -0.082 C 
ATOM     10  C   UNL     1       4.885  -1.302  -6.870  0.00  0.00    -0.010 C 
ATOM     11  C   UNL     1       0.280  -2.902  -7.588  0.00  0.00    +0.247 C 
ATOM     12  O   UNL     1      -0.602  -3.306  -6.855  0.00  0.00    -0.270 OA
ATOM     13  H   UNL     1       5.154   1.236  -9.009  0.00  0.00    -0.086 HD
ATOM     14  H   UNL     1       5.223   1.243  -7.365  0.00  0.00    -0.086 HD
ENDROOT
BRANCH  11  15
ATOM     15  C   UNL     1      -0.008  -2.632  -9.010  0.00  0.00    +0.037 A 
ATOM     16  C   UNL     1       1.032  -2.600  -9.942  0.00  0.00    +0.016 A 
ATOM     17  C   UNL     1       0.759  -2.347 -11.268  0.00  0.00    +0.047 A 
ATOM     18  C   UNL     1      -0.549  -2.124 -11.680  0.00  0.00    +0.130 A 
ATOM     19  C   UNL     1      -1.587  -2.155 -10.756  0.00  0.00    +0.047 A 
ATOM     20  C   UNL     1      -1.323  -2.413  -9.429  0.00  0.00    +0.016 A 
BRANCH  18  21
ATOM     21  O   UNL     1      -0.814  -1.875 -12.987  0.00  0.00    -0.406 OA
BRANCH  21  22
ATOM     22  C   UNL     1      -2.181  -1.655 -13.341  0.00  0.00    +0.575 C 
ATOM     23  F   UNL     1      -2.672  -0.548 -12.641  0.00  0.00    -0.133 F 
ATOM     24  F   UNL     1      -2.273  -1.415 -14.716  0.00  0.00    -0.133 F 
ATOM     25  F   UNL     1      -2.936  -2.786 -13.014  0.00  0.00    -0.133 F 
ENDBRANCH  21  22
ENDBRANCH  18  21
ENDBRANCH  11  15
BRANCH   1  27
ATOM     26  N   UNL     1       2.841  -0.025  -3.714  0.00  0.00    -0.308 N 
ATOM     27  C   UNL     1       2.181  -0.860  -4.542  0.00  0.00    +0.219 C 
ATOM     28  O   UNL     1       0.972  -0.805  -4.622  0.00  0.00    -0.275 OA
ATOM     29  H   UNL     1       3.808  -0.069  -3.651  0.00  0.00    +0.149 HD
BRANCH  26  30
ATOM     30  C   UNL     1       2.097   0.947  -2.910  0.00  0.00    +0.104 C 
ATOM     31  C   UNL     1       1.618   0.281  -1.619  0.00  0.00    +0.033 C 
BRANCH  30  34
ATOM     32  C   UNL     1       1.333   3.975  -3.090  0.00  0.00    +0.065 C 
ATOM     33  C   UNL     1       2.663   3.420  -2.650  0.00  0.00    +0.038 A 
ATOM     34  C   UNL     1       2.994   2.110  -2.572  0.00  0.00    +0.015 A 
ATOM     35  C   UNL     1       4.316   2.026  -2.122  0.00  0.00    +0.065 A 
ATOM     36  N   UNL     1       4.762   3.242  -1.936  0.00  0.00    -0.179 NA
ATOM     37  N   UNL     1       3.739   4.139  -2.268  0.00  0.00    -0.281 N 
ATOM     38  H   UNL     1       3.793   5.107  -2.228  0.00  0.00    +0.189 HD
ATOM     39  C   UNL     1       5.091   0.755  -1.890  0.00  0.00    +0.068 C 
ENDBRANCH  30  34
ENDBRANCH  26  30
ENDBRANCH   1  27
TORSDOF 6
