REMARK  Name = ZINC19761791
REMARK  8 active torsions:
REMARK  status: ('A' for Active; 'I' for Inactive)
REMARK    1  A    between atoms: C_1  and  C_2
REMARK    2  A    between atoms: C_3  and  C_23
REMARK    3  A    between atoms: C_4  and  C_16
REMARK    4  A    between atoms: C_10  and  C_14
REMARK    5  A    between atoms: C_10  and  C_15
REMARK    6  A    between atoms: C_23  and  O_25
REMARK    7  A    between atoms: O_25  and  C_26
REMARK    8  A    between atoms: C_26  and  C_27
REMARK                            x       y       z     vdW  Elec       q    Type
REMARK                         _______ _______ _______ _____ _____    ______ ____
ROOT
ATOM      1  C   UNL     1      -2.633   6.942   3.641  0.00  0.00    +0.061 C 
ATOM      2  C   UNL     1      -2.317   5.469   3.689  0.00  0.00    +0.016 C 
ATOM      3  C   UNL     1      -2.299   4.828   4.871  0.00  0.00    +0.065 C 
ATOM      4  C   UNL     1      -1.997   3.361   4.957  0.00  0.00    +0.093 C 
ATOM      5  C   UNL     1      -1.332   2.870   3.695  0.00  0.00    +0.024 C 
ATOM      6  C   UNL     1      -1.391   3.595   2.558  0.00  0.00    +0.016 C 
ATOM      7  N   UNL     1      -2.053   4.793   2.531  0.00  0.00    -0.321 N 
ATOM      8  C   UNL     1      -0.730   3.109   1.292  0.00  0.00    +0.058 C 
ATOM      9  C   UNL     1      -0.729   1.579   1.267  0.00  0.00    -0.023 C 
ATOM     10  C   UNL     1       0.009   1.074   2.511  0.00  0.00    +0.086 C 
ATOM     11  C   UNL     1      -0.654   1.639   3.737  0.00  0.00    +0.162 C 
ATOM     12  O   UNL     1      -0.603   1.021   4.782  0.00  0.00    -0.292 OA
ATOM     13  C   UNL     1      -0.013   1.086   0.008  0.00  0.00    +0.011 C 
ATOM     14  C   UNL     1      -2.168   1.060   1.276  0.00  0.00    +0.011 C 
ATOM     15  H   UNL     1      -2.373   5.211   1.565  0.00  0.00    +0.152 HD
ENDROOT
BRANCH   4  16
ATOM     16  C   UNL     1      -3.283   2.604   5.164  0.00  0.00    -0.021 A 
ATOM     17  C   UNL     1      -4.284   2.667   4.213  0.00  0.00    +0.005 A 
ATOM     18  C   UNL     1      -5.462   1.969   4.401  0.00  0.00    +0.000 A 
ATOM     19  C   UNL     1      -5.644   1.215   5.546  0.00  0.00    +0.001 A 
ATOM     20  C   UNL     1      -4.646   1.155   6.500  0.00  0.00    +0.015 A 
ATOM     21  C   UNL     1      -3.465   1.850   6.310  0.00  0.00    +0.022 A 
ATOM     22 BR   UNL     1      -2.099   1.770   7.615  0.00  0.00    -0.050 Br
ENDBRANCH   4  16
BRANCH   3  23
ATOM     23  C   UNL     1      -2.568   5.551   6.056  0.00  0.00    +0.338 C 
ATOM     24  O   UNL     1      -2.814   6.742   6.000  0.00  0.00    -0.245 OA
BRANCH  23  25
ATOM     25  O   UNL     1      -2.553   4.921   7.249  0.00  0.00    -0.459 OA
BRANCH  25  26
ATOM     26  C   UNL     1      -2.834   5.713   8.405  0.00  0.00    +0.264 C 
BRANCH  26  27
ATOM     27  C   UNL     1      -2.771   4.832   9.654  0.00  0.00    +0.156 C 
ATOM     28  C   UNL     1      -3.186   5.652  10.895  0.00  0.00    +0.037 C 
ATOM     29  C   UNL     1      -2.196   5.138  11.976  0.00  0.00    +0.031 C 
ATOM     30  C   UNL     1      -0.933   4.876  11.117  0.00  0.00    +0.160 C 
ATOM     31  O   UNL     1      -1.428   4.380   9.863  0.00  0.00    -0.373 OA
ENDBRANCH  26  27
ENDBRANCH  25  26
ENDBRANCH  23  25
ENDBRANCH   3  23
TORSDOF 5
