REMARK  Name = ZINC35885157
REMARK  6 active torsions:
REMARK  status: ('A' for Active; 'I' for Inactive)
REMARK    1  A    between atoms: C_1  and  C_2
REMARK    2  A    between atoms: C_2  and  C_3
REMARK    3  A    between atoms: N_7  and  C_24
REMARK    4  A    between atoms: C_11  and  N_16
REMARK    5  A    between atoms: C_17  and  C_19
REMARK    6  A    between atoms: C_24  and  C_25
REMARK                            x       y       z     vdW  Elec       q    Type
REMARK                         _______ _______ _______ _____ _____    ______ ____
ROOT
ATOM      1  C   UNL     1       0.759  -0.566   1.271  0.00  0.00    +0.258 C 
ATOM      2  C   UNL     1       0.789  -2.048   1.482  0.00  0.00    +0.257 C 
ATOM      3  O   UNL     1       0.042  -2.429   2.358  0.00  0.00    -0.272 OA
ATOM      4  N   UNL     1       1.440  -2.988   0.927  0.00  0.00    -0.290 N 
ATOM      5  C   UNL     1       2.566  -3.006   0.054  0.00  0.00    +0.147 C 
ATOM      6  C   UNL     1       3.231  -1.711  -0.301  0.00  0.00    +0.013 A 
ATOM      7  C   UNL     1       4.281  -1.871  -1.219  0.00  0.00    +0.032 A 
ATOM      8  C   UNL     1       4.980  -0.787  -1.709  0.00  0.00    +0.034 A 
ATOM      9  C   UNL     1       4.621   0.487  -1.286  0.00  0.00    +0.027 A 
ATOM     10  C   UNL     1       3.609   0.632  -0.375  0.00  0.00    +0.048 A 
ATOM     11  C   UNL     1       2.916  -0.484   0.156  0.00  0.00    +0.126 A 
ATOM     12  O   UNL     1       2.071  -0.056   1.140  0.00  0.00    -0.479 OA
ENDROOT
BRANCH   8  13
ATOM     13  N   UNL     1       6.031  -0.967  -2.616  0.00  0.00    -0.281 N 
ATOM     14  C   UNL     1       7.083  -0.125  -2.604  0.00  0.00    +0.255 C 
ATOM     15  O   UNL     1       7.167   0.732  -1.745  0.00  0.00    -0.269 OA
ATOM     16  H   UNL     1       6.002  -1.698  -3.253  0.00  0.00    +0.155 HD
BRANCH  14  17
ATOM     17  C   UNL     1       8.127  -0.243  -3.626  0.00  0.00    +0.074 A 
ATOM     18  C   UNL     1       9.281   0.510  -3.788  0.00  0.00    +0.021 A 
ATOM     19  C   UNL     1      10.077   0.161  -4.852  0.00  0.00    +0.008 A 
ATOM     20  C   UNL     1       9.696  -0.866  -5.652  0.00  0.00    +0.046 A 
ATOM     21  S   UNL     1       8.249  -1.395  -4.981  0.00  0.00    -0.092 S 
ENDBRANCH  14  17
ENDBRANCH   8  13
BRANCH   1  23
ATOM     22  C   UNL     1      -0.185   1.263  -0.146  0.00  0.00    +0.008 C 
ATOM     23  C   UNL     1      -0.033  -0.253   0.000  0.00  0.00    +0.051 C 
ENDBRANCH   1  23
BRANCH   4  24
ATOM     24  C   UNL     1       0.929  -4.322   1.249  0.00  0.00    +0.143 C 
BRANCH  24  25
ATOM     25  C   UNL     1      -0.114  -4.719   0.237  0.00  0.00    -0.030 A 
ATOM     26  C   UNL     1      -1.443  -4.405   0.455  0.00  0.00    +0.006 A 
ATOM     27  C   UNL     1      -2.401  -4.768  -0.473  0.00  0.00    +0.020 A 
ATOM     28  C   UNL     1      -2.030  -5.446  -1.620  0.00  0.00    +0.041 A 
ATOM     29  C   UNL     1      -0.700  -5.760  -1.838  0.00  0.00    +0.020 A 
ATOM     30  C   UNL     1       0.258  -5.391  -0.912  0.00  0.00    +0.006 A 
ATOM     31 CL   UNL     1      -3.232  -5.903  -2.786  0.00  0.00    -0.084 Cl
ENDBRANCH  24  25
ENDBRANCH   4  24
TORSDOF 5
