REMARK  Name = ZINC61874800
REMARK  6 active torsions:
REMARK  status: ('A' for Active; 'I' for Inactive)
REMARK    1  A    between atoms: C_1  and  C_2
REMARK    2  A    between atoms: C_10  and  N_13
REMARK    3  A    between atoms: N_13  and  S_14
REMARK    4  A    between atoms: S_14  and  C_17
REMARK    5  A    between atoms: C_17  and  C_18
REMARK    6  A    between atoms: C_17  and  C_19
REMARK                            x       y       z     vdW  Elec       q    Type
REMARK                         _______ _______ _______ _____ _____    ______ ____
ROOT
ATOM      1  C   UNL     1       0.323   1.754   0.081  0.00  0.00    +0.028 C 
ATOM      2  C   UNL     1       0.296   0.227  -0.005  0.00  0.00    +0.068 C 
ATOM      3  C   UNL     1       1.096  -0.239  -1.229  0.00  0.00    +0.026 C 
ATOM      4  C   UNL     1       0.998  -1.761  -1.334  0.00  0.00    +0.039 C 
ATOM      5  C   UNL     1       1.362  -2.404  -0.022  0.00  0.00    -0.025 A 
ATOM      6  C   UNL     1       1.756  -3.734  -0.014  0.00  0.00    +0.005 A 
ATOM      7  C   UNL     1       2.094  -4.357   1.171  0.00  0.00    +0.002 A 
ATOM      8  C   UNL     1       2.042  -3.659   2.364  0.00  0.00    +0.026 A 
ATOM      9  C   UNL     1       1.651  -2.329   2.367  0.00  0.00    +0.069 A 
ATOM     10  C   UNL     1       1.312  -1.700   1.168  0.00  0.00    +0.053 A 
ATOM     11  N   UNL     1       0.926  -0.351   1.190  0.00  0.00    -0.340 N 
ATOM     12  H   UNL     1       1.073   0.191   1.980  0.00  0.00    +0.146 HD
ENDROOT
BRANCH   9  13
ATOM     13  N   UNL     1       1.597  -1.618   3.572  0.00  0.00    -0.219 N 
ATOM     14  H   UNL     1       0.904  -0.954   3.712  0.00  0.00    +0.173 HD
BRANCH  13  15
ATOM     15  S   UNL     1       2.716  -1.910   4.757  0.00  0.00    +0.045 S 
ATOM     16  O   UNL     1       2.338  -1.060   5.831  0.00  0.00    -0.155 OA
ATOM     17  O   UNL     1       2.716  -3.322   4.916  0.00  0.00    -0.155 OA
BRANCH  15  18
ATOM     18  C   UNL     1       4.295  -1.361   4.053  0.00  0.00    +0.145 C 
ATOM     19  C   UNL     1       5.431  -1.700   5.020  0.00  0.00    +0.033 C 
ATOM     20  C   UNL     1       4.533  -2.072   2.719  0.00  0.00    +0.033 C 
ENDBRANCH  15  18
ENDBRANCH  13  15
ENDBRANCH   9  13
TORSDOF 3
