REMARK  Name = ZINC11878473
REMARK  9 active torsions:
REMARK  status: ('A' for Active; 'I' for Inactive)
REMARK    1  A    between atoms: C_4  and  C_7
REMARK    2  A    between atoms: C_7  and  C_8
REMARK    3  A    between atoms: C_7  and  C_28
REMARK    4  A    between atoms: C_8  and  N_68
REMARK    5  A    between atoms: C_14  and  C_16
REMARK    6  A    between atoms: C_16  and  C_17
REMARK    7  A    between atoms: N_19  and  C_20
REMARK    8  A    between atoms: C_20  and  C_21
REMARK    9  A    between atoms: C_21  and  O_27
REMARK                            x       y       z     vdW  Elec       q    Type
REMARK                         _______ _______ _______ _____ _____    ______ ____
ROOT
ATOM      1  C   UNL     1       1.284   1.434  -0.372  0.00  0.00    -0.059 C 
ATOM      2  C   UNL     1       1.677   0.728  -1.671  0.00  0.00    +0.085 C 
ATOM      3  N   UNL     1       0.977  -0.549  -1.778  0.00  0.00    -0.318 N 
ATOM      4  C   UNL     1      -0.114  -0.842  -1.062  0.00  0.00    +0.200 C 
ATOM      5  O   UNL     1      -0.652  -1.915  -1.235  0.00  0.00    -0.278 OA
ATOM      6  C   UNL     1      -0.701   0.103  -0.051  0.00  0.00    +0.028 C 
ATOM      7  H   UNL     1       1.318  -1.215  -2.396  0.00  0.00    +0.149 HD
ATOM      8  N   UNL     1      -0.190   1.464  -0.296  0.00  0.00    +0.389 N 
ATOM      9  H   UNL     1      -0.565   1.808  -1.188  0.00  0.00    -0.081 HD
ENDROOT
BRANCH   8  10
ATOM     10  C   UNL     1      -0.624   2.371   0.791  0.00  0.00    -0.065 C 
BRANCH  10  11
ATOM     11  C   UNL     1       0.286   2.209   2.010  0.00  0.00    +0.032 C 
BRANCH  11  15
ATOM     12  C   UNL     1      -0.621   5.242   4.878  0.00  0.00    +0.000 A 
ATOM     13  C   UNL     1       0.652   5.151   4.348  0.00  0.00    +0.000 A 
ATOM     14  C   UNL     1       0.946   4.169   3.420  0.00  0.00    +0.004 A 
ATOM     15  C   UNL     1      -0.034   3.279   3.022  0.00  0.00    -0.042 A 
ATOM     16  C   UNL     1      -1.309   3.373   3.548  0.00  0.00    +0.004 A 
ATOM     17  C   UNL     1      -1.601   4.352   4.480  0.00  0.00    +0.000 A 
ENDBRANCH  11  15
BRANCH  11  18
ATOM     18  C   UNL     1       0.064   0.852   2.626  0.00  0.00    -0.042 A 
ATOM     19  C   UNL     1      -1.221   0.414   2.889  0.00  0.00    +0.004 A 
ATOM     20  C   UNL     1      -1.425  -0.832   3.450  0.00  0.00    +0.000 A 
ATOM     21  C   UNL     1      -0.344  -1.638   3.757  0.00  0.00    +0.000 A 
ATOM     22  C   UNL     1       0.941  -1.198   3.499  0.00  0.00    +0.000 A 
ATOM     23  C   UNL     1       1.145   0.047   2.934  0.00  0.00    +0.004 A 
ENDBRANCH  11  18
ENDBRANCH  10  11
ENDBRANCH   8  10
BRANCH   6  24
ATOM     24  C   UNL     1      -2.225   0.111  -0.188  0.00  0.00    +0.089 C 
BRANCH  24  25
ATOM     25  C   UNL     1      -2.605   0.678  -1.531  0.00  0.00    +0.212 C 
ATOM     26  O   UNL     1      -1.743   0.972  -2.332  0.00  0.00    -0.276 OA
ATOM     27  N   UNL     1      -3.904   0.860  -1.843  0.00  0.00    -0.313 N 
ATOM     28  H   UNL     1      -4.594   0.626  -1.202  0.00  0.00    +0.149 HD
BRANCH  27  29
ATOM     29  C   UNL     1      -4.274   1.412  -3.148  0.00  0.00    +0.138 C 
BRANCH  29  30
ATOM     30  C   UNL     1      -5.797   1.516  -3.245  0.00  0.00    +0.081 C 
ATOM     31  C   UNL     1      -6.420   0.147  -2.962  0.00  0.00    +0.036 C 
ATOM     32  C   UNL     1      -7.944   0.250  -3.059  0.00  0.00    +0.003 C 
ATOM     33  C   UNL     1      -8.335   0.708  -4.465  0.00  0.00    +0.000 C 
ATOM     34  C   UNL     1      -7.713   2.077  -4.748  0.00  0.00    +0.003 C 
ATOM     35  C   UNL     1      -6.189   1.974  -4.651  0.00  0.00    +0.036 C 
BRANCH  30  36
ATOM     36  O   UNL     1      -6.272   2.462  -2.286  0.00  0.00    -0.387 OA
ATOM     37  H   UNL     1      -6.060   2.235  -1.370  0.00  0.00    +0.210 HD
ENDBRANCH  30  36
ENDBRANCH  29  30
ENDBRANCH  27  29
ENDBRANCH  24  25
ENDBRANCH   6  24
TORSDOF 9
