REMARK  Name = ZINC38684150
REMARK  16 active torsions:
REMARK  status: ('A' for Active; 'I' for Inactive)
REMARK    1  A    between atoms: C_1  and  C_2
REMARK    2  A    between atoms: C_5  and  O_8
REMARK    3  A    between atoms: O_8  and  C_9
REMARK    4  A    between atoms: C_9  and  C_10
REMARK    5  A    between atoms: C_10  and  O_12
REMARK    6  A    between atoms: O_12  and  C_13
REMARK    7  A    between atoms: C_20  and  N_39
REMARK    8  A    between atoms: C_21  and  C_37
REMARK    9  A    between atoms: C_22  and  C_24
REMARK   10  A    between atoms: C_27  and  O_32
REMARK   11  A    between atoms: C_28  and  O_30
REMARK   12  A    between atoms: O_30  and  C_31
REMARK   13  A    between atoms: O_32  and  C_33
REMARK   14  A    between atoms: C_33  and  C_34
REMARK   15  A    between atoms: C_34  and  C_35
REMARK   16  A    between atoms: C_34  and  C_36
REMARK                            x       y       z     vdW  Elec       q    Type
REMARK                         _______ _______ _______ _____ _____    ______ ____
ROOT
ATOM      1  C   UNL     1       0.089  -8.454   1.970  0.00  0.00    +0.135 A 
ATOM      2  C   UNL     1       0.133  -9.027   0.707  0.00  0.00    +0.047 A 
ATOM      3  C   UNL     1       0.116 -10.402   0.572  0.00  0.00    +0.012 A 
ATOM      4  C   UNL     1       0.054 -11.211   1.693  0.00  0.00    +0.008 A 
ATOM      5  C   UNL     1       0.010 -10.643   2.956  0.00  0.00    +0.138 A 
ATOM      6  C   UNL     1       0.034  -9.261   3.094  0.00  0.00    +0.093 A 
ATOM      7  O   UNL     1      -0.050 -11.420   4.066  0.00  0.00    -0.441 OA
ATOM      8  C   UNL     1      -0.451 -12.699   3.969  0.00  0.00    +0.199 C 
ATOM      9  C   UNL     1      -0.434 -13.367   2.791  0.00  0.00    +0.098 C 
ATOM     10  C   UNL     1       0.036 -12.707   1.525  0.00  0.00    +0.098 C 
ENDROOT
BRANCH  10  11
ATOM     11  C   UNL     1       1.426 -13.190   1.198  0.00  0.00    -0.031 A 
ATOM     12  C   UNL     1       2.461 -12.968   2.087  0.00  0.00    +0.008 A 
ATOM     13  C   UNL     1       3.737 -13.408   1.792  0.00  0.00    +0.050 A 
ATOM     14  C   UNL     1       3.982 -14.074   0.602  0.00  0.00    +0.162 A 
ATOM     15  C   UNL     1       2.941 -14.298  -0.294  0.00  0.00    +0.162 A 
ATOM     16  C   UNL     1       1.662 -13.858   0.011  0.00  0.00    +0.054 A 
BRANCH  15  17
ATOM     17  O   UNL     1       3.176 -14.951  -1.463  0.00  0.00    -0.491 OA
ATOM     18  C   UNL     1       2.059 -15.145  -2.334  0.00  0.00    +0.277 C 
ENDBRANCH  15  17
BRANCH  14  19
ATOM     19  O   UNL     1       5.237 -14.508   0.309  0.00  0.00    -0.488 OA
BRANCH  19  20
ATOM     20  C   UNL     1       6.257 -14.242   1.275  0.00  0.00    +0.232 C 
BRANCH  20  21
ATOM     21  C   UNL     1       7.591 -14.800   0.774  0.00  0.00    +0.020 C 
ATOM     22  C   UNL     1       8.704 -14.408   1.747  0.00  0.00    +0.010 C 
ATOM     23  C   UNL     1       7.505 -16.325   0.685  0.00  0.00    +0.010 C 
ENDBRANCH  20  21
ENDBRANCH  19  20
ENDBRANCH  14  19
ENDBRANCH  10  11
BRANCH   8  24
ATOM     24  N   UNL     1      -0.889 -13.347   5.096  0.00  0.00    -0.328 N 
ATOM     25  H   UNL     1      -0.906 -12.882   5.947  0.00  0.00    +0.145 HD
ATOM     26  H   UNL     1      -1.181 -14.271   5.042  0.00  0.00    +0.145 HD
ENDBRANCH   8  24
BRANCH   9  27
ATOM     27  C   UNL     1      -0.874 -14.729   2.751  0.00  0.00    +0.101 C 
ATOM     28  N   UNL     1      -1.222 -15.810   2.719  0.00  0.00    -0.191 NA
ENDBRANCH   9  27
BRANCH   1  29
ATOM     29  O   UNL     1       0.106  -7.101   2.104  0.00  0.00    -0.423 OA
BRANCH  29  30
ATOM     30  C   UNL     1      -1.030  -6.429   1.856  0.00  0.00    +0.350 C 
ATOM     31  O   UNL     1      -2.000  -7.015   1.439  0.00  0.00    -0.247 OA
BRANCH  30  32
ATOM     32  C   UNL     1      -1.093  -4.943   2.097  0.00  0.00    +0.349 C 
BRANCH  32  33
ATOM     33  O   UNL     1      -2.396  -4.461   1.761  0.00  0.00    -0.481 OA
BRANCH  33  38
ATOM     34  C   UNL     1      -3.336   1.052   2.433  0.00  0.00    +0.044 C 
ATOM     35  C   UNL     1      -3.084  -0.423   2.253  0.00  0.00    -0.050 A 
ATOM     36  C   UNL     1      -4.093  -1.243   1.782  0.00  0.00    +0.007 A 
ATOM     37  C   UNL     1      -3.865  -2.595   1.616  0.00  0.00    +0.046 A 
ATOM     38  C   UNL     1      -2.623  -3.131   1.923  0.00  0.00    +0.121 A 
ATOM     39  C   UNL     1      -1.612  -2.306   2.395  0.00  0.00    +0.046 A 
ATOM     40  C   UNL     1      -1.843  -0.953   2.554  0.00  0.00    +0.007 A 
ENDBRANCH  33  38
ENDBRANCH  32  33
ENDBRANCH  30  32
ENDBRANCH  29  30
ENDBRANCH   1  29
TORSDOF 12
