REMARK  Name = ZINC12199864
REMARK  3 active torsions:
REMARK  status: ('A' for Active; 'I' for Inactive)
REMARK    1  A    between atoms: C_1  and  C_2
REMARK    2  A    between atoms: N_11  and  N_12
REMARK    3  A    between atoms: C_13  and  C_14
REMARK                            x       y       z     vdW  Elec       q    Type
REMARK                         _______ _______ _______ _____ _____    ______ ____
ROOT
ATOM      1  C   UNL     1      -9.316   8.336   1.293  0.00  0.00    +0.008 C 
ATOM      2  C   UNL     1      -8.464   7.168   0.794  0.00  0.00    -0.009 C 
ATOM      3  C   UNL     1      -8.737   5.929   1.651  0.00  0.00    +0.010 C 
ATOM      4  C   UNL     1      -8.086   4.699   1.018  0.00  0.00    +0.056 C 
ATOM      5  C   UNL     1      -6.611   4.997   0.765  0.00  0.00    +0.054 A 
ATOM      6  C   UNL     1      -6.175   6.283   0.729  0.00  0.00    +0.015 A 
ATOM      7  S   UNL     1      -4.439   6.101   0.414  0.00  0.00    -0.056 S 
ATOM      8  C   UNL     1      -4.428   4.312   0.353  0.00  0.00    +0.178 A 
ATOM      9  N   UNL     1      -5.703   4.043   0.566  0.00  0.00    -0.228 NA
ATOM     10  N   UNL     1      -3.370   3.446   0.135  0.00  0.00    -0.215 N 
ATOM     11  C   UNL     1      -6.974   7.529   0.912  0.00  0.00    +0.047 C 
ATOM     12  H   UNL     1      -2.478   3.798  -0.013  0.00  0.00    +0.176 HD
ENDROOT
BRANCH  10  13
ATOM     13  N   UNL     1      -3.588   2.062   0.128  0.00  0.00    -0.188 NA
ATOM     14  C   UNL     1      -2.619   1.253  -0.184  0.00  0.00    +0.145 C 
BRANCH  14  15
ATOM     15  C   UNL     1      -1.361   1.787  -0.717  0.00  0.00    +0.032 A 
ATOM     16  C   UNL     1      -0.175   1.124  -0.984  0.00  0.00    +0.017 A 
ATOM     17  C   UNL     1       0.878   1.849  -1.492  0.00  0.00    +0.008 A 
ATOM     18  C   UNL     1       0.727   3.180  -1.708  0.00  0.00    +0.046 A 
ATOM     19  S   UNL     1      -0.957   3.461  -1.187  0.00  0.00    -0.096 S 
ENDBRANCH  14  15
ENDBRANCH  10  13
TORSDOF 2
