REMARK  Name = ZINC39636055
REMARK  7 active torsions:
REMARK  status: ('A' for Active; 'I' for Inactive)
REMARK    1  A    between atoms: C_1  and  C_2
REMARK    2  A    between atoms: C_2  and  N_3
REMARK    3  A    between atoms: C_4  and  C_10
REMARK    4  A    between atoms: C_6  and  C_8
REMARK    5  A    between atoms: C_14  and  C_23
REMARK    6  A    between atoms: N_25  and  C_26
REMARK    7  A    between atoms: C_32  and  C_34
REMARK                            x       y       z     vdW  Elec       q    Type
REMARK                         _______ _______ _______ _____ _____    ______ ____
ROOT
ATOM      1  C   UNL     1      -1.435  -0.646   2.829  0.00  0.00    +0.266 C 
ATOM      2  O   UNL     1      -2.072  -0.984   3.809  0.00  0.00    -0.268 OA
ATOM      3  N   UNL     1      -0.183  -0.165   2.972  0.00  0.00    -0.295 N 
ATOM      4  C   UNL     1       0.767   0.224   1.904  0.00  0.00    +0.121 C 
ATOM      5  C   UNL     1       1.460   1.496   2.442  0.00  0.00    +0.100 C 
ATOM      6  C   UNL     1       1.316   1.404   3.971  0.00  0.00    -0.004 C 
ATOM      7  C   UNL     1       0.550   0.100   4.233  0.00  0.00    +0.115 C 
ATOM      8  C   UNL     1       2.692   1.351   4.628  0.00  0.00    -0.010 C 
ATOM      9  C   UNL     1       2.525   1.319   6.150  0.00  0.00    -0.082 C 
ATOM     10  N   UNL     1       1.796   2.515   6.590  0.00  0.00    +0.379 N 
ATOM     11  C   UNL     1       0.441   2.510   6.026  0.00  0.00    -0.082 C 
ATOM     12  C   UNL     1       0.520   2.593   4.499  0.00  0.00    -0.010 C 
ATOM     13  H   UNL     1       1.740   2.521   7.597  0.00  0.00    -0.086 HD
ATOM     14  H   UNL     1       2.286   3.339   6.277  0.00  0.00    -0.086 HD
ENDROOT
BRANCH   1  16
ATOM     15  N   UNL     1      -1.937  -1.828   0.640  0.00  0.00    -0.258 N 
ATOM     16  C   UNL     1      -2.029  -0.761   1.489  0.00  0.00    +0.138 A 
ATOM     17  C   UNL     1      -2.796   0.189   0.835  0.00  0.00    +0.071 A 
ATOM     18  C   UNL     1      -3.123  -0.385  -0.397  0.00  0.00    +0.075 A 
ATOM     19  N   UNL     1      -2.577  -1.573  -0.444  0.00  0.00    -0.175 NA
ATOM     20  C   UNL     1      -3.951   0.255  -1.482  0.00  0.00    +0.069 C 
ATOM     21 BR   UNL     1      -3.295   1.897   1.473  0.00  0.00    -0.046 Br
BRANCH  15  23
ATOM     22  C   UNL     1       0.254  -2.908   0.517  0.00  0.00    +0.029 C 
ATOM     23  C   UNL     1      -1.213  -3.071   0.920  0.00  0.00    +0.141 C 
ENDBRANCH  15  23
ENDBRANCH   1  16
BRANCH   5  24
ATOM     24  C   UNL     1       0.768   2.729   1.922  0.00  0.00    +0.218 C 
ATOM     25  O   UNL     1      -0.432   2.722   1.743  0.00  0.00    -0.275 OA
ATOM     26  N   UNL     1       1.482   3.841   1.654  0.00  0.00    -0.312 N 
ATOM     27  H   UNL     1       2.449   3.825   1.728  0.00  0.00    +0.149 HD
BRANCH  26  28
ATOM     28  C   UNL     1       0.798   5.072   1.251  0.00  0.00    +0.076 C 
ATOM     29  C   UNL     1       0.467   5.007  -0.241  0.00  0.00    +0.022 C 
ATOM     30  C   UNL     1       1.760   4.855  -1.045  0.00  0.00    +0.002 C 
ATOM     31  C   UNL     1       2.670   6.055  -0.777  0.00  0.00    +0.000 C 
ATOM     32  C   UNL     1       3.002   6.121   0.716  0.00  0.00    +0.005 C 
ATOM     33  C   UNL     1       1.709   6.272   1.519  0.00  0.00    +0.006 C 
ATOM     34  C   UNL     1       2.041   6.337   3.011  0.00  0.00    +0.009 C 
ENDBRANCH  26  28
ENDBRANCH   5  24
TORSDOF 4
