REMARK  Name = ZINC12749481
REMARK  11 active torsions:
REMARK  status: ('A' for Active; 'I' for Inactive)
REMARK    1  A    between atoms: C_1  and  C_2
REMARK    2  A    between atoms: C_2  and  N_3
REMARK    3  A    between atoms: C_4  and  C_29
REMARK    4  A    between atoms: C_7  and  S_8
REMARK    5  A    between atoms: S_8  and  C_9
REMARK    6  A    between atoms: C_9  and  C_10
REMARK    7  A    between atoms: N_12  and  C_13
REMARK    8  A    between atoms: C_16  and  S_19
REMARK    9  A    between atoms: S_19  and  N_22
REMARK   10  A    between atoms: N_22  and  C_23
REMARK   11  A    between atoms: C_23  and  C_24
REMARK                            x       y       z     vdW  Elec       q    Type
REMARK                         _______ _______ _______ _____ _____    ______ ____
ROOT
ATOM      1  C   UNL     1      -6.622  -3.938   0.263  0.00  0.00    +0.227 C 
ATOM      2  O   UNL     1      -7.427  -3.094   0.594  0.00  0.00    -0.275 OA
ATOM      3  N   UNL     1      -7.024  -5.207   0.050  0.00  0.00    -0.285 N 
ATOM      4  H   UNL     1      -6.394  -5.867  -0.280  0.00  0.00    +0.155 HD
ENDROOT
BRANCH   3   5
ATOM      5  C   UNL     1      -8.351  -5.572   0.304  0.00  0.00    +0.034 A 
ATOM      6  C   UNL     1      -8.643  -6.838   0.793  0.00  0.00    +0.025 A 
ATOM      7  C   UNL     1      -9.953  -7.194   1.048  0.00  0.00    +0.030 A 
ATOM      8  C   UNL     1     -10.974  -6.293   0.807  0.00  0.00    +0.105 A 
ATOM      9  C   UNL     1     -10.688  -5.033   0.316  0.00  0.00    +0.030 A 
ATOM     10  C   UNL     1      -9.379  -4.670   0.064  0.00  0.00    +0.025 A 
BRANCH   8  11
ATOM     11  S   UNL     1     -12.645  -6.753   1.127  0.00  0.00    +0.059 S 
ATOM     12  O   UNL     1     -12.602  -7.791   2.096  0.00  0.00    -0.153 OA
ATOM     13  O   UNL     1     -13.366  -5.546   1.335  0.00  0.00    -0.153 OA
BRANCH  11  14
ATOM     14  N   UNL     1     -13.242  -7.427  -0.263  0.00  0.00    -0.183 NA
ATOM     15  H   UNL     1     -13.963  -6.990  -0.743  0.00  0.00    +0.148 HD
BRANCH  14  16
ATOM     16  C   UNL     1     -12.682  -8.682  -0.768  0.00  0.00    +0.180 C 
BRANCH  16  17
ATOM     17  C   UNL     1     -13.610  -9.268  -1.800  0.00  0.00    +0.120 A 
ATOM     18  C   UNL     1     -13.570  -9.024  -3.123  0.00  0.00    +0.046 A 
ATOM     19  C   UNL     1     -14.614  -9.775  -3.709  0.00  0.00    +0.041 A 
ATOM     20  C   UNL     1     -15.230 -10.432  -2.711  0.00  0.00    +0.195 A 
ATOM     21  O   UNL     1     -14.614 -10.126  -1.557  0.00  0.00    -0.466 OA
ENDBRANCH  16  17
ENDBRANCH  14  16
ENDBRANCH  11  14
ENDBRANCH   8  11
ENDBRANCH   3   5
BRANCH   1  22
ATOM     22  C   UNL     1      -5.171  -3.569   0.089  0.00  0.00    +0.173 C 
BRANCH  22  23
ATOM     23  S   UNL     1      -4.950  -1.808   0.444  0.00  0.00    -0.077 S 
BRANCH  23  28
ATOM     24  N   UNL     1      -2.473  -0.516   0.295  0.00  0.00    -0.300 N 
ATOM     25  C   UNL     1      -1.180  -0.879  -0.015  0.00  0.00    +0.200 A 
ATOM     26  N   UNL     1      -1.201  -2.162  -0.305  0.00  0.00    -0.125 NA
ATOM     27  N   UNL     1      -2.397  -2.619  -0.189  0.00  0.00    -0.122 NA
ATOM     28  C   UNL     1      -3.216  -1.656   0.171  0.00  0.00    +0.192 A 
BRANCH  25  29
ATOM     29  C   UNL     1      -0.002   0.002  -0.026  0.00  0.00    +0.172 A 
ATOM     30  C   UNL     1       1.299  -0.403  -0.051  0.00  0.00    +0.053 A 
ATOM     31  C   UNL     1       2.086   0.765  -0.053  0.00  0.00    +0.042 A 
ATOM     32  C   UNL     1       1.239   1.813  -0.031  0.00  0.00    +0.196 A 
ATOM     33  O   UNL     1      -0.021   1.349  -0.014  0.00  0.00    -0.460 OA
ENDBRANCH  25  29
BRANCH  24  35
ATOM     34  C   UNL     1      -3.362   1.589  -0.576  0.00  0.00    +0.027 C 
ATOM     35  C   UNL     1      -2.950   0.815   0.678  0.00  0.00    +0.122 C 
ENDBRANCH  24  35
ENDBRANCH  23  28
ENDBRANCH  22  23
ENDBRANCH   1  22
TORSDOF 10
