REMARK  Name = ZINC00709739
REMARK  7 active torsions:
REMARK  status: ('A' for Active; 'I' for Inactive)
REMARK    1  A    between atoms: C_1  and  O_2
REMARK    2  A    between atoms: O_2  and  C_3
REMARK    3  A    between atoms: C_6  and  C_11
REMARK    4  A    between atoms: C_8  and  O_9
REMARK    5  A    between atoms: O_9  and  C_10
REMARK    6  A    between atoms: C_16  and  C_26
REMARK    7  A    between atoms: C_31  and  N_32
REMARK                            x       y       z     vdW  Elec       q    Type
REMARK                         _______ _______ _______ _____ _____    ______ ____
ROOT
ATOM      1  C   UNL     1       6.641  -3.167  -1.165  0.00  0.00    +0.032 C 
ATOM      2  C   UNL     1       7.634  -2.243  -0.462  0.00  0.00    +0.059 C 
ATOM      3  C   UNL     1       6.911  -1.385   0.563  0.00  0.00    +0.017 C 
ATOM      4  C   UNL     1       5.832  -1.859   1.210  0.00  0.00    +0.036 C 
ATOM      5  C   UNL     1       5.032  -1.122   2.256  0.00  0.00    +0.138 C 
ATOM      6  N   UNL     1       5.651   0.093   2.742  0.00  0.00    -0.331 N 
ATOM      7  C   UNL     1       5.857   1.181   1.896  0.00  0.00    +0.049 A 
ATOM      8  C   UNL     1       5.207   2.388   2.095  0.00  0.00    +0.025 A 
ATOM      9  C   UNL     1       5.408   3.425   1.200  0.00  0.00    +0.002 A 
ATOM     10  C   UNL     1       6.247   3.259   0.114  0.00  0.00    +0.002 A 
ATOM     11  C   UNL     1       6.912   2.059  -0.079  0.00  0.00    +0.025 A 
ATOM     12  C   UNL     1       6.729   1.030   0.828  0.00  0.00    +0.052 A 
ATOM     13  N   UNL     1       7.451  -0.156   0.760  0.00  0.00    -0.316 N 
ATOM     14  C   UNL     1       5.350  -3.160   0.931  0.00  0.00    +0.163 C 
ATOM     15  O   UNL     1       4.384  -3.571   1.545  0.00  0.00    -0.292 OA
ATOM     16  C   UNL     1       5.988  -4.049  -0.094  0.00  0.00    +0.088 C 
ATOM     17  H   UNL     1       5.927   0.151   3.671  0.00  0.00    +0.147 HD
ATOM     18  H   UNL     1       8.414  -0.101   0.863  0.00  0.00    +0.152 HD
ENDROOT
BRANCH   5  19
ATOM     19  C   UNL     1       3.689  -0.771   1.670  0.00  0.00    +0.011 A 
ATOM     20  C   UNL     1       3.521  -0.745   0.297  0.00  0.00    +0.057 A 
ATOM     21  C   UNL     1       2.287  -0.422  -0.244  0.00  0.00    +0.167 A 
ATOM     22  C   UNL     1       1.218  -0.125   0.598  0.00  0.00    +0.168 A 
ATOM     23  C   UNL     1       1.393  -0.153   1.971  0.00  0.00    +0.082 A 
ATOM     24  C   UNL     1       2.628  -0.476   2.505  0.00  0.00    +0.135 A 
ATOM     25  O   UNL     1       0.124   0.156  -0.169  0.00  0.00    -0.453 OA
ATOM     26  C   UNL     1       0.638   0.427  -1.487  0.00  0.00    +0.466 C 
ATOM     27  O   UNL     1       1.863  -0.327  -1.538  0.00  0.00    -0.453 OA
BRANCH  24  28
ATOM     28  N   UNL     1       2.813  -0.505   3.973  0.00  0.00    +0.057 N 
ATOM     29  O   UNL     1       1.856  -0.353   4.710  0.00  0.00    -0.126 OA
ATOM     30  O   UNL     1       3.922  -0.682   4.443  0.00  0.00    -0.126 OA
ENDBRANCH  24  28
ENDBRANCH   5  19
BRANCH   1  34
ATOM     31  C   UNL     1       8.698  -5.619  -4.001  0.00  0.00    +0.161 A 
ATOM     32  C   UNL     1       9.058  -5.651  -2.663  0.00  0.00    +0.049 A 
ATOM     33  C   UNL     1       8.391  -4.857  -1.749  0.00  0.00    +0.008 A 
ATOM     34  C   UNL     1       7.364  -4.030  -2.166  0.00  0.00    -0.040 A 
ATOM     35  C   UNL     1       6.997  -3.997  -3.498  0.00  0.00    +0.053 A 
ATOM     36  C   UNL     1       7.664  -4.787  -4.420  0.00  0.00    +0.162 A 
BRANCH  31  38
ATOM     37  C   UNL     1      10.402  -7.229  -4.399  0.00  0.00    +0.277 C 
ATOM     38  O   UNL     1       9.352  -6.400  -4.902  0.00  0.00    -0.491 OA
ENDBRANCH  31  38
BRANCH  36  39
ATOM     39  O   UNL     1       7.308  -4.752  -5.732  0.00  0.00    -0.491 OA
ATOM     40  C   UNL     1       6.238  -3.874  -6.090  0.00  0.00    +0.277 C 
ENDBRANCH  36  39
ENDBRANCH   1  34
TORSDOF 5
