REMARK  Name = ZINC11788592
REMARK  10 active torsions:
REMARK  status: ('A' for Active; 'I' for Inactive)
REMARK    1  A    between atoms: C_1  and  O_2
REMARK    2  A    between atoms: O_2  and  C_3
REMARK    3  A    between atoms: C_6  and  C_9
REMARK    4  A    between atoms: C_10  and  C_11
REMARK    5  A    between atoms: C_11  and  N_73
REMARK    6  A    between atoms: C_23  and  N_29
REMARK    7  A    between atoms: C_25  and  O_27
REMARK    8  A    between atoms: O_27  and  C_28
REMARK    9  A    between atoms: C_30  and  C_32
REMARK   10  A    between atoms: C_32  and  C_33
REMARK                            x       y       z     vdW  Elec       q    Type
REMARK                         _______ _______ _______ _____ _____    ______ ____
ROOT
ATOM      1  C   UNL     1       4.373   5.524   1.229  0.00  0.00    -0.077 C 
ATOM      2  C   UNL     1       5.108   5.951   2.503  0.00  0.00    -0.005 C 
ATOM      3  C   UNL     1       5.329   7.461   2.476  0.00  0.00    +0.021 C 
ATOM      4  C   UNL     1       3.998   8.189   2.314  0.00  0.00    -0.005 C 
ATOM      5  C   UNL     1       3.298   7.690   1.046  0.00  0.00    -0.077 C 
ATOM      6  C   UNL     1       6.026   7.914   3.737  0.00  0.00    -0.034 A 
ATOM      7  C   UNL     1       5.534   8.122   5.014  0.00  0.00    +0.004 A 
ATOM      8  C   UNL     1       6.375   8.544   6.024  0.00  0.00    +0.000 A 
ATOM      9  C   UNL     1       7.715   8.762   5.761  0.00  0.00    +0.000 A 
ATOM     10  C   UNL     1       8.208   8.555   4.487  0.00  0.00    +0.006 A 
ATOM     11  C   UNL     1       7.366   8.131   3.473  0.00  0.00    -0.021 A 
ATOM     12  C   UNL     1       7.656   7.836   2.017  0.00  0.00    +0.133 C 
ATOM     13  C   UNL     1       6.277   7.834   1.322  0.00  0.00    +0.153 C 
ATOM     14  N   UNL     1       3.076   6.233   1.165  0.00  0.00    +0.382 N 
ATOM     15  H   UNL     1       2.551   6.045   2.026  0.00  0.00    -0.081 HD
ENDROOT
BRANCH  12  16
ATOM     16  N   UNL     1       8.296   6.525   1.881  0.00  0.00    -0.306 N 
ATOM     17  C   UNL     1       9.638   6.420   1.942  0.00  0.00    +0.218 C 
ATOM     18  O   UNL     1      10.317   7.412   2.109  0.00  0.00    -0.275 OA
ATOM     19  H   UNL     1       7.753   5.732   1.748  0.00  0.00    +0.149 HD
BRANCH  17  20
ATOM     20  C   UNL     1      10.296   5.072   1.803  0.00  0.00    +0.130 C 
BRANCH  20  21
ATOM     21  C   UNL     1      11.791   5.229   1.906  0.00  0.00    -0.039 A 
ATOM     22  C   UNL     1      12.543   5.450   0.768  0.00  0.00    +0.004 A 
ATOM     23  C   UNL     1      13.914   5.598   0.863  0.00  0.00    +0.000 A 
ATOM     24  C   UNL     1      14.534   5.516   2.096  0.00  0.00    +0.000 A 
ATOM     25  C   UNL     1      13.782   5.290   3.234  0.00  0.00    +0.000 A 
ATOM     26  C   UNL     1      12.411   5.146   3.139  0.00  0.00    +0.004 A 
ENDBRANCH  20  21
ENDBRANCH  17  20
ENDBRANCH  12  16
BRANCH  13  27
ATOM     27  O   UNL     1       5.963   9.128   0.803  0.00  0.00    -0.377 OA
ATOM     28  C   UNL     1       6.262   9.287  -0.585  0.00  0.00    +0.194 C 
ENDBRANCH  13  27
BRANCH  14  29
ATOM     29  C   UNL     1       2.293   5.746   0.010  0.00  0.00    -0.051 C 
BRANCH  29  31
ATOM     30  C   UNL     1       1.168   3.564   0.010  0.00  0.00    +0.002 C 
ATOM     31  C   UNL     1       2.309   4.239   0.002  0.00  0.00    -0.045 C 
BRANCH  30  35
ATOM     32  C   UNL     1       1.213  -0.684  -0.013  0.00  0.00    +0.120 A 
ATOM     33  C   UNL     1       0.002  -0.004   0.002  0.00  0.00    +0.046 A 
ATOM     34  C   UNL     1      -0.017   1.374   0.010  0.00  0.00    +0.011 A 
ATOM     35  C   UNL     1       1.184   2.087   0.002  0.00  0.00    -0.025 A 
ATOM     36  C   UNL     1       2.399   1.400  -0.013  0.00  0.00    +0.011 A 
ATOM     37  C   UNL     1       2.409   0.021  -0.021  0.00  0.00    +0.046 A 
BRANCH  32  39
ATOM     38  C   UNL     1       2.507  -2.678  -0.036  0.00  0.00    +0.277 C 
ATOM     39  O   UNL     1       1.227  -2.042  -0.020  0.00  0.00    -0.495 OA
ENDBRANCH  32  39
ENDBRANCH  30  35
ENDBRANCH  29  31
ENDBRANCH  14  29
TORSDOF 8
