REMARK  Name = ZINC10002858
REMARK  9 active torsions:
REMARK  status: ('A' for Active; 'I' for Inactive)
REMARK    1  A    between atoms: C_1  and  C_2
REMARK    2  A    between atoms: C_2  and  N_3
REMARK    3  A    between atoms: C_4  and  C_21
REMARK    4  A    between atoms: C_7  and  S_8
REMARK    5  A    between atoms: S_8  and  C_9
REMARK    6  A    between atoms: C_9  and  C_10
REMARK    7  A    between atoms: N_12  and  C_13
REMARK    8  A    between atoms: C_21  and  N_22
REMARK    9  A    between atoms: C_23  and  C_25
REMARK                            x       y       z     vdW  Elec       q    Type
REMARK                         _______ _______ _______ _____ _____    ______ ____
ROOT
ATOM      1  N   UNL     1      -0.500   2.763   1.891  0.00  0.00    -0.305 N 
ATOM      2  C   UNL     1      -0.754   1.600   1.217  0.00  0.00    +0.151 A 
ATOM      3  N   UNL     1      -1.707   0.982   1.855  0.00  0.00    -0.132 NA
ATOM      4  N   UNL     1      -2.074   1.671   2.876  0.00  0.00    -0.122 NA
ATOM      5  C   UNL     1      -1.368   2.776   2.945  0.00  0.00    +0.192 A 
ENDROOT
BRANCH   1   7
ATOM      6  C   UNL     1      -0.139   4.822   0.622  0.00  0.00    +0.027 C 
ATOM      7  C   UNL     1       0.494   3.783   1.550  0.00  0.00    +0.122 C 
ENDBRANCH   1   7
BRANCH   5   8
ATOM      8  S   UNL     1      -1.510   4.035   4.169  0.00  0.00    -0.077 S 
BRANCH   8   9
ATOM      9  C   UNL     1      -2.832   3.335   5.188  0.00  0.00    +0.173 C 
BRANCH   9  10
ATOM     10  C   UNL     1      -3.132   4.268   6.333  0.00  0.00    +0.228 C 
ATOM     11  O   UNL     1      -2.513   5.305   6.448  0.00  0.00    -0.275 OA
ATOM     12  N   UNL     1      -4.088   3.951   7.228  0.00  0.00    -0.284 N 
ATOM     13  H   UNL     1      -4.628   3.155   7.100  0.00  0.00    +0.155 HD
BRANCH  12  14
ATOM     14  C   UNL     1      -4.303   4.771   8.343  0.00  0.00    +0.052 A 
ATOM     15  C   UNL     1      -4.143   6.146   8.236  0.00  0.00    +0.026 A 
ATOM     16  C   UNL     1      -4.356   6.952   9.337  0.00  0.00    +0.022 A 
ATOM     17  C   UNL     1      -4.729   6.391  10.546  0.00  0.00    +0.042 A 
ATOM     18  C   UNL     1      -4.890   5.022  10.656  0.00  0.00    +0.041 A 
ATOM     19  C   UNL     1      -4.683   4.210   9.556  0.00  0.00    +0.064 A 
ATOM     20 CL   UNL     1      -4.891   2.492   9.692  0.00  0.00    -0.082 Cl
ATOM     21 CL   UNL     1      -4.996   7.409  11.927  0.00  0.00    -0.083 Cl
ENDBRANCH  12  14
ENDBRANCH   9  10
ENDBRANCH   8   9
ENDBRANCH   5   8
BRANCH   2  22
ATOM     22  C   UNL     1      -0.056   1.120  -0.030  0.00  0.00    +0.181 C 
BRANCH  22  23
ATOM     23  N   UNL     1      -0.770   1.613  -1.210  0.00  0.00    -0.304 N 
ATOM     24  C   UNL     1      -0.324   1.306  -2.444  0.00  0.00    +0.245 C 
ATOM     25  O   UNL     1       0.671   0.621  -2.578  0.00  0.00    -0.270 OA
ATOM     26  H   UNL     1      -1.564   2.160  -1.103  0.00  0.00    +0.149 HD
BRANCH  24  27
ATOM     27  C   UNL     1      -1.044   1.803  -3.634  0.00  0.00    +0.040 A 
ATOM     28  C   UNL     1      -2.191   2.587  -3.482  0.00  0.00    +0.017 A 
ATOM     29  C   UNL     1      -2.858   3.054  -4.593  0.00  0.00    +0.050 A 
ATOM     30  C   UNL     1      -2.401   2.739  -5.866  0.00  0.00    +0.166 A 
ATOM     31  C   UNL     1      -1.259   1.953  -6.024  0.00  0.00    +0.167 A 
ATOM     32  C   UNL     1      -0.583   1.486  -4.914  0.00  0.00    +0.062 A 
ATOM     33  O   UNL     1      -1.024   1.791  -7.359  0.00  0.00    -0.453 OA
ATOM     34  C   UNL     1      -2.260   2.140  -8.012  0.00  0.00    +0.466 C 
ATOM     35  O   UNL     1      -2.877   3.068  -7.101  0.00  0.00    -0.453 OA
ENDBRANCH  24  27
ENDBRANCH  22  23
ENDBRANCH   2  22
TORSDOF 8
