REMARK  Name = ZINC22680556
REMARK  11 active torsions:
REMARK  status: ('A' for Active; 'I' for Inactive)
REMARK    1  A    between atoms: C_1  and  O_2
REMARK    2  A    between atoms: O_2  and  C_3
REMARK    3  A    between atoms: C_8  and  C_9
REMARK    4  A    between atoms: C_9  and  C_11
REMARK    5  A    between atoms: C_9  and  N_31
REMARK    6  A    between atoms: C_11  and  N_12
REMARK    7  A    between atoms: C_13  and  C_15
REMARK    8  A    between atoms: C_19  and  S_21
REMARK    9  A    between atoms: S_21  and  N_24
REMARK   10  A    between atoms: N_24  and  C_25
REMARK   11  A    between atoms: C_25  and  C_26
REMARK                            x       y       z     vdW  Elec       q    Type
REMARK                         _______ _______ _______ _____ _____    ______ ____
ROOT
ATOM      1  N   UNL     1      -4.497  -1.518  -5.208  0.00  0.00    -0.313 N 
ATOM      2  C   UNL     1      -3.570  -1.755  -4.259  0.00  0.00    +0.244 C 
ATOM      3  O   UNL     1      -2.845  -2.727  -4.347  0.00  0.00    -0.270 OA
ATOM      4  H   UNL     1      -5.153  -0.638  -5.128  0.00  0.00    +0.149 HD
ENDROOT
BRANCH   2   5
ATOM      5  C   UNL     1      -3.434  -0.833  -3.111  0.00  0.00    +0.039 A 
ATOM      6  C   UNL     1      -4.265   0.284  -3.007  0.00  0.00    +0.013 A 
ATOM      7  C   UNL     1      -4.133   1.140  -1.934  0.00  0.00    +0.003 A 
ATOM      8  C   UNL     1      -3.183   0.890  -0.959  0.00  0.00    +0.028 A 
ATOM      9  C   UNL     1      -2.353  -0.212  -1.059  0.00  0.00    +0.106 A 
ATOM     10  C   UNL     1      -2.474  -1.076  -2.127  0.00  0.00    +0.041 A 
BRANCH   9  11
ATOM     11  S   UNL     1      -1.143  -0.517   0.185  0.00  0.00    +0.059 S 
ATOM     12  O   UNL     1      -0.864  -1.910   0.148  0.00  0.00    -0.153 OA
ATOM     13  O   UNL     1      -1.596   0.138   1.362  0.00  0.00    -0.153 OA
BRANCH  11  14
ATOM     14  N   UNL     1       0.245   0.256  -0.282  0.00  0.00    -0.185 NA
ATOM     15  H   UNL     1       1.083  -0.336  -0.679  0.00  0.00    +0.148 HD
BRANCH  14  16
ATOM     16  C   UNL     1       0.275   1.718  -0.371  0.00  0.00    +0.148 C 
BRANCH  16  17
ATOM     17  C   UNL     1       1.705   2.188  -0.450  0.00  0.00    +0.005 A 
ATOM     18  C   UNL     1       2.480   2.385  -1.544  0.00  0.00    +0.012 A 
ATOM     19  C   UNL     1       3.778   2.828  -1.376  0.00  0.00    +0.008 A 
ATOM     20  C   UNL     1       4.241   3.043  -0.120  0.00  0.00    +0.045 A 
ATOM     21  S   UNL     1       2.820   2.621   0.875  0.00  0.00    -0.100 S 
ENDBRANCH  16  17
ENDBRANCH  14  16
ENDBRANCH  11  14
ENDBRANCH   9  11
ENDBRANCH   2   5
BRANCH   1  22
ATOM     22  C   UNL     1      -4.632  -2.431  -6.345  0.00  0.00    +0.094 C 
BRANCH  22  23
ATOM     23  C   UNL     1      -5.825  -2.005  -7.203  0.00  0.00    -0.017 C 
BRANCH  23  29
ATOM     24  C   UNL     1      -4.825  -0.576  -9.005  0.00  0.00    +0.122 A 
ATOM     25  C   UNL     1      -4.572   0.664  -9.574  0.00  0.00    +0.046 A 
ATOM     26  C   UNL     1      -5.027   1.812  -8.955  0.00  0.00    +0.004 A 
ATOM     27  C   UNL     1      -5.738   1.727  -7.772  0.00  0.00    +0.000 A 
ATOM     28  C   UNL     1      -5.996   0.492  -7.206  0.00  0.00    +0.005 A 
ATOM     29  C   UNL     1      -5.544  -0.659  -7.821  0.00  0.00    -0.018 A 
BRANCH  24  31
ATOM     30  C   UNL     1      -3.642  -1.544 -10.825  0.00  0.00    +0.277 C 
ATOM     31  O   UNL     1      -4.374  -1.706  -9.609  0.00  0.00    -0.495 OA
ENDBRANCH  24  31
ENDBRANCH  23  29
BRANCH  23  32
ATOM     32  N   UNL     1      -7.026  -1.916  -6.363  0.00  0.00    +0.385 N 
ATOM     33  C   UNL     1      -8.217  -1.552  -7.173  0.00  0.00    -0.078 C 
ATOM     34  C   UNL     1      -9.402  -2.014  -6.287  0.00  0.00    -0.020 C 
ATOM     35  C   UNL     1      -8.875  -3.324  -5.660  0.00  0.00    -0.020 C 
ATOM     36  C   UNL     1      -7.341  -3.224  -5.748  0.00  0.00    -0.078 C 
ATOM     37  H   UNL     1      -6.803  -1.156  -5.600  0.00  0.00    -0.081 HD
ENDBRANCH  23  32
ENDBRANCH  22  23
ENDBRANCH   1  22
TORSDOF 10
