REMARK  Name = ZINC36055552
REMARK  14 active torsions:
REMARK  status: ('A' for Active; 'I' for Inactive)
REMARK    1  A    between atoms: C_1  and  C_2
REMARK    2  A    between atoms: C_2  and  C_3
REMARK    3  A    between atoms: C_2  and  C_4
REMARK    4  A    between atoms: N_6  and  C_7
REMARK    5  A    between atoms: N_6  and  C_12
REMARK    6  A    between atoms: C_7  and  C_8
REMARK    7  A    between atoms: C_8  and  N_9
REMARK    8  A    between atoms: N_9  and  C_10
REMARK    9  A    between atoms: N_9  and  C_11
REMARK   10  A    between atoms: C_12  and  C_13
REMARK   11  A    between atoms: C_13  and  N_15
REMARK   12  A    between atoms: C_18  and  C_31
REMARK   13  A    between atoms: N_20  and  C_21
REMARK   14  A    between atoms: C_24  and  C_27
REMARK                            x       y       z     vdW  Elec       q    Type
REMARK                         _______ _______ _______ _____ _____    ______ ____
ROOT
ATOM      1  N   UNL     1      -2.277  -3.781  -0.100  0.00  0.00    -0.145 NA
ATOM      2  C   UNL     1      -3.580  -3.900  -0.356  0.00  0.00    +0.205 A 
ATOM      3  N   UNL     1      -4.255  -3.283  -1.360  0.00  0.00    -0.326 N 
ATOM      4  C   UNL     1      -5.587  -3.671  -1.280  0.00  0.00    +0.066 A 
ATOM      5  C   UNL     1      -5.709  -4.512  -0.237  0.00  0.00    +0.120 A 
ATOM      6  N   UNL     1      -4.465  -4.664   0.339  0.00  0.00    -0.287 N 
ATOM      7  H   UNL     1      -3.875  -2.678  -2.017  0.00  0.00    +0.169 HD
ENDROOT
BRANCH   6   8
ATOM      8  C   UNL     1      -4.165  -5.465   1.448  0.00  0.00    +0.049 A 
ATOM      9  C   UNL     1      -2.865  -5.522   1.934  0.00  0.00    +0.027 A 
ATOM     10  C   UNL     1      -2.573  -6.312   3.029  0.00  0.00    +0.014 A 
ATOM     11  C   UNL     1      -3.573  -7.047   3.640  0.00  0.00    +0.055 A 
ATOM     12  C   UNL     1      -4.868  -6.992   3.157  0.00  0.00    +0.014 A 
ATOM     13  C   UNL     1      -5.168  -6.199   2.067  0.00  0.00    +0.027 A 
BRANCH  11  14
ATOM     14  C   UNL     1      -3.251  -7.908   4.833  0.00  0.00    +0.417 C 
ATOM     15  F   UNL     1      -3.407  -7.159   6.005  0.00  0.00    -0.166 F 
ATOM     16  F   UNL     1      -4.117  -9.007   4.863  0.00  0.00    -0.166 F 
ATOM     17  F   UNL     1      -1.929  -8.358   4.740  0.00  0.00    -0.166 F 
ENDBRANCH  11  14
ENDBRANCH   6   8
BRANCH   4  18
ATOM     18  C   UNL     1      -6.677  -3.235  -2.180  0.00  0.00    -0.000 A 
ATOM     19  C   UNL     1      -7.977  -3.700  -1.981  0.00  0.00    +0.010 A 
ATOM     20  C   UNL     1      -8.989  -3.290  -2.825  0.00  0.00    +0.001 A 
ATOM     21  C   UNL     1      -8.717  -2.420  -3.865  0.00  0.00    +0.000 A 
ATOM     22  C   UNL     1      -7.429  -1.956  -4.068  0.00  0.00    +0.001 A 
ATOM     23  C   UNL     1      -6.409  -2.354  -3.228  0.00  0.00    +0.010 A 
ENDBRANCH   4  18
BRANCH   1  24
ATOM     24  C   UNL     1      -1.520  -2.998  -0.858  0.00  0.00    +0.256 C 
ATOM     25  O   UNL     1      -2.015  -2.388  -1.787  0.00  0.00    -0.272 OA
BRANCH  24  26
ATOM     26  C   UNL     1      -0.047  -2.863  -0.568  0.00  0.00    +0.205 C 
BRANCH  26  29
ATOM     27  C   UNL     1       0.713  -0.646  -1.234  0.00  0.00    +0.218 C 
ATOM     28  O   UNL     1       1.124   0.129  -2.071  0.00  0.00    -0.275 OA
ATOM     29  N   UNL     1       0.561  -1.950  -1.539  0.00  0.00    -0.294 N 
BRANCH  27  31
ATOM     30  C   UNL     1       1.171   1.121   0.446  0.00  0.00    +0.017 C 
ATOM     31  C   UNL     1       0.373  -0.151   0.149  0.00  0.00    +0.069 C 
ATOM     32  C   UNL     1      -1.123   0.155   0.227  0.00  0.00    +0.017 C 
ENDBRANCH  27  31
BRANCH  29  33
ATOM     33  C   UNL     1       1.002  -2.453  -2.842  0.00  0.00    +0.090 C 
BRANCH  33  34
ATOM     34  C   UNL     1       2.459  -2.910  -2.745  0.00  0.00    -0.060 C 
BRANCH  34  35
ATOM     35  N   UNL     1       2.902  -3.415  -4.051  0.00  0.00    +0.377 N 
ATOM     36  C   UNL     1       4.333  -3.742  -3.990  0.00  0.00    -0.097 C 
ATOM     37  C   UNL     1       2.139  -4.622  -4.394  0.00  0.00    -0.097 C 
ATOM     38  H   UNL     1       2.748  -2.708  -4.755  0.00  0.00    -0.083 HD
ENDBRANCH  34  35
ENDBRANCH  33  34
ENDBRANCH  29  33
ENDBRANCH  26  29
ENDBRANCH  24  26
ENDBRANCH   1  24
TORSDOF 10
