REMARK  Name = ZINC10603688
REMARK  12 active torsions:
REMARK  status: ('A' for Active; 'I' for Inactive)
REMARK    1  A    between atoms: C_1  and  C_2
REMARK    2  A    between atoms: C_7  and  C_8
REMARK    3  A    between atoms: C_8  and  C_10
REMARK    4  A    between atoms: C_8  and  N_11
REMARK    5  A    between atoms: C_12  and  C_14
REMARK    6  A    between atoms: C_14  and  O_15
REMARK    7  A    between atoms: O_15  and  C_16
REMARK    8  A    between atoms: C_16  and  C_18
REMARK    9  A    between atoms: C_23  and  N_24
REMARK   10  A    between atoms: N_24  and  S_25
REMARK   11  A    between atoms: S_25  and  C_28
REMARK   12  A    between atoms: C_32  and  N_34
REMARK                            x       y       z     vdW  Elec       q    Type
REMARK                         _______ _______ _______ _____ _____    ______ ____
ROOT
ATOM      1  C   UNL     1       4.749  -7.575   3.055  0.00  0.00    +0.081 A 
ATOM      2  C   UNL     1       3.541  -8.235   2.812  0.00  0.00    +0.017 A 
ATOM      3  C   UNL     1       3.362  -9.526   3.255  0.00  0.00    +0.001 A 
ATOM      4  C   UNL     1       4.374 -10.178   3.942  0.00  0.00    +0.002 A 
ATOM      5  C   UNL     1       5.572  -9.541   4.191  0.00  0.00    +0.025 A 
ATOM      6  C   UNL     1       5.774  -8.239   3.747  0.00  0.00    +0.062 A 
ENDROOT
BRANCH   1   7
ATOM      7  C   UNL     1       4.947  -6.193   2.584  0.00  0.00    +0.341 C 
ATOM      8  O   UNL     1       5.999  -5.624   2.798  0.00  0.00    -0.245 OA
BRANCH   7   9
ATOM      9  O   UNL     1       3.963  -5.561   1.916  0.00  0.00    -0.452 OA
BRANCH   9  10
ATOM     10  C   UNL     1       4.228  -4.202   1.481  0.00  0.00    +0.328 C 
BRANCH  10  12
ATOM     11  N   UNL     1       3.039  -2.408   0.261  0.00  0.00    -0.306 N 
ATOM     12  C   UNL     1       3.022  -3.662   0.757  0.00  0.00    +0.251 C 
ATOM     13  O   UNL     1       2.036  -4.354   0.620  0.00  0.00    -0.272 OA
ATOM     14  H   UNL     1       3.828  -1.854   0.370  0.00  0.00    +0.149 HD
BRANCH  11  15
ATOM     15  C   UNL     1       1.867  -1.883  -0.444  0.00  0.00    +0.100 C 
ATOM     16  C   UNL     1       1.922  -2.308  -1.913  0.00  0.00    +0.033 C 
BRANCH  15  23
ATOM     17  C   UNL     1      -0.622  -0.434  -0.669  0.00  0.00    +0.044 C 
ATOM     18  C   UNL     1       0.669   0.314  -0.464  0.00  0.00    -0.046 A 
ATOM     19  C   UNL     1       0.663   1.694  -0.383  0.00  0.00    +0.004 A 
ATOM     20  C   UNL     1       1.848   2.381  -0.194  0.00  0.00    +0.000 A 
ATOM     21  C   UNL     1       3.039   1.688  -0.088  0.00  0.00    +0.000 A 
ATOM     22  C   UNL     1       3.045   0.308  -0.168  0.00  0.00    +0.006 A 
ATOM     23  C   UNL     1       1.860  -0.379  -0.356  0.00  0.00    -0.025 A 
ENDBRANCH  15  23
ENDBRANCH  11  15
ENDBRANCH  10  12
ENDBRANCH   9  10
ENDBRANCH   7   9
ENDBRANCH   1   7
BRANCH   6  24
ATOM     24  N   UNL     1       6.981  -7.598   3.991  0.00  0.00    -0.215 N 
ATOM     25  H   UNL     1       6.996  -6.646   4.178  0.00  0.00    +0.174 HD
BRANCH  24  26
ATOM     26  S   UNL     1       8.396  -8.458   3.962  0.00  0.00    +0.072 S 
ATOM     27  O   UNL     1       9.448  -7.514   4.113  0.00  0.00    -0.150 OA
ATOM     28  O   UNL     1       8.224  -9.554   4.849  0.00  0.00    -0.150 OA
BRANCH  26  29
ATOM     29  C   UNL     1       8.559  -9.139   2.345  0.00  0.00    +0.111 A 
ATOM     30  C   UNL     1       9.212  -8.426   1.357  0.00  0.00    +0.029 A 
ATOM     31  C   UNL     1       9.340  -8.960   0.089  0.00  0.00    +0.004 A 
ATOM     32  C   UNL     1       8.816 -10.209  -0.191  0.00  0.00    +0.033 A 
ATOM     33  C   UNL     1       8.163 -10.922   0.797  0.00  0.00    +0.128 A 
ATOM     34  C   UNL     1       8.040 -10.389   2.067  0.00  0.00    +0.061 A 
BRANCH  33  35
ATOM     35  N   UNL     1       7.602 -12.258   0.497  0.00  0.00    +0.056 N 
ATOM     36  O   UNL     1       7.715 -12.730  -0.620  0.00  0.00    -0.126 OA
ATOM     37  O   UNL     1       7.027 -12.887   1.368  0.00  0.00    -0.126 OA
ENDBRANCH  33  35
ENDBRANCH  26  29
ENDBRANCH  24  26
ENDBRANCH   6  24
TORSDOF 10
