REMARK  Name = ZINC67063679
REMARK  6 active torsions:
REMARK  status: ('A' for Active; 'I' for Inactive)
REMARK    1  A    between atoms: C_1  and  C_2
REMARK    2  A    between atoms: C_3  and  C_8
REMARK    3  A    between atoms: N_6  and  C_7
REMARK    4  A    between atoms: C_8  and  C_10
REMARK    5  A    between atoms: C_8  and  N_11
REMARK    6  A    between atoms: C_18  and  C_22
REMARK                            x       y       z     vdW  Elec       q    Type
REMARK                         _______ _______ _______ _____ _____    ______ ____
ROOT
ATOM      1  N   UNL     1       1.129   0.180  -4.987  0.00  0.00    -0.293 N 
ATOM      2  C   UNL     1       1.028  -1.105  -4.592  0.00  0.00    +0.303 C 
ATOM      3  O   UNL     1       0.620  -1.368  -3.477  0.00  0.00    -0.253 OA
ATOM      4  N   UNL     1       1.379  -2.098  -5.433  0.00  0.00    -0.286 N 
ATOM      5  C   UNL     1       1.142  -3.494  -5.017  0.00  0.00    +0.109 C 
ATOM      6  C   UNL     1       0.585  -4.355  -6.166  0.00  0.00    +0.020 C 
ATOM      7  C   UNL     1      -0.432  -3.570  -6.956  0.00  0.00    +0.010 C 
ATOM      8  C   UNL     1       0.264  -2.863  -8.115  0.00  0.00    +0.021 C 
ATOM      9  C   UNL     1       0.858  -1.564  -7.764  0.00  0.00    +0.027 C 
ATOM     10  C   UNL     1       1.967  -1.751  -6.707  0.00  0.00    +0.110 C 
ATOM     11  H   UNL     1       1.522   0.393  -5.848  0.00  0.00    +0.151 HD
ENDROOT
BRANCH   8  12
ATOM     12  C   UNL     1      -0.743  -2.643  -9.215  0.00  0.00    -0.044 A 
ATOM     13  C   UNL     1      -1.872  -1.882  -8.977  0.00  0.00    +0.004 A 
ATOM     14  C   UNL     1      -2.795  -1.680  -9.986  0.00  0.00    +0.000 A 
ATOM     15  C   UNL     1      -2.589  -2.239 -11.233  0.00  0.00    +0.000 A 
ATOM     16  C   UNL     1      -1.460  -2.999 -11.472  0.00  0.00    +0.000 A 
ATOM     17  C   UNL     1      -0.534  -3.198 -10.464  0.00  0.00    +0.004 A 
ENDBRANCH   8  12
BRANCH   1  18
ATOM     18  C   UNL     1       0.646   1.254  -4.115  0.00  0.00    +0.105 C 
ATOM     19  C   UNL     1       1.740   1.629  -3.114  0.00  0.00    +0.033 C 
BRANCH  18  22
ATOM     20  C   UNL     1      -1.227   3.608  -3.257  0.00  0.00    +0.065 C 
ATOM     21  C   UNL     1      -0.514   3.477  -4.578  0.00  0.00    +0.041 A 
ATOM     22  C   UNL     1       0.296   2.459  -4.950  0.00  0.00    +0.013 A 
ATOM     23  C   UNL     1       0.751   2.722  -6.247  0.00  0.00    +0.140 A 
ATOM     24  N   UNL     1       0.232   3.858  -6.639  0.00  0.00    -0.179 NA
ATOM     25  N   UNL     1      -0.574   4.351  -5.605  0.00  0.00    -0.271 N 
ATOM     26  C   UNL     1      -1.344   5.597  -5.632  0.00  0.00    +0.172 C 
ENDBRANCH  18  22
ENDBRANCH   1  18
TORSDOF 3
