REMARK  Name = ZINC35042205
REMARK  3 active torsions:
REMARK  status: ('A' for Active; 'I' for Inactive)
REMARK    1  A    between atoms: C_6  and  C_7
REMARK    2  A    between atoms: C_7  and  N_8
REMARK    3  A    between atoms: N_8  and  C_9
REMARK                            x       y       z     vdW  Elec       q    Type
REMARK                         _______ _______ _______ _____ _____    ______ ____
ROOT
ATOM      1  C   UNL     1      -2.910  -1.720  -1.616  0.00  0.00    +0.044 A 
ATOM      2  C   UNL     1      -3.677  -2.181  -0.556  0.00  0.00    +0.051 A 
ATOM      3  C   UNL     1      -4.850  -2.876  -0.805  0.00  0.00    +0.069 A 
ATOM      4  C   UNL     1      -5.256  -3.110  -2.121  0.00  0.00    +0.068 A 
ATOM      5  C   UNL     1      -4.486  -2.647  -3.176  0.00  0.00    +0.045 A 
ATOM      6  C   UNL     1      -3.320  -1.949  -2.925  0.00  0.00    +0.041 A 
ATOM      7 BR   UNL     1      -2.274  -1.312  -4.366  0.00  0.00    -0.048 Br
ATOM      8  N   UNL     1      -6.454  -3.822  -2.051  0.00  0.00    -0.306 N 
ATOM      9  H   UNL     1      -6.977  -4.128  -2.809  0.00  0.00    +0.170 HD
ATOM     10  C   UNL     1      -6.760  -4.011  -0.754  0.00  0.00    +0.325 A 
ATOM     11  O   UNL     1      -7.744  -4.597  -0.345  0.00  0.00    -0.247 OA
ATOM     12  N   UNL     1      -5.812  -3.452   0.022  0.00  0.00    -0.306 N 
ATOM     13  H   UNL     1      -5.800  -3.451   0.992  0.00  0.00    +0.170 HD
ENDROOT
BRANCH   1  14
ATOM     14  N   UNL     1      -1.726  -1.017  -1.368  0.00  0.00    -0.339 N 
ATOM     15  H   UNL     1      -1.191  -0.691  -2.109  0.00  0.00    +0.146 HD
BRANCH  14  16
ATOM     16  C   UNL     1      -1.293  -0.775   0.010  0.00  0.00    +0.137 C 
BRANCH  16  22
ATOM     17  C   UNL     1      -0.017   1.378   0.010  0.00  0.00    +0.006 A 
ATOM     18  C   UNL     1       1.171   2.086   0.002  0.00  0.00    +0.015 A 
ATOM     19  C   UNL     1       2.378   1.411  -0.013  0.00  0.00    +0.018 A 
ATOM     20  C   UNL     1       2.396   0.027  -0.021  0.00  0.00    +0.015 A 
ATOM     21  C   UNL     1       1.208  -0.679  -0.013  0.00  0.00    +0.006 A 
ATOM     22  C   UNL     1       0.002  -0.004   0.002  0.00  0.00    -0.030 A 
ATOM     23 BR   UNL     1       4.003   2.378  -0.024  0.00  0.00    -0.050 Br
ENDBRANCH  16  22
ENDBRANCH  14  16
ENDBRANCH   1  14
TORSDOF 3
