REMARK  Name = ZINC14023620
REMARK  10 active torsions:
REMARK  status: ('A' for Active; 'I' for Inactive)
REMARK    1  A    between atoms: C_1  and  C_2
REMARK    2  A    between atoms: C_7  and  C_8
REMARK    3  A    between atoms: N_12  and  C_13
REMARK    4  A    between atoms: C_13  and  C_14
REMARK    5  A    between atoms: C_14  and  N_66
REMARK    6  A    between atoms: C_15  and  N_66
REMARK    7  A    between atoms: C_16  and  N_66
REMARK    8  A    between atoms: C_17  and  C_19
REMARK    9  A    between atoms: N_24  and  S_26
REMARK   10  A    between atoms: S_26  and  C_29
REMARK                            x       y       z     vdW  Elec       q    Type
REMARK                         _______ _______ _______ _____ _____    ______ ____
ROOT
ATOM      1  C   UNL     1       1.150  -3.015  -8.391  0.00  0.00    +0.044 C 
ATOM      2  C   UNL     1       1.802  -1.986  -7.503  0.00  0.00    -0.045 A 
ATOM      3  C   UNL     1       3.110  -1.601  -7.758  0.00  0.00    +0.005 A 
ATOM      4  C   UNL     1       3.709  -0.658  -6.944  0.00  0.00    +0.017 A 
ATOM      5  C   UNL     1       3.003  -0.117  -5.899  0.00  0.00    +0.041 A 
ATOM      6  C   UNL     1       1.669  -0.484  -5.610  0.00  0.00    +0.083 A 
ATOM      7  C   UNL     1       1.088  -1.451  -6.463  0.00  0.00    -0.021 A 
ATOM      8  C   UNL     1      -0.331  -1.899  -6.225  0.00  0.00    +0.046 C 
ATOM      9  N   UNL     1       1.110   0.132  -4.546  0.00  0.00    -0.224 NA
ATOM     10  C   UNL     1       1.754   1.024  -3.829  0.00  0.00    +0.168 A 
ATOM     11  S   UNL     1       3.347   1.083  -4.635  0.00  0.00    -0.052 S 
ATOM     12  N   UNL     1       1.312   1.733  -2.724  0.00  0.00    -0.252 N 
ATOM     13  C   UNL     1       0.060   1.547  -2.260  0.00  0.00    +0.226 C 
ATOM     14  O   UNL     1      -0.638   0.674  -2.731  0.00  0.00    -0.275 OA
ENDROOT
BRANCH  13  15
ATOM     15  C   UNL     1      -0.472   2.422  -1.154  0.00  0.00    +0.091 C 
ATOM     16  C   UNL     1      -0.089   1.823   0.201  0.00  0.00    +0.015 C 
ATOM     17  C   UNL     1      -0.600   2.729   1.323  0.00  0.00    +0.018 C 
ATOM     18  C   UNL     1      -2.127   2.817   1.248  0.00  0.00    +0.109 C 
ATOM     19  N   UNL     1      -2.510   3.254  -0.102  0.00  0.00    -0.176 NA
ATOM     20  C   UNL     1      -1.998   2.507  -1.258  0.00  0.00    +0.122 C 
BRANCH  19  21
ATOM     21  S   UNL     1      -3.499   4.565  -0.315  0.00  0.00    +0.061 S 
ATOM     22  O   UNL     1      -3.365   5.369   0.849  0.00  0.00    -0.153 OA
ATOM     23  O   UNL     1      -3.238   5.063  -1.620  0.00  0.00    -0.153 OA
BRANCH  21  24
ATOM     24  C   UNL     1      -5.158   3.969  -0.327  0.00  0.00    +0.105 A 
ATOM     25  C   UNL     1      -5.749   3.593  -1.519  0.00  0.00    +0.028 A 
ATOM     26  C   UNL     1      -7.048   3.121  -1.528  0.00  0.00    +0.002 A 
ATOM     27  C   UNL     1      -7.760   3.034  -0.346  0.00  0.00    +0.000 A 
ATOM     28  C   UNL     1      -7.170   3.415   0.845  0.00  0.00    +0.002 A 
ATOM     29  C   UNL     1      -5.869   3.882   0.855  0.00  0.00    +0.028 A 
ENDBRANCH  21  24
ENDBRANCH  19  21
ENDBRANCH  13  15
BRANCH  12  30
ATOM     30  C   UNL     1       2.205   2.686  -2.061  0.00  0.00    +0.097 C 
BRANCH  30  31
ATOM     31  C   UNL     1       3.151   1.932  -1.124  0.00  0.00    -0.060 C 
BRANCH  31  34
ATOM     32  C   UNL     1       4.696   2.223   0.717  0.00  0.00    -0.097 C 
ATOM     33  C   UNL     1       4.855   3.649  -1.233  0.00  0.00    -0.097 C 
ATOM     34  N   UNL     1       3.932   2.914  -0.343  0.00  0.00    +0.377 N 
ATOM     35  H   UNL     1       3.286   3.582   0.093  0.00  0.00    -0.083 HD
ENDBRANCH  31  34
ENDBRANCH  30  31
ENDBRANCH  12  30
TORSDOF 6
