REMARK  Name = ZINC07061606
REMARK  3 active torsions:
REMARK  status: ('A' for Active; 'I' for Inactive)
REMARK    1  A    between atoms: C_1  and  C_2
REMARK    2  A    between atoms: C_7  and  N_8
REMARK    3  A    between atoms: C_9  and  C_11
REMARK                            x       y       z     vdW  Elec       q    Type
REMARK                         _______ _______ _______ _____ _____    ______ ____
ROOT
ATOM      1  N   UNL     1      -0.011   0.966   0.007  0.00  0.00    -0.281 N 
ATOM      2  C   UNL     1       1.200   1.556  -0.016  0.00  0.00    +0.248 C 
ATOM      3  O   UNL     1       1.286   2.765  -0.111  0.00  0.00    -0.270 OA
ATOM      4  H   UNL     1      -0.079  -0.002   0.016  0.00  0.00    +0.155 HD
ENDROOT
BRANCH   2   5
ATOM      5  C   UNL     1       2.423   0.735   0.072  0.00  0.00    +0.042 A 
ATOM      6  C   UNL     1       3.681   1.345   0.042  0.00  0.00    +0.062 A 
ATOM      7  C   UNL     1       4.819   0.569   0.129  0.00  0.00    +0.164 A 
ATOM      8  C   UNL     1       4.716  -0.813   0.237  0.00  0.00    +0.180 A 
ATOM      9  C   UNL     1       3.470  -1.423   0.263  0.00  0.00    +0.087 A 
ATOM     10  C   UNL     1       2.326  -0.655   0.181  0.00  0.00    +0.037 A 
ATOM     11 CL   UNL     1       3.349  -3.150   0.398  0.00  0.00    -0.080 Cl
ATOM     12  O   UNL     1       5.849  -1.567   0.316  0.00  0.00    -0.487 OA
ATOM     13  C   UNL     1       6.612  -1.425   1.516  0.00  0.00    +0.232 C 
ATOM     14  C   UNL     1       7.550  -0.232   1.422  0.00  0.00    +0.082 C 
ATOM     15  C   UNL     1       6.799   1.087   1.321  0.00  0.00    +0.232 C 
ATOM     16  O   UNL     1       6.052   1.154   0.105  0.00  0.00    -0.488 OA
ENDBRANCH   2   5
BRANCH   1  23
ATOM     17  C   UNL     1      -2.262   0.022   1.469  0.00  0.00    +0.046 C 
ATOM     18  C   UNL     1      -2.292   1.325   0.714  0.00  0.00    -0.028 A 
ATOM     19  C   UNL     1      -3.433   2.103   0.723  0.00  0.00    +0.025 A 
ATOM     20  C   UNL     1      -3.464   3.297   0.025  0.00  0.00    +0.041 A 
ATOM     21  C   UNL     1      -2.349   3.719  -0.679  0.00  0.00    +0.022 A 
ATOM     22  C   UNL     1      -1.204   2.948  -0.687  0.00  0.00    +0.025 A 
ATOM     23  C   UNL     1      -1.171   1.749   0.013  0.00  0.00    +0.037 A 
ATOM     24 CL   UNL     1      -4.903   4.269   0.032  0.00  0.00    -0.084 Cl
ENDBRANCH   1  23
TORSDOF 2
