REMARK  Name = ZINC39197014
REMARK  11 active torsions:
REMARK  status: ('A' for Active; 'I' for Inactive)
REMARK    1  A    between atoms: C_1  and  C_2
REMARK    2  A    between atoms: C_2  and  C_3
REMARK    3  A    between atoms: C_2  and  C_4
REMARK    4  A    between atoms: C_2  and  C_5
REMARK    5  A    between atoms: C_7  and  C_29
REMARK    6  A    between atoms: N_8  and  C_10
REMARK    7  A    between atoms: C_13  and  C_16
REMARK    8  A    between atoms: N_18  and  C_19
REMARK    9  A    between atoms: C_29  and  C_30
REMARK   10  A    between atoms: C_29  and  C_31
REMARK   11  A    between atoms: C_29  and  C_32
REMARK                            x       y       z     vdW  Elec       q    Type
REMARK                         _______ _______ _______ _____ _____    ______ ____
ROOT
ATOM      1  C   UNL     1       0.317  -2.397  -4.157  0.00  0.00    +0.066 A 
ATOM      2  C   UNL     1       1.634  -2.657  -4.517  0.00  0.00    +0.028 A 
ATOM      3  C   UNL     1       1.908  -3.478  -5.589  0.00  0.00    +0.015 A 
ATOM      4  C   UNL     1       0.859  -4.051  -6.313  0.00  0.00    +0.037 A 
ATOM      5  C   UNL     1      -0.463  -3.787  -5.948  0.00  0.00    +0.015 A 
ATOM      6  C   UNL     1      -0.729  -2.969  -4.873  0.00  0.00    +0.028 A 
ENDROOT
BRANCH   1  10
ATOM      7  C   UNL     1      -0.701  -0.880  -1.118  0.00  0.00    +0.069 A 
ATOM      8  C   UNL     1      -0.057   0.186  -1.758  0.00  0.00    +0.049 A 
ATOM      9  C   UNL     1       0.393  -0.255  -2.955  0.00  0.00    +0.051 A 
ATOM     10  N   UNL     1       0.043  -1.563  -3.069  0.00  0.00    -0.236 N 
ATOM     11  N   UNL     1      -0.636  -1.928  -1.899  0.00  0.00    -0.171 NA
BRANCH   7  13
ATOM     12  C   UNL     1      -2.684  -0.087   0.141  0.00  0.00    +0.017 C 
ATOM     13  C   UNL     1      -1.351  -0.831   0.240  0.00  0.00    +0.006 C 
ATOM     14  C   UNL     1      -0.431  -0.099   1.220  0.00  0.00    +0.017 C 
ATOM     15  C   UNL     1      -1.597  -2.256   0.739  0.00  0.00    +0.017 C 
ENDBRANCH   7  13
BRANCH   9  16
ATOM     16  C   UNL     1       1.145   0.557  -3.977  0.00  0.00    +0.005 C 
ATOM     17  C   UNL     1       2.611   0.676  -3.556  0.00  0.00    +0.017 C 
ATOM     18  C   UNL     1       1.060  -0.133  -5.340  0.00  0.00    +0.017 C 
ATOM     19  C   UNL     1       0.527   1.954  -4.074  0.00  0.00    +0.017 C 
ENDBRANCH   9  16
ENDBRANCH   1  10
BRANCH   4  20
ATOM     20  C   UNL     1       1.148  -4.931  -7.463  0.00  0.00    +0.244 C 
ATOM     21  O   UNL     1       2.300  -5.159  -7.780  0.00  0.00    -0.270 OA
ATOM     22  N   UNL     1       0.136  -5.482  -8.161  0.00  0.00    -0.306 N 
ATOM     23  H   UNL     1      -0.783  -5.301  -7.908  0.00  0.00    +0.150 HD
BRANCH  22  24
ATOM     24  C   UNL     1       0.422  -6.356  -9.302  0.00  0.00    +0.036 C 
ATOM     25  C   UNL     1       1.243  -7.558  -8.830  0.00  0.00    +0.029 C 
ATOM     26  C   UNL     1       1.543  -8.470 -10.021  0.00  0.00    -0.008 C 
ATOM     27  C   UNL     1       0.228  -8.959 -10.632  0.00  0.00    +0.007 C 
ATOM     28  C   UNL     1      -0.593  -7.757 -11.104  0.00  0.00    -0.008 C 
ATOM     29  C   UNL     1      -0.892  -6.845  -9.913  0.00  0.00    +0.029 C 
ATOM     30  C   UNL     1       0.201  -6.979 -12.156  0.00  0.00    +0.007 C 
ATOM     31  C   UNL     1       1.515  -6.490 -11.544  0.00  0.00    -0.008 C 
ATOM     32  C   UNL     1       2.336  -7.692 -11.072  0.00  0.00    +0.007 C 
ATOM     33  C   UNL     1       1.216  -5.578 -10.353  0.00  0.00    +0.029 C 
ENDBRANCH  22  24
ENDBRANCH   4  20
TORSDOF 5
