REMARK  Name = ZINC35005860
REMARK  13 active torsions:
REMARK  status: ('A' for Active; 'I' for Inactive)
REMARK    1  A    between atoms: C_1  and  C_2
REMARK    2  A    between atoms: C_2  and  C_3
REMARK    3  A    between atoms: C_3  and  C_4
REMARK    4  A    between atoms: C_4  and  C_5
REMARK    5  A    between atoms: C_5  and  C_6
REMARK    6  A    between atoms: N_8  and  C_9
REMARK    7  A    between atoms: N_8  and  C_14
REMARK    8  A    between atoms: C_9  and  C_10
REMARK    9  A    between atoms: C_10  and  C_11
REMARK   10  A    between atoms: C_11  and  C_12
REMARK   11  A    between atoms: C_11  and  C_13
REMARK   12  A    between atoms: C_14  and  C_15
REMARK   13  A    between atoms: C_26  and  C_28
REMARK                            x       y       z     vdW  Elec       q    Type
REMARK                         _______ _______ _______ _____ _____    ______ ____
ROOT
ATOM      1  C   UNL     1       2.078  -6.153  -3.560  0.00  0.00    +0.203 C 
ENDROOT
BRANCH   1   2
ATOM      2  C   UNL     1       0.848  -6.668  -4.262  0.00  0.00    +0.233 C 
ATOM      3  O   UNL     1       0.035  -5.888  -4.711  0.00  0.00    -0.274 OA
ATOM      4  N   UNL     1       0.652  -7.995  -4.390  0.00  0.00    -0.293 N 
ATOM      5  C   UNL     1       1.617  -8.968  -3.851  0.00  0.00    +0.113 C 
ATOM      6  C   UNL     1       2.213  -9.739  -5.027  0.00  0.00    +0.054 C 
ATOM      7  C   UNL     1       1.131 -10.211  -5.963  0.00  0.00    -0.041 A 
ATOM      8  C   UNL     1       1.435 -11.260  -6.822  0.00  0.00    +0.004 A 
ATOM      9  C   UNL     1       0.493 -11.734  -7.711  0.00  0.00    +0.000 A 
ATOM     10  C   UNL     1      -0.765 -11.162  -7.750  0.00  0.00    +0.000 A 
ATOM     11  C   UNL     1      -1.070 -10.123  -6.896  0.00  0.00    +0.006 A 
ATOM     12  C   UNL     1      -0.125  -9.649  -5.997  0.00  0.00    -0.024 A 
ATOM     13  C   UNL     1      -0.535  -8.529  -5.067  0.00  0.00    +0.103 C 
ATOM     14  C   UNL     1      -1.520  -9.062  -4.025  0.00  0.00    +0.033 C 
ENDBRANCH   1   2
BRANCH   1  17
ATOM     15  C   UNL     1       1.476  -4.028  -2.532  0.00  0.00    +0.216 C 
ATOM     16  O   UNL     1       0.967  -4.646  -1.621  0.00  0.00    -0.276 OA
ATOM     17  N   UNL     1       2.058  -4.688  -3.552  0.00  0.00    -0.293 N 
BRANCH  15  18
ATOM     18  C   UNL     1       1.455  -2.521  -2.524  0.00  0.00    +0.096 C 
BRANCH  18  19
ATOM     19  C   UNL     1       0.739  -2.027  -1.265  0.00  0.00    +0.009 C 
BRANCH  19  20
ATOM     20  C   UNL     1       0.718  -0.497  -1.257  0.00  0.00    +0.000 C 
BRANCH  20  22
ATOM     21  C   UNL     1      -0.019   1.526   0.010  0.00  0.00    +0.004 C 
ATOM     22  C   UNL     1       0.002  -0.004   0.002  0.00  0.00    -0.003 C 
ENDBRANCH  20  22
ENDBRANCH  19  20
ENDBRANCH  18  19
ENDBRANCH  15  18
BRANCH  17  23
ATOM     23  C   UNL     1       2.672  -3.941  -4.653  0.00  0.00    +0.108 C 
BRANCH  23  24
ATOM     24  C   UNL     1       4.142  -3.668  -4.327  0.00  0.00    +0.022 C 
BRANCH  24  25
ATOM     25  C   UNL     1       4.783  -2.888  -5.476  0.00  0.00    -0.016 C 
ATOM     26  C   UNL     1       6.216  -2.506  -5.097  0.00  0.00    +0.007 C 
ATOM     27  C   UNL     1       4.803  -3.758  -6.735  0.00  0.00    +0.007 C 
ENDBRANCH  24  25
ENDBRANCH  23  24
ENDBRANCH  17  23
ENDBRANCH   1  17
TORSDOF 9
