REMARK  Name = ZINC35226226
REMARK  9 active torsions:
REMARK  status: ('A' for Active; 'I' for Inactive)
REMARK    1  A    between atoms: C_1  and  C_2
REMARK    2  A    between atoms: C_5  and  N_8
REMARK    3  A    between atoms: C_9  and  C_21
REMARK    4  A    between atoms: C_12  and  S_13
REMARK    5  A    between atoms: S_13  and  C_14
REMARK    6  A    between atoms: C_14  and  C_15
REMARK    7  A    between atoms: C_21  and  C_23
REMARK    8  A    between atoms: C_21  and  N_24
REMARK    9  A    between atoms: N_27  and  C_28
REMARK                            x       y       z     vdW  Elec       q    Type
REMARK                         _______ _______ _______ _____ _____    ______ ____
ROOT
ATOM      1  N   UNL     1       0.058  -4.173  -0.021  0.00  0.00    -0.273 N 
ATOM      2  C   UNL     1      -0.920  -5.016   0.436  0.00  0.00    +0.159 A 
ATOM      3  N   UNL     1      -0.502  -6.235   0.242  0.00  0.00    -0.131 NA
ATOM      4  N   UNL     1       0.663  -6.223  -0.301  0.00  0.00    -0.122 NA
ATOM      5  C   UNL     1       1.054  -4.984  -0.491  0.00  0.00    +0.196 A 
ENDROOT
BRANCH   1  10
ATOM      6  C   UNL     1      -0.018   1.503   0.010  0.00  0.00    +0.044 C 
ATOM      7  C   UNL     1       0.002  -0.004   0.002  0.00  0.00    -0.050 A 
ATOM      8  C   UNL     1       0.006  -0.688  -1.200  0.00  0.00    +0.005 A 
ATOM      9  C   UNL     1       0.024  -2.069  -1.211  0.00  0.00    +0.026 A 
ATOM     10  C   UNL     1       0.040  -2.771  -0.013  0.00  0.00    +0.050 A 
ATOM     11  C   UNL     1       0.036  -2.082   1.192  0.00  0.00    +0.026 A 
ATOM     12  C   UNL     1       0.023  -0.700   1.196  0.00  0.00    +0.005 A 
ENDBRANCH   1  10
BRANCH   2  13
ATOM     13  C   UNL     1      -2.235  -4.610   1.049  0.00  0.00    +0.140 C 
ATOM     14  C   UNL     1      -3.361  -4.832   0.037  0.00  0.00    +0.036 C 
BRANCH  13  15
ATOM     15  N   UNL     1      -2.487  -5.418   2.244  0.00  0.00    -0.290 N 
ATOM     16  C   UNL     1      -3.285  -4.945   3.222  0.00  0.00    +0.300 C 
ATOM     17  O   UNL     1      -3.796  -3.847   3.112  0.00  0.00    -0.253 OA
ATOM     18  N   UNL     1      -3.516  -5.689   4.322  0.00  0.00    -0.297 N 
ATOM     19  H   UNL     1      -2.079  -6.294   2.332  0.00  0.00    +0.151 HD
ATOM     20  H   UNL     1      -3.109  -6.565   4.410  0.00  0.00    +0.151 HD
BRANCH  18  21
ATOM     21  C   UNL     1      -4.384  -5.175   5.385  0.00  0.00    +0.074 C 
ATOM     22  C   UNL     1      -5.843  -5.485   5.047  0.00  0.00    +0.022 C 
ATOM     23  C   UNL     1      -6.749  -4.948   6.157  0.00  0.00    +0.002 C 
ATOM     24  C   UNL     1      -6.380  -5.615   7.483  0.00  0.00    +0.000 C 
ATOM     25  C   UNL     1      -4.921  -5.305   7.822  0.00  0.00    +0.002 C 
ATOM     26  C   UNL     1      -4.015  -5.842   6.712  0.00  0.00    +0.022 C 
ENDBRANCH  18  21
ENDBRANCH  13  15
ENDBRANCH   2  13
BRANCH   5  27
ATOM     27  S   UNL     1       2.576  -4.465  -1.212  0.00  0.00    -0.081 S 
BRANCH  27  28
ATOM     28  C   UNL     1       3.425  -6.017  -1.612  0.00  0.00    +0.112 C 
BRANCH  28  29
ATOM     29  C   UNL     1       4.759  -5.712  -2.243  0.00  0.00    -0.037 A 
ATOM     30  C   UNL     1       4.857  -5.568  -3.614  0.00  0.00    +0.004 A 
ATOM     31  C   UNL     1       6.081  -5.288  -4.194  0.00  0.00    +0.000 A 
ATOM     32  C   UNL     1       7.206  -5.153  -3.401  0.00  0.00    +0.000 A 
ATOM     33  C   UNL     1       7.107  -5.296  -2.030  0.00  0.00    +0.000 A 
ATOM     34  C   UNL     1       5.882  -5.571  -1.451  0.00  0.00    +0.004 A 
ENDBRANCH  28  29
ENDBRANCH  27  28
ENDBRANCH   5  27
TORSDOF 7
