REMARK  Name = ZINC46650974
REMARK  8 active torsions:
REMARK  status: ('A' for Active; 'I' for Inactive)
REMARK    1  A    between atoms: C_1  and  C_2
REMARK    2  A    between atoms: C_10  and  C_11
REMARK    3  A    between atoms: C_11  and  C_13
REMARK    4  A    between atoms: C_11  and  N_14
REMARK    5  A    between atoms: C_15  and  C_17
REMARK    6  A    between atoms: C_24  and  C_31
REMARK    7  A    between atoms: N_26  and  S_27
REMARK    8  A    between atoms: S_27  and  C_30
REMARK                            x       y       z     vdW  Elec       q    Type
REMARK                         _______ _______ _______ _____ _____    ______ ____
ROOT
ATOM      1  N   UNL     1       1.025  -1.119   3.258  0.00  0.00    -0.302 N 
ATOM      2  C   UNL     1       1.577  -0.595   4.370  0.00  0.00    +0.245 C 
ATOM      3  O   UNL     1       1.250   0.514   4.747  0.00  0.00    -0.270 OA
ATOM      4  H   UNL     1       1.286  -2.003   2.958  0.00  0.00    +0.150 HD
ENDROOT
BRANCH   2   5
ATOM      5  C   UNL     1       2.578  -1.366   5.131  0.00  0.00    +0.037 A 
ATOM      6  C   UNL     1       2.962  -2.639   4.699  0.00  0.00    +0.015 A 
ATOM      7  C   UNL     1       3.895  -3.355   5.409  0.00  0.00    +0.026 A 
ATOM      8  C   UNL     1       4.468  -2.820   6.569  0.00  0.00    +0.054 A 
ATOM      9  C   UNL     1       4.083  -1.554   6.994  0.00  0.00    -0.022 A 
ATOM     10  C   UNL     1       3.154  -0.828   6.285  0.00  0.00    +0.018 A 
ATOM     11  C   UNL     1       4.846  -1.221   8.257  0.00  0.00    +0.061 C 
ATOM     12  C   UNL     1       5.725  -2.457   8.512  0.00  0.00    +0.099 C 
ATOM     13  N   UNL     1       5.417  -3.380   7.417  0.00  0.00    -0.204 N 
ATOM     14  C   UNL     1       5.372  -3.091   9.859  0.00  0.00    +0.030 C 
BRANCH  13  15
ATOM     15  S   UNL     1       6.100  -4.875   7.218  0.00  0.00    +0.043 S 
ATOM     16  O   UNL     1       6.480  -5.277   8.527  0.00  0.00    -0.155 OA
ATOM     17  O   UNL     1       5.137  -5.619   6.483  0.00  0.00    -0.155 OA
ATOM     18  C   UNL     1       7.573  -4.583   6.200  0.00  0.00    +0.218 C 
ENDBRANCH  13  15
ENDBRANCH   2   5
BRANCH   1  19
ATOM     19  C   UNL     1       0.030  -0.352   2.503  0.00  0.00    +0.137 C 
ATOM     20  C   UNL     1      -1.354  -0.570   3.116  0.00  0.00    +0.036 C 
BRANCH  19  30
ATOM     21  C   UNL     1      -0.018   1.503   0.010  0.00  0.00    +0.048 C 
ATOM     22  C   UNL     1       0.002  -0.004   0.002  0.00  0.00    +0.000 A 
ATOM     23  C   UNL     1       0.009  -0.879  -1.177  0.00  0.00    +0.023 A 
ATOM     24  C   UNL     1       0.000  -0.660  -2.553  0.00  0.00    +0.012 A 
ATOM     25  C   UNL     1       0.011  -1.726  -3.409  0.00  0.00    +0.001 A 
ATOM     26  C   UNL     1       0.031  -3.023  -2.916  0.00  0.00    +0.004 A 
ATOM     27  C   UNL     1       0.040  -3.259  -1.558  0.00  0.00    +0.047 A 
ATOM     28  C   UNL     1       0.029  -2.190  -0.671  0.00  0.00    +0.136 A 
ATOM     29  O   UNL     1       0.033  -2.100   0.674  0.00  0.00    -0.458 OA
ATOM     30  C   UNL     1       0.023  -0.814   1.069  0.00  0.00    +0.129 A 
ENDBRANCH  19  30
ENDBRANCH   1  19
TORSDOF 4
