REMARK  Name = ZINC22062525
REMARK  6 active torsions:
REMARK  status: ('A' for Active; 'I' for Inactive)
REMARK    1  A    between atoms: C_1  and  C_2
REMARK    2  A    between atoms: C_3  and  C_26
REMARK    3  A    between atoms: C_7  and  N_16
REMARK    4  A    between atoms: C_9  and  C_11
REMARK    5  A    between atoms: C_19  and  C_22
REMARK    6  A    between atoms: N_24  and  C_25
REMARK                            x       y       z     vdW  Elec       q    Type
REMARK                         _______ _______ _______ _____ _____    ______ ____
ROOT
ATOM      1  C   UNL     1       1.270  -2.117   0.014  0.00  0.00    +0.045 C 
ATOM      2  C   UNL     1       1.125  -0.617   0.020  0.00  0.00    -0.028 A 
ATOM      3  C   UNL     1       2.212   0.170   0.030  0.00  0.00    -0.008 A 
ATOM      4  S   UNL     1       1.533   1.818   0.034  0.00  0.00    -0.073 S 
ATOM      5  C   UNL     1      -0.192   1.407   0.022  0.00  0.00    +0.114 A 
ATOM      6  C   UNL     1      -0.193  -0.007   0.015  0.00  0.00    +0.051 A 
ATOM      7  C   UNL     1      -1.477  -0.620   0.005  0.00  0.00    +0.134 A 
ATOM      8  N   UNL     1      -2.558   0.140   0.003  0.00  0.00    -0.211 NA
ATOM      9  C   UNL     1      -2.486   1.470   0.009  0.00  0.00    +0.169 A 
ATOM     10  N   UNL     1      -1.314   2.096   0.023  0.00  0.00    -0.219 NA
ATOM     11  C   UNL     1       3.661  -0.243   0.037  0.00  0.00    +0.052 C 
ENDROOT
BRANCH   7  12
ATOM     12  N   UNL     1      -1.593  -1.998  -0.002  0.00  0.00    -0.315 N 
ATOM     13  C   UNL     1      -2.122  -2.476  -1.286  0.00  0.00    +0.107 C 
ATOM     14  C   UNL     1      -2.099  -4.006  -1.311  0.00  0.00    +0.031 C 
ATOM     15  C   UNL     1      -2.950  -4.543  -0.156  0.00  0.00    +0.078 C 
ATOM     16  C   UNL     1      -2.408  -3.992   1.166  0.00  0.00    +0.031 C 
ATOM     17  C   UNL     1      -2.421  -2.462   1.119  0.00  0.00    +0.107 C 
BRANCH  15  18
ATOM     18  C   UNL     1      -2.883  -6.048  -0.139  0.00  0.00    +0.216 C 
ATOM     19  O   UNL     1      -2.446  -6.625   0.834  0.00  0.00    -0.276 OA
ATOM     20  N   UNL     1      -3.310  -6.753  -1.206  0.00  0.00    -0.318 N 
ATOM     21  C   UNL     1      -3.245  -8.217  -1.189  0.00  0.00    +0.128 C 
ATOM     22  H   UNL     1      -3.707  -6.230  -2.088  0.00  0.00    +0.148 HD
ENDBRANCH  15  18
ENDBRANCH   7  12
BRANCH   9  23
ATOM     23  C   UNL     1      -3.731   2.262   0.007  0.00  0.00    +0.056 A 
ATOM     24  C   UNL     1      -3.888   3.624   0.018  0.00  0.00    +0.019 A 
ATOM     25  C   UNL     1      -5.162   4.143   0.008  0.00  0.00    +0.008 A 
ATOM     26  C   UNL     1      -6.223   3.293  -0.001  0.00  0.00    +0.046 A 
ATOM     27  S   UNL     1      -5.424   1.697  -0.004  0.00  0.00    -0.094 S 
ENDBRANCH   9  23
TORSDOF 3
