REMARK  Name = ZINC39688608
REMARK  8 active torsions:
REMARK  status: ('A' for Active; 'I' for Inactive)
REMARK    1  A    between atoms: C_1  and  C_2
REMARK    2  A    between atoms: C_2  and  C_4
REMARK    3  A    between atoms: C_2  and  N_12
REMARK    4  A    between atoms: C_4  and  C_5
REMARK    5  A    between atoms: C_13  and  C_15
REMARK    6  A    between atoms: C_26  and  C_28
REMARK    7  A    between atoms: C_28  and  O_29
REMARK    8  A    between atoms: O_29  and  C_30
REMARK                            x       y       z     vdW  Elec       q    Type
REMARK                         _______ _______ _______ _____ _____    ______ ____
ROOT
ATOM      1  C   UNL     1      -3.465  -1.164  -1.134  0.00  0.00    +0.100 C 
ATOM      2  C   UNL     1      -4.361  -0.271  -0.248  0.00  0.00    +0.121 C 
ATOM      3  N   UNL     1      -4.986   0.686  -1.192  0.00  0.00    -0.297 N 
ATOM      4  C   UNL     1      -5.291  -0.128  -2.393  0.00  0.00    +0.115 C 
ATOM      5  C   UNL     1      -4.080  -1.071  -2.540  0.00  0.00    -0.004 C 
ATOM      6  C   UNL     1      -4.538  -2.449  -3.009  0.00  0.00    -0.010 C 
ATOM      7  C   UNL     1      -5.093  -2.341  -4.432  0.00  0.00    -0.082 C 
ATOM      8  N   UNL     1      -4.053  -1.817  -5.326  0.00  0.00    +0.379 N 
ATOM      9  C   UNL     1      -3.685  -0.455  -4.923  0.00  0.00    -0.082 C 
ATOM     10  C   UNL     1      -3.071  -0.483  -3.521  0.00  0.00    -0.010 C 
ATOM     11  C   UNL     1      -5.223   1.999  -1.002  0.00  0.00    +0.253 C 
ATOM     12  O   UNL     1      -5.747   2.654  -1.878  0.00  0.00    -0.272 OA
ATOM     13  H   UNL     1      -3.240  -2.412  -5.278  0.00  0.00    -0.086 HD
ATOM     14  H   UNL     1      -4.401  -1.804  -6.273  0.00  0.00    -0.086 HD
ENDROOT
BRANCH   1  16
ATOM     15  N   UNL     1      -1.018  -1.499  -1.272  0.00  0.00    -0.312 N 
ATOM     16  C   UNL     1      -2.051  -0.643  -1.145  0.00  0.00    +0.218 C 
ATOM     17  O   UNL     1      -1.843   0.547  -1.038  0.00  0.00    -0.275 OA
ATOM     18  H   UNL     1      -1.184  -2.450  -1.357  0.00  0.00    +0.149 HD
BRANCH  15  20
ATOM     19  C   UNL     1       0.854  -0.836   0.156  0.00  0.00    +0.028 C 
ATOM     20  C   UNL     1       0.357  -0.992  -1.283  0.00  0.00    +0.074 C 
BRANCH  20  21
ATOM     21  C   UNL     1       1.258  -1.976  -2.030  0.00  0.00    +0.057 C 
BRANCH  21  22
ATOM     22  C   UNL     1       0.844  -2.036  -3.478  0.00  0.00    -0.045 A 
ATOM     23  C   UNL     1      -0.110  -2.949  -3.886  0.00  0.00    +0.006 A 
ATOM     24  C   UNL     1      -0.491  -3.005  -5.214  0.00  0.00    +0.038 A 
ATOM     25  C   UNL     1       0.084  -2.146  -6.135  0.00  0.00    +0.123 A 
ATOM     26  C   UNL     1       1.040  -1.232  -5.725  0.00  0.00    +0.038 A 
ATOM     27  C   UNL     1       1.415  -1.175  -4.396  0.00  0.00    +0.006 A 
ATOM     28  F   UNL     1      -0.287  -2.200  -7.433  0.00  0.00    -0.205 F 
ENDBRANCH  21  22
ENDBRANCH  20  21
ENDBRANCH  15  20
ENDBRANCH   1  16
BRANCH  11  29
ATOM     29  C   UNL     1      -4.838   2.653   0.300  0.00  0.00    +0.324 C 
BRANCH  29  30
ATOM     30  O   UNL     1      -5.189   4.038   0.259  0.00  0.00    -0.483 OA
BRANCH  30  31
ATOM     31  C   UNL     1      -4.907   4.779   1.363  0.00  0.00    +0.123 A 
ATOM     32  C   UNL     1      -4.299   4.186   2.461  0.00  0.00    +0.046 A 
ATOM     33  C   UNL     1      -4.012   4.940   3.582  0.00  0.00    +0.005 A 
ATOM     34  C   UNL     1      -4.330   6.286   3.611  0.00  0.00    +0.020 A 
ATOM     35  C   UNL     1      -4.937   6.879   2.519  0.00  0.00    +0.044 A 
ATOM     36  C   UNL     1      -5.221   6.129   1.392  0.00  0.00    +0.065 A 
ATOM     37 CL   UNL     1      -5.336   8.568   2.559  0.00  0.00    -0.083 Cl
ENDBRANCH  30  31
ENDBRANCH  29  30
ENDBRANCH  11  29
TORSDOF 7
