REMARK  Name = ZINC36083238
REMARK  13 active torsions:
REMARK  status: ('A' for Active; 'I' for Inactive)
REMARK    1  A    between atoms: C_1  and  C_2
REMARK    2  A    between atoms: C_2  and  N_3
REMARK    3  A    between atoms: N_3  and  C_4
REMARK    4  A    between atoms: N_3  and  C_6
REMARK    5  A    between atoms: C_4  and  C_5
REMARK    6  A    between atoms: C_6  and  C_7
REMARK    7  A    between atoms: C_7  and  N_8
REMARK    8  A    between atoms: N_8  and  C_9
REMARK    9  A    between atoms: C_9  and  C_10
REMARK   10  A    between atoms: C_22  and  C_25
REMARK   11  A    between atoms: C_32  and  C_34
REMARK   12  A    between atoms: C_34  and  O_35
REMARK   13  A    between atoms: O_35  and  C_36
REMARK                            x       y       z     vdW  Elec       q    Type
REMARK                         _______ _______ _______ _____ _____    ______ ____
ROOT
ATOM      1  C   UNL     1      -4.748  -5.365   1.942  0.00  0.00    +0.233 C 
ATOM      2  O   UNL     1      -5.529  -5.008   1.085  0.00  0.00    -0.274 OA
ATOM      3  N   UNL     1      -5.205  -5.947   3.069  0.00  0.00    -0.299 N 
ATOM      4  C   UNL     1      -6.650  -6.129   3.204  0.00  0.00    +0.109 C 
ATOM      5  C   UNL     1      -6.983  -7.550   2.797  0.00  0.00    +0.038 C 
ATOM      6  C   UNL     1      -6.836  -8.495   3.993  0.00  0.00    +0.108 C 
ATOM      7  N   UNL     1      -5.650  -8.194   4.808  0.00  0.00    -0.312 N 
ATOM      8  C   UNL     1      -4.351  -7.879   4.239  0.00  0.00    +0.125 C 
ATOM      9  C   UNL     1      -4.248  -6.346   4.042  0.00  0.00    +0.126 C 
ATOM     10  C   UNL     1      -5.778  -8.210   6.192  0.00  0.00    +0.144 A 
ATOM     11  C   UNL     1      -6.933  -8.727   6.781  0.00  0.00    +0.047 A 
ATOM     12  C   UNL     1      -7.016  -8.722   8.162  0.00  0.00    +0.033 A 
ATOM     13  C   UNL     1      -5.936  -8.200   8.882  0.00  0.00    +0.093 A 
ATOM     14  N   UNL     1      -4.878  -7.730   8.236  0.00  0.00    -0.147 NA
ATOM     15  N   UNL     1      -4.801  -7.740   6.955  0.00  0.00    -0.134 NA
ENDROOT
BRANCH  13  16
ATOM     16  C   UNL     1      -5.975  -8.172  10.365  0.00  0.00    +0.002 A 
ATOM     17  C   UNL     1      -7.085  -8.671  11.044  0.00  0.00    +0.013 A 
ATOM     18  C   UNL     1      -7.117  -8.642  12.423  0.00  0.00    +0.039 A 
ATOM     19  C   UNL     1      -6.048  -8.119  13.133  0.00  0.00    +0.123 A 
ATOM     20  C   UNL     1      -4.942  -7.622  12.461  0.00  0.00    +0.039 A 
ATOM     21  C   UNL     1      -4.899  -7.651  11.082  0.00  0.00    +0.013 A 
ATOM     22  F   UNL     1      -6.083  -8.092  14.483  0.00  0.00    -0.205 F 
ENDBRANCH  13  16
BRANCH   1  23
ATOM     23  C   UNL     1      -3.268  -5.157   1.747  0.00  0.00    +0.203 C 
BRANCH  23  24
ATOM     24  N   UNL     1      -3.032  -4.511   0.454  0.00  0.00    -0.293 N 
ATOM     25  C   UNL     1      -2.843  -5.262  -0.650  0.00  0.00    +0.242 C 
ATOM     26  O   UNL     1      -2.869  -6.472  -0.572  0.00  0.00    -0.273 OA
BRANCH  24  27
ATOM     27  C   UNL     1      -3.000  -3.050   0.360  0.00  0.00    +0.090 C 
BRANCH  27  28
ATOM     28  C   UNL     1      -1.569  -2.555   0.580  0.00  0.00    -0.060 C 
BRANCH  28  29
ATOM     29  N   UNL     1      -1.514  -1.103   0.365  0.00  0.00    +0.380 N 
ATOM     30  H   UNL     1      -1.881  -0.885  -0.550  0.00  0.00    -0.082 HD
BRANCH  29  32
ATOM     31  C   UNL     1      -2.365   1.075   1.093  0.00  0.00    -0.017 C 
ATOM     32  C   UNL     1      -2.320  -0.425   1.389  0.00  0.00    -0.082 C 
ENDBRANCH  29  32
BRANCH  29  33
ATOM     33  C   UNL     1      -0.121  -0.647   0.456  0.00  0.00    -0.082 C 
ATOM     34  C   UNL     1       0.684  -1.231  -0.707  0.00  0.00    -0.017 C 
ENDBRANCH  29  33
ENDBRANCH  28  29
ENDBRANCH  27  28
ENDBRANCH  24  27
BRANCH  25  35
ATOM     35  C   UNL     1      -2.600  -4.597  -1.980  0.00  0.00    +0.255 C 
BRANCH  35  36
ATOM     36  O   UNL     1      -2.431  -5.596  -2.988  0.00  0.00    -0.374 OA
ATOM     37  C   UNL     1      -2.193  -5.069  -4.295  0.00  0.00    +0.194 C 
ENDBRANCH  35  36
ENDBRANCH  25  35
ENDBRANCH  23  24
ENDBRANCH   1  23
TORSDOF 10
