REMARK  Name = ZINC15302386
REMARK  5 active torsions:
REMARK  status: ('A' for Active; 'I' for Inactive)
REMARK    1  A    between atoms: C_1  and  C_2
REMARK    2  A    between atoms: C_2  and  C_3
REMARK    3  A    between atoms: C_2  and  N_4
REMARK    4  A    between atoms: C_13  and  C_15
REMARK    5  A    between atoms: N_17  and  C_18
REMARK                            x       y       z     vdW  Elec       q    Type
REMARK                         _______ _______ _______ _____ _____    ______ ____
ROOT
ATOM      1  N   UNL     1      -1.365  -0.534   0.026  0.00  0.00    -0.226 N 
ATOM      2  C   UNL     1      -1.765  -1.316  -0.998  0.00  0.00    +0.275 A 
ATOM      3  O   UNL     1      -1.001  -1.595  -1.904  0.00  0.00    -0.266 OA
ATOM      4  C   UNL     1      -3.144  -1.823  -0.995  0.00  0.00    +0.050 A 
ATOM      5  C   UNL     1      -3.653  -2.634  -2.003  0.00  0.00    +0.014 A 
ATOM      6  C   UNL     1      -4.960  -3.068  -1.926  0.00  0.00    +0.001 A 
ATOM      7  C   UNL     1      -5.767  -2.704  -0.856  0.00  0.00    +0.001 A 
ATOM      8  C   UNL     1      -5.280  -1.901   0.153  0.00  0.00    +0.011 A 
ATOM      9  C   UNL     1      -3.965  -1.452   0.095  0.00  0.00    +0.020 A 
ATOM     10  C   UNL     1      -3.370  -0.592   1.131  0.00  0.00    +0.154 A 
ATOM     11  N   UNL     1      -2.121  -0.213   1.007  0.00  0.00    -0.163 NA
ENDROOT
BRANCH  10  12
ATOM     12  C   UNL     1      -4.167  -0.166   2.297  0.00  0.00    +0.269 C 
ATOM     13  O   UNL     1      -5.324  -0.525   2.407  0.00  0.00    -0.268 OA
ATOM     14  N   UNL     1      -3.614   0.622   3.240  0.00  0.00    -0.280 N 
ATOM     15  H   UNL     1      -2.674   0.855   3.187  0.00  0.00    +0.155 HD
BRANCH  14  16
ATOM     16  C   UNL     1      -4.395   1.104   4.295  0.00  0.00    +0.037 A 
ATOM     17  C   UNL     1      -5.409   0.316   4.818  0.00  0.00    +0.023 A 
ATOM     18  C   UNL     1      -6.179   0.795   5.859  0.00  0.00    +0.002 A 
ATOM     19  C   UNL     1      -5.938   2.054   6.370  0.00  0.00    +0.004 A 
ATOM     20  C   UNL     1      -4.925   2.849   5.849  0.00  0.00    -0.042 A 
ATOM     21  C   UNL     1      -4.146   2.373   4.819  0.00  0.00    -0.023 A 
ATOM     22  C   UNL     1      -3.017   3.170   4.220  0.00  0.00    +0.037 C 
ATOM     23  C   UNL     1      -3.150   4.647   4.585  0.00  0.00    +0.005 C 
ATOM     24  C   UNL     1      -3.336   4.756   6.103  0.00  0.00    +0.005 C 
ATOM     25  C   UNL     1      -4.725   4.215   6.452  0.00  0.00    +0.035 C 
ENDBRANCH  14  16
ENDBRANCH  10  12
BRANCH   1  27
ATOM     26  C   UNL     1      -0.004   1.498   0.019  0.00  0.00    +0.032 C 
ATOM     27  C   UNL     1       0.011  -0.032   0.018  0.00  0.00    +0.105 C 
ATOM     28  C   UNL     1       0.746  -0.535   1.263  0.00  0.00    +0.032 C 
ENDBRANCH   1  27
TORSDOF 3
