REMARK  Name = ZINC54200833
REMARK  5 active torsions:
REMARK  status: ('A' for Active; 'I' for Inactive)
REMARK    1  A    between atoms: C_4  and  C_7
REMARK    2  A    between atoms: C_7  and  C_9
REMARK    3  A    between atoms: C_7  and  N_21
REMARK    4  A    between atoms: C_9  and  N_10
REMARK    5  A    between atoms: N_13  and  C_14
REMARK                            x       y       z     vdW  Elec       q    Type
REMARK                         _______ _______ _______ _____ _____    ______ ____
ROOT
ATOM      1  C   UNL     1       4.054  -0.765  -0.070  0.00  0.00    +0.132 C 
ENDROOT
BRANCH   1   2
ATOM      2  N   UNL     1       3.828  -1.795   0.947  0.00  0.00    -0.225 N 
ATOM      3  C   UNL     1       3.548  -1.541   2.238  0.00  0.00    +0.254 C 
ATOM      4  O   UNL     1       3.445  -0.439   2.737  0.00  0.00    -0.270 OA
ATOM      5  C   UNL     1       3.386  -2.828   2.947  0.00  0.00    +0.049 A 
ATOM      6  C   UNL     1       3.099  -3.182   4.255  0.00  0.00    +0.014 A 
ATOM      7  C   UNL     1       3.016  -4.522   4.602  0.00  0.00    +0.001 A 
ATOM      8  C   UNL     1       3.217  -5.505   3.651  0.00  0.00    +0.001 A 
ATOM      9  C   UNL     1       3.505  -5.165   2.339  0.00  0.00    +0.014 A 
ATOM     10  C   UNL     1       3.591  -3.830   1.978  0.00  0.00    +0.049 A 
ATOM     11  C   UNL     1       3.866  -3.119   0.712  0.00  0.00    +0.254 C 
ATOM     12  O   UNL     1       4.091  -3.642  -0.361  0.00  0.00    -0.270 OA
ENDBRANCH   1   2
BRANCH   1  16
ATOM     13  C   UNL     1       0.681  -0.577  -2.684  0.00  0.00    +0.000 A 
ATOM     14  C   UNL     1       1.240   0.588  -2.192  0.00  0.00    +0.000 A 
ATOM     15  C   UNL     1       2.331   0.527  -1.346  0.00  0.00    +0.005 A 
ATOM     16  C   UNL     1       2.864  -0.699  -0.992  0.00  0.00    -0.025 A 
ATOM     17  C   UNL     1       2.304  -1.863  -1.483  0.00  0.00    +0.005 A 
ATOM     18  C   UNL     1       1.214  -1.802  -2.330  0.00  0.00    +0.000 A 
ENDBRANCH   1  16
BRANCH   1  19
ATOM     19  C   UNL     1       5.306  -1.114  -0.878  0.00  0.00    +0.133 C 
BRANCH  19  20
ATOM     20  N   UNL     1       6.440  -1.296   0.031  0.00  0.00    -0.297 N 
ATOM     21  C   UNL     1       7.654  -1.610  -0.461  0.00  0.00    +0.305 C 
ATOM     22  O   UNL     1       7.809  -1.743  -1.659  0.00  0.00    -0.252 OA
ATOM     23  N   UNL     1       8.697  -1.777   0.376  0.00  0.00    -0.253 N 
ATOM     24  H   UNL     1       6.316  -1.190   0.988  0.00  0.00    +0.150 HD
ATOM     25  H   UNL     1       8.561  -1.736   1.336  0.00  0.00    +0.158 HD
BRANCH  23  26
ATOM     26  C   UNL     1       9.974  -2.010  -0.137  0.00  0.00    +0.151 A 
ATOM     27  C   UNL     1      11.071  -2.040   0.723  0.00  0.00    +0.217 A 
ATOM     28  C   UNL     1      12.334  -2.273   0.196  0.00  0.00    +0.056 A 
ATOM     29  C   UNL     1      12.454  -2.467  -1.173  0.00  0.00    +0.021 A 
ATOM     30  C   UNL     1      11.323  -2.423  -1.964  0.00  0.00    +0.084 A 
ATOM     31  N   UNL     1      10.133  -2.205  -1.436  0.00  0.00    -0.346 N 
ATOM     32  O   UNL     1      10.906  -1.844   2.059  0.00  0.00    -0.284 OA
ATOM     33  H   UNL     1       9.356  -2.184  -2.016  0.00  0.00    +0.167 HD
ENDBRANCH  23  26
ENDBRANCH  19  20
ENDBRANCH   1  19
TORSDOF 5
