REMARK  Name = ZINC29491896
REMARK  8 active torsions:
REMARK  status: ('A' for Active; 'I' for Inactive)
REMARK    1  A    between atoms: C_1  and  C_2
REMARK    2  A    between atoms: C_5  and  N_9
REMARK    3  A    between atoms: C_6  and  C_8
REMARK    4  A    between atoms: C_13  and  C_15
REMARK    5  A    between atoms: C_15  and  C_17
REMARK    6  A    between atoms: C_15  and  S_18
REMARK    7  A    between atoms: S_18  and  C_19
REMARK    8  A    between atoms: C_22  and  C_25
REMARK                            x       y       z     vdW  Elec       q    Type
REMARK                         _______ _______ _______ _____ _____    ______ ____
ROOT
ATOM      1  N   UNL     1      -2.711   5.763  -0.031  0.00  0.00    -0.269 N 
ATOM      2  C   UNL     1      -1.741   5.098   0.629  0.00  0.00    +0.310 C 
ATOM      3  O   UNL     1      -0.877   5.714   1.221  0.00  0.00    -0.252 OA
ATOM      4  N   UNL     1      -1.730   3.750   0.632  0.00  0.00    -0.239 N 
ATOM      5  C   UNL     1      -0.761   3.085   1.291  0.00  0.00    +0.234 C 
ATOM      6  O   UNL     1       0.101   3.700   1.882  0.00  0.00    -0.274 OA
ATOM      7  H   UNL     1      -3.438   5.209  -0.643  0.00  0.00    +0.156 HD
ATOM      8  H   UNL     1      -2.513   3.193   0.096  0.00  0.00    +0.159 HD
ENDROOT
BRANCH   1  13
ATOM      9  C   UNL     1      -3.036  11.414   0.347  0.00  0.00    +0.044 C 
ATOM     10  C   UNL     1      -2.950   9.912   0.247  0.00  0.00    -0.050 A 
ATOM     11  C   UNL     1      -2.346   9.187   1.258  0.00  0.00    +0.005 A 
ATOM     12  C   UNL     1      -2.265   7.811   1.169  0.00  0.00    +0.024 A 
ATOM     13  C   UNL     1      -2.791   7.156   0.063  0.00  0.00    +0.038 A 
ATOM     14  C   UNL     1      -3.393   7.888  -0.953  0.00  0.00    -0.029 A 
ATOM     15  C   UNL     1      -3.475   9.264  -0.855  0.00  0.00    +0.008 A 
ATOM     16  C   UNL     1      -3.959   7.182  -2.157  0.00  0.00    +0.045 C 
ENDBRANCH   1  13
BRANCH   5  17
ATOM     17  C   UNL     1      -0.749   1.578   1.294  0.00  0.00    +0.137 C 
ATOM     18  C   UNL     1      -0.038   1.071   0.038  0.00  0.00    +0.029 C 
BRANCH  17  19
ATOM     19  S   UNL     1       0.126   0.985   2.764  0.00  0.00    -0.074 S 
BRANCH  19  20
ATOM     20  C   UNL     1      -0.137  -0.749   2.597  0.00  0.00    +0.185 A 
ATOM     21  N   UNL     1       0.317  -1.723   3.443  0.00  0.00    -0.200 NA
ATOM     22  H   UNL     1      -1.319  -0.919   0.764  0.00  0.00    +0.191 HD
ATOM     23  C   UNL     1      -0.133  -2.912   2.914  0.00  0.00    +0.189 A 
ATOM     24  N   UNL     1      -0.806  -2.618   1.824  0.00  0.00    -0.151 NA
ATOM     25  N   UNL     1      -0.805  -1.347   1.637  0.00  0.00    -0.253 N 
BRANCH  23  26
ATOM     26  C   UNL     1       0.097  -4.258   3.465  0.00  0.00    +0.058 A 
ATOM     27  C   UNL     1      -0.320  -5.473   2.982  0.00  0.00    +0.019 A 
ATOM     28  C   UNL     1       0.024  -6.612   3.674  0.00  0.00    +0.008 A 
ATOM     29  C   UNL     1       0.752  -6.499   4.815  0.00  0.00    +0.046 A 
ATOM     30  S   UNL     1       0.984  -4.734   4.939  0.00  0.00    -0.093 S 
ENDBRANCH  23  26
ENDBRANCH  19  20
ENDBRANCH  17  19
ENDBRANCH   5  17
TORSDOF 5
