REMARK  Name = ZINC09969142
REMARK  4 active torsions:
REMARK  status: ('A' for Active; 'I' for Inactive)
REMARK    1  A    between atoms: C_4  and  N_7
REMARK    2  A    between atoms: C_12  and  C_13
REMARK    3  A    between atoms: C_12  and  N_56
REMARK    4  A    between atoms: N_19  and  C_20
REMARK                            x       y       z     vdW  Elec       q    Type
REMARK                         _______ _______ _______ _____ _____    ______ ____
ROOT
ATOM      1  C   UNL     1      -1.286   1.558  -3.362  0.00  0.00    +0.120 A 
ATOM      2  N   UNL     1      -2.125   0.636  -3.802  0.00  0.00    -0.202 NA
ATOM      3  C   UNL     1      -2.759   0.808  -4.959  0.00  0.00    +0.217 A 
ATOM      4  N   UNL     1      -2.540   1.904  -5.678  0.00  0.00    -0.181 NA
ATOM      5  C   UNL     1      -1.693   2.826  -5.235  0.00  0.00    +0.224 A 
ATOM      6  N   UNL     1      -1.066   2.649  -4.074  0.00  0.00    -0.201 NA
ATOM      7  N   UNL     1      -1.462   3.968  -5.978  0.00  0.00    -0.283 N 
ATOM      8  N   UNL     1      -3.638  -0.153  -5.415  0.00  0.00    -0.327 N 
ATOM      9  H   UNL     1      -0.780   4.598  -5.699  0.00  0.00    +0.155 HD
ATOM     10  H   UNL     1      -4.097  -0.028  -6.261  0.00  0.00    +0.145 HD
ATOM     11  H   UNL     1      -3.798  -0.953  -4.890  0.00  0.00    +0.145 HD
ENDROOT
BRANCH   7  12
ATOM     12  C   UNL     1      -2.211   4.214  -7.129  0.00  0.00    +0.041 A 
ATOM     13  C   UNL     1      -3.508   3.757  -7.226  0.00  0.00    +0.024 A 
ATOM     14  C   UNL     1      -4.264   3.998  -8.369  0.00  0.00    +0.002 A 
ATOM     15  C   UNL     1      -3.745   4.689  -9.422  0.00  0.00    +0.008 A 
ATOM     16  C   UNL     1      -2.427   5.171  -9.364  0.00  0.00    -0.016 A 
ATOM     17  C   UNL     1      -1.649   4.937  -8.203  0.00  0.00    +0.003 A 
ATOM     18  C   UNL     1      -0.331   5.416  -8.148  0.00  0.00    +0.010 A 
ATOM     19  C   UNL     1       0.180   6.105  -9.205  0.00  0.00    +0.001 A 
ATOM     20  C   UNL     1      -0.585   6.341 -10.345  0.00  0.00    +0.001 A 
ATOM     21  C   UNL     1      -1.865   5.888 -10.435  0.00  0.00    +0.008 A 
ENDBRANCH   7  12
BRANCH   1  22
ATOM     22  C   UNL     1      -0.575   1.361  -2.048  0.00  0.00    -0.001 C 
BRANCH  22  28
ATOM     23  N   UNL     1      -1.845   3.570   1.321  0.00  0.00    -0.333 N 
ATOM     24  C   UNL     1      -1.753   2.109   1.451  0.00  0.00    +0.086 C 
ATOM     25  C   UNL     1      -0.842   1.559   0.351  0.00  0.00    -0.059 C 
ATOM     26  C   UNL     1      -1.473   3.397  -1.092  0.00  0.00    -0.059 C 
ATOM     27  C   UNL     1      -2.385   3.947   0.007  0.00  0.00    +0.086 C 
ATOM     28  N   UNL     1      -1.408   1.926  -0.965  0.00  0.00    +0.386 N 
ATOM     29  H   UNL     1      -2.357   1.542  -1.039  0.00  0.00    -0.081 HD
BRANCH  23  33
ATOM     30  C   UNL     1      -4.132   5.200   4.396  0.00  0.00    +0.000 A 
ATOM     31  C   UNL     1      -3.029   4.420   4.695  0.00  0.00    +0.002 A 
ATOM     32  C   UNL     1      -2.269   3.878   3.677  0.00  0.00    +0.023 A 
ATOM     33  C   UNL     1      -2.612   4.117   2.353  0.00  0.00    +0.030 A 
ATOM     34  C   UNL     1      -3.717   4.905   2.056  0.00  0.00    +0.023 A 
ATOM     35  C   UNL     1      -4.476   5.439   3.078  0.00  0.00    +0.002 A 
ENDBRANCH  23  33
ENDBRANCH  22  28
ENDBRANCH   1  22
TORSDOF 4
