REMARK  Name = ZINC04585257
REMARK  10 active torsions:
REMARK  status: ('A' for Active; 'I' for Inactive)
REMARK    1  A    between atoms: C_1  and  C_2
REMARK    2  A    between atoms: N_11  and  C_12
REMARK    3  A    between atoms: C_12  and  C_13
REMARK    4  A    between atoms: C_13  and  N_52
REMARK    5  A    between atoms: C_14  and  N_52
REMARK    6  A    between atoms: C_15  and  N_52
REMARK    7  A    between atoms: C_16  and  C_18
REMARK    8  A    between atoms: C_18  and  C_19
REMARK    9  A    between atoms: C_19  and  S_20
REMARK   10  A    between atoms: S_20  and  C_21
REMARK                            x       y       z     vdW  Elec       q    Type
REMARK                         _______ _______ _______ _____ _____    ______ ____
ROOT
ATOM      1  C   UNL     1       9.691   5.336  -0.061  0.00  0.00    +0.046 C 
ATOM      2  C   UNL     1       9.724   6.843  -0.054  0.00  0.00    -0.024 A 
ATOM      3  C   UNL     1      10.930   7.495  -0.063  0.00  0.00    +0.005 A 
ATOM      4  C   UNL     1      11.005   8.880  -0.056  0.00  0.00    +0.001 A 
ATOM      5  C   UNL     1       9.837   9.621  -0.041  0.00  0.00    +0.017 A 
ATOM      6  C   UNL     1       8.626   8.977  -0.033  0.00  0.00    +0.041 A 
ATOM      7  C   UNL     1       8.511   7.568  -0.039  0.00  0.00    +0.083 A 
ATOM      8  N   UNL     1       7.250   7.084  -0.030  0.00  0.00    -0.224 NA
ATOM      9  C   UNL     1       6.194   7.865  -0.016  0.00  0.00    +0.168 A 
ATOM     10  S   UNL     1       6.926   9.495  -0.022  0.00  0.00    -0.052 S 
ATOM     11  N   UNL     1       4.854   7.514  -0.005  0.00  0.00    -0.252 N 
ATOM     12  C   UNL     1       4.498   6.214  -0.008  0.00  0.00    +0.222 C 
ATOM     13  O   UNL     1       5.350   5.352  -0.021  0.00  0.00    -0.275 OA
ENDROOT
BRANCH  11  14
ATOM     14  C   UNL     1       3.825   8.556   0.010  0.00  0.00    +0.097 C 
BRANCH  14  15
ATOM     15  C   UNL     1       3.479   8.911   1.458  0.00  0.00    -0.060 C 
BRANCH  15  18
ATOM     16  C   UNL     1       1.180   9.452   0.925  0.00  0.00    -0.097 C 
ATOM     17  C   UNL     1       2.259  10.491   2.828  0.00  0.00    -0.097 C 
ATOM     18  N   UNL     1       2.456   9.977   1.456  0.00  0.00    +0.377 N 
ATOM     19  H   UNL     1       2.776  10.746   0.855  0.00  0.00    -0.083 HD
ENDBRANCH  15  18
ENDBRANCH  14  15
ENDBRANCH  11  14
BRANCH  12  20
ATOM     20  C   UNL     1       3.040   5.832   0.004  0.00  0.00    +0.107 C 
BRANCH  20  21
ATOM     21  C   UNL     1       2.912   4.308  -0.003  0.00  0.00    +0.083 C 
BRANCH  21  22
ATOM     22  S   UNL     1       1.157   3.849   0.011  0.00  0.00    -0.125 S 
BRANCH  22  23
ATOM     23  C   UNL     1       1.178   2.087   0.002  0.00  0.00    +0.008 A 
ATOM     24  C   UNL     1      -0.017   1.377   0.010  0.00  0.00    +0.017 A 
ATOM     25  C   UNL     1       0.002  -0.004   0.002  0.00  0.00    +0.039 A 
ATOM     26  C   UNL     1       1.210  -0.681  -0.013  0.00  0.00    +0.123 A 
ATOM     27  C   UNL     1       2.402   0.024  -0.021  0.00  0.00    +0.039 A 
ATOM     28  C   UNL     1       2.388   1.405  -0.013  0.00  0.00    +0.017 A 
ATOM     29  F   UNL     1       1.226  -2.032  -0.020  0.00  0.00    -0.205 F 
ENDBRANCH  22  23
ENDBRANCH  21  22
ENDBRANCH  20  21
ENDBRANCH  12  20
TORSDOF 7
