REMARK  Name = ZINC09591053
REMARK  11 active torsions:
REMARK  status: ('A' for Active; 'I' for Inactive)
REMARK    1  A    between atoms: C_1  and  C_2
REMARK    2  A    between atoms: C_5  and  C_7
REMARK    3  A    between atoms: C_7  and  C_9
REMARK    4  A    between atoms: C_7  and  C_11
REMARK    5  A    between atoms: C_11  and  C_13
REMARK    6  A    between atoms: C_13  and  O_14
REMARK    7  A    between atoms: O_14  and  C_15
REMARK    8  A    between atoms: C_15  and  C_17
REMARK    9  A    between atoms: C_18  and  C_19
REMARK   10  A    between atoms: C_20  and  C_33
REMARK   11  A    between atoms: N_22  and  C_25
REMARK                            x       y       z     vdW  Elec       q    Type
REMARK                         _______ _______ _______ _____ _____    ______ ____
ROOT
ATOM      1  C   UNL     1       2.912  -5.459  -4.765  0.00  0.00    +0.092 C 
ATOM      2  C   UNL     1       3.683  -6.375  -5.396  0.00  0.00    +0.020 C 
ENDROOT
BRANCH   2   3
ATOM      3  C   UNL     1       3.179  -7.059  -6.593  0.00  0.00    +0.034 A 
ATOM      4  C   UNL     1       3.850  -7.192  -7.831  0.00  0.00    +0.069 A 
ATOM      5  N   UNL     1       3.079  -7.865  -8.639  0.00  0.00    -0.174 NA
ATOM      6  N   UNL     1       1.890  -8.185  -7.974  0.00  0.00    -0.248 N 
ATOM      7  C   UNL     1       1.953  -7.692  -6.725  0.00  0.00    +0.135 A 
ATOM      8 CL   UNL     1       0.726  -7.824  -5.503  0.00  0.00    -0.062 Cl
ATOM      9  C   UNL     1       5.219  -6.653  -8.158  0.00  0.00    +0.068 C 
BRANCH   6  10
ATOM     10  C   UNL     1       0.765  -8.931  -8.543  0.00  0.00    +0.131 C 
ATOM     11  C   UNL     1       0.213  -8.171  -9.761  0.00  0.00    +0.051 C 
ATOM     12  C   UNL     1      -0.755  -9.120 -10.525  0.00  0.00    +0.168 C 
ATOM     13  S   UNL     1       0.176 -10.706 -10.422  0.00  0.00    -0.029 S 
ATOM     14  O   UNL     1       0.993 -10.839 -11.578  0.00  0.00    -0.174 OA
ATOM     15  O   UNL     1      -0.724 -11.750 -10.079  0.00  0.00    -0.174 OA
ATOM     16  C   UNL     1       1.247 -10.338  -8.973  0.00  0.00    +0.192 C 
ENDBRANCH   6  10
ENDBRANCH   2   3
BRANCH   1  17
ATOM     17  C   UNL     1       3.397  -4.799  -3.612  0.00  0.00    +0.332 C 
ATOM     18  O   UNL     1       4.509  -5.055  -3.187  0.00  0.00    -0.246 OA
BRANCH  17  19
ATOM     19  O   UNL     1       2.628  -3.886  -2.983  0.00  0.00    -0.454 OA
BRANCH  19  20
ATOM     20  C   UNL     1       3.182  -3.259  -1.824  0.00  0.00    +0.308 C 
BRANCH  20  21
ATOM     21  C   UNL     1       2.188  -2.277  -1.261  0.00  0.00    +0.194 C 
ATOM     22  O   UNL     1       1.115  -2.130  -1.796  0.00  0.00    -0.292 OA
BRANCH  21  23
ATOM     23  C   UNL     1       2.532  -1.479  -0.029  0.00  0.00    +0.216 C 
BRANCH  23  28
ATOM     24  C   UNL     1       1.810   3.471   0.003  0.00  0.00    +0.066 C 
ATOM     25  C   UNL     1       1.309   2.050   0.001  0.00  0.00    +0.046 A 
ATOM     26  C   UNL     1      -0.022   1.783   0.012  0.00  0.00    +0.070 A 
ATOM     27  S   UNL     1       0.002  -0.004   0.002  0.00  0.00    -0.079 S 
ATOM     28  C   UNL     1       1.727  -0.205  -0.015  0.00  0.00    +0.103 A 
ATOM     29  N   UNL     1       2.150   1.038  -0.013  0.00  0.00    -0.247 NA
ENDBRANCH  23  28
BRANCH  23  30
ATOM     30  C   UNL     1       2.218  -2.270   1.172  0.00  0.00    +0.081 C 
ATOM     31  N   UNL     1       1.976  -2.881   2.098  0.00  0.00    -0.195 NA
ENDBRANCH  23  30
ENDBRANCH  21  23
ENDBRANCH  20  21
ENDBRANCH  19  20
ENDBRANCH  17  19
ENDBRANCH   1  17
TORSDOF 9
