REMARK  Name = ZINC12589279
REMARK  10 active torsions:
REMARK  status: ('A' for Active; 'I' for Inactive)
REMARK    1  A    between atoms: C_1  and  C_2
REMARK    2  A    between atoms: C_2  and  N_55
REMARK    3  A    between atoms: C_3  and  C_4
REMARK    4  A    between atoms: C_3  and  N_55
REMARK    5  A    between atoms: C_4  and  N_5
REMARK    6  A    between atoms: C_10  and  C_11
REMARK    7  A    between atoms: C_10  and  N_55
REMARK    8  A    between atoms: C_12  and  C_28
REMARK    9  A    between atoms: C_14  and  C_16
REMARK   10  A    between atoms: C_19  and  C_22
REMARK                            x       y       z     vdW  Elec       q    Type
REMARK                         _______ _______ _______ _____ _____    ______ ____
ROOT
ATOM      1  C   UNL     1       2.489   0.292  -0.829  0.00  0.00    +0.066 A 
ATOM      2  C   UNL     1       3.435  -0.428  -0.200  0.00  0.00    +0.124 A 
ATOM      3  O   UNL     1       4.482   0.391   0.020  0.00  0.00    -0.440 OA
ATOM      4  C   UNL     1       4.166   1.601  -0.475  0.00  0.00    +0.228 A 
ATOM      5  N   UNL     1       2.962   1.537  -0.993  0.00  0.00    -0.216 NA
ATOM      6  C   UNL     1       3.342  -1.882   0.187  0.00  0.00    +0.088 C 
ENDROOT
BRANCH   4   7
ATOM      7  C   UNL     1       5.031   2.798  -0.446  0.00  0.00    +0.037 A 
ATOM      8  C   UNL     1       4.582   3.998  -1.003  0.00  0.00    +0.014 A 
ATOM      9  C   UNL     1       5.386   5.115  -0.970  0.00  0.00    +0.009 A 
ATOM     10  C   UNL     1       6.654   5.045  -0.392  0.00  0.00    -0.018 A 
ATOM     11  C   UNL     1       7.105   3.846   0.159  0.00  0.00    +0.009 A 
ATOM     12  C   UNL     1       6.300   2.729   0.133  0.00  0.00    +0.014 A 
BRANCH  10  13
ATOM     13  C   UNL     1       7.522   6.247  -0.363  0.00  0.00    -0.018 A 
ATOM     14  C   UNL     1       8.787   6.182   0.218  0.00  0.00    +0.008 A 
ATOM     15  C   UNL     1       9.593   7.303   0.237  0.00  0.00    +0.001 A 
ATOM     16  C   UNL     1       9.143   8.491  -0.310  0.00  0.00    +0.000 A 
ATOM     17  C   UNL     1       7.886   8.562  -0.884  0.00  0.00    +0.001 A 
ATOM     18  C   UNL     1       7.074   7.447  -0.913  0.00  0.00    +0.008 A 
ENDBRANCH  10  13
ENDBRANCH   4   7
BRANCH   1  19
ATOM     19  C   UNL     1       1.140  -0.211  -1.275  0.00  0.00    -0.019 C 
BRANCH  19  20
ATOM     20  N   UNL     1       0.174  -0.026  -0.172  0.00  0.00    +0.384 N 
ATOM     21  H   UNL     1       0.562  -0.440   0.684  0.00  0.00    -0.081 HD
BRANCH  20  23
ATOM     22  C   UNL     1      -0.658   1.599   1.453  0.00  0.00    -0.017 C 
ATOM     23  C   UNL     1      -0.063   1.415   0.056  0.00  0.00    -0.082 C 
ENDBRANCH  20  23
BRANCH  20  24
ATOM     24  C   UNL     1      -1.100  -0.702  -0.498  0.00  0.00    -0.055 C 
BRANCH  24  25
ATOM     25  C   UNL     1      -0.905  -2.212  -0.351  0.00  0.00    +0.125 C 
BRANCH  25  26
ATOM     26  N   UNL     1      -2.194  -2.889  -0.518  0.00  0.00    -0.273 N 
ATOM     27  C   UNL     1      -2.464  -3.875  -1.399  0.00  0.00    +0.108 A 
ATOM     28  C   UNL     1      -3.761  -4.228  -1.238  0.00  0.00    +0.041 A 
ATOM     29  C   UNL     1      -4.301  -3.430  -0.225  0.00  0.00    +0.134 A 
ATOM     30  N   UNL     1      -3.362  -2.631   0.211  0.00  0.00    -0.180 NA
ENDBRANCH  25  26
ENDBRANCH  24  25
ENDBRANCH  20  24
ENDBRANCH  19  20
ENDBRANCH   1  19
TORSDOF 8
