REMARK  Name = ZINC06452674
REMARK  4 active torsions:
REMARK  status: ('A' for Active; 'I' for Inactive)
REMARK    1  A    between atoms: C_4  and  C_7
REMARK    2  A    between atoms: C_7  and  N_8
REMARK    3  A    between atoms: N_16  and  N_17
REMARK    4  A    between atoms: N_17  and  C_18
REMARK                            x       y       z     vdW  Elec       q    Type
REMARK                         _______ _______ _______ _____ _____    ______ ____
ROOT
ATOM      1  N   UNL     1       4.080  -0.902   1.376  0.00  0.00    -0.261 N 
ATOM      2  C   UNL     1       5.088  -0.177   2.000  0.00  0.00    +0.046 A 
ATOM      3  C   UNL     1       5.791   0.957   1.606  0.00  0.00    +0.024 A 
ATOM      4  C   UNL     1       6.764   1.488   2.428  0.00  0.00    +0.002 A 
ATOM      5  C   UNL     1       7.052   0.903   3.650  0.00  0.00    +0.001 A 
ATOM      6  C   UNL     1       6.365  -0.223   4.057  0.00  0.00    +0.012 A 
ATOM      7  C   UNL     1       5.383  -0.765   3.236  0.00  0.00    +0.028 A 
ATOM      8  C   UNL     1       4.482  -1.934   3.368  0.00  0.00    +0.152 C 
ATOM      9  N   UNL     1       4.410  -2.779   4.370  0.00  0.00    -0.181 NA
ATOM     10  C   UNL     1       3.681  -1.939   2.132  0.00  0.00    +0.272 C 
ATOM     11  O   UNL     1       2.812  -2.743   1.845  0.00  0.00    -0.268 OA
ENDROOT
BRANCH   9  12
ATOM     12  N   UNL     1       5.094  -2.567   5.443  0.00  0.00    -0.264 N 
ATOM     13  H   UNL     1       5.594  -1.742   5.545  0.00  0.00    +0.168 HD
BRANCH  12  14
ATOM     14  C   UNL     1       5.117  -3.573   6.508  0.00  0.00    +0.112 C 
ATOM     15  C   UNL     1       6.289  -4.540   6.272  0.00  0.00    +0.048 C 
ATOM     16  C   UNL     1       6.483  -5.390   7.560  0.00  0.00    +0.168 C 
ATOM     17  S   UNL     1       6.233  -4.103   8.854  0.00  0.00    -0.029 S 
ATOM     18  O   UNL     1       7.493  -3.546   9.202  0.00  0.00    -0.174 OA
ATOM     19  O   UNL     1       5.395  -4.630   9.874  0.00  0.00    -0.174 OA
ATOM     20  C   UNL     1       5.284  -2.869   7.876  0.00  0.00    +0.189 C 
ENDBRANCH  12  14
ENDBRANCH   9  12
BRANCH   1  21
ATOM     21  C   UNL     1       3.518  -0.573   0.063  0.00  0.00    +0.149 C 
BRANCH  21  25
ATOM     22  C   UNL     1       0.215   2.091   0.553  0.00  0.00    +0.000 A 
ATOM     23  C   UNL     1       1.492   2.596   0.391  0.00  0.00    +0.000 A 
ATOM     24  C   UNL     1       2.561   1.733   0.233  0.00  0.00    +0.005 A 
ATOM     25  C   UNL     1       2.353   0.367   0.237  0.00  0.00    -0.030 A 
ATOM     26  C   UNL     1       1.076  -0.138   0.399  0.00  0.00    +0.005 A 
ATOM     27  C   UNL     1       0.007   0.725   0.556  0.00  0.00    +0.000 A 
ENDBRANCH  21  25
ENDBRANCH   1  21
TORSDOF 4
