REMARK  Name = ZINC09299711
REMARK  9 active torsions:
REMARK  status: ('A' for Active; 'I' for Inactive)
REMARK    1  A    between atoms: C_4  and  C_7
REMARK    2  A    between atoms: C_7  and  N_8
REMARK    3  A    between atoms: C_9  and  C_11
REMARK    4  A    between atoms: C_16  and  N_17
REMARK    5  A    between atoms: N_17  and  N_18
REMARK    6  A    between atoms: C_20  and  C_28
REMARK    7  A    between atoms: N_22  and  C_25
REMARK    8  A    between atoms: C_25  and  N_27
REMARK    9  A    between atoms: C_31  and  N_34
REMARK                            x       y       z     vdW  Elec       q    Type
REMARK                         _______ _______ _______ _____ _____    ______ ____
ROOT
ATOM      1  N   UNL     1       8.822  -3.605   2.397  0.00  0.00    -0.175 NA
ATOM      2  C   UNL     1       9.665  -3.835   1.409  0.00  0.00    +0.173 C 
ATOM      3  C   UNL     1       9.511  -3.462  -0.013  0.00  0.00    +0.122 C 
ATOM      4  N   UNL     1      10.577  -3.880  -0.642  0.00  0.00    -0.168 NA
ATOM      5  N   UNL     1      11.463  -4.514   0.227  0.00  0.00    -0.134 N 
ATOM      6  C   UNL     1      10.970  -4.513   1.482  0.00  0.00    +0.294 C 
ATOM      7  O   UNL     1      11.497  -4.982   2.475  0.00  0.00    -0.266 OA
ENDROOT
BRANCH   3   8
ATOM      8  C   UNL     1       8.361  -2.748  -0.614  0.00  0.00    +0.004 A 
ATOM      9  C   UNL     1       8.412  -1.366  -0.797  0.00  0.00    +0.012 A 
ATOM     10  C   UNL     1       7.338  -0.706  -1.357  0.00  0.00    +0.033 A 
ATOM     11  C   UNL     1       6.211  -1.413  -1.737  0.00  0.00    +0.126 A 
ATOM     12  C   UNL     1       6.153  -2.783  -1.558  0.00  0.00    +0.033 A 
ATOM     13  C   UNL     1       7.224  -3.455  -1.004  0.00  0.00    +0.012 A 
BRANCH  11  14
ATOM     14  N   UNL     1       5.061  -0.699  -2.337  0.00  0.00    +0.056 N 
ATOM     15  O   UNL     1       5.141   0.484  -2.574  0.00  0.00    -0.126 OA
ATOM     16  O   UNL     1       4.042  -1.298  -2.590  0.00  0.00    -0.126 OA
ENDBRANCH  11  14
ENDBRANCH   3   8
BRANCH   1  17
ATOM     17  N   UNL     1       7.797  -2.846   2.206  0.00  0.00    -0.236 N 
ATOM     18  H   UNL     1       7.692  -2.375   1.365  0.00  0.00    +0.174 HD
BRANCH  17  24
ATOM     19  C   UNL     1       5.772  -1.811   3.037  0.00  0.00    +0.059 A 
ATOM     20  C   UNL     1       4.817  -1.681   4.047  0.00  0.00    +0.015 A 
ATOM     21  C   UNL     1       4.932  -2.424   5.203  0.00  0.00    +0.001 A 
ATOM     22  C   UNL     1       5.992  -3.301   5.369  0.00  0.00    +0.002 A 
ATOM     23  C   UNL     1       6.945  -3.440   4.379  0.00  0.00    +0.025 A 
ATOM     24  C   UNL     1       6.843  -2.703   3.206  0.00  0.00    +0.060 A 
BRANCH  19  26
ATOM     25  N   UNL     1       4.740  -0.033   1.713  0.00  0.00    -0.307 N 
ATOM     26  C   UNL     1       5.655  -1.019   1.798  0.00  0.00    +0.246 C 
ATOM     27  O   UNL     1       6.383  -1.256   0.854  0.00  0.00    -0.270 OA
ATOM     28  H   UNL     1       4.200   0.196   2.486  0.00  0.00    +0.149 HD
BRANCH  25  29
ATOM     29  C   UNL     1       4.561   0.694   0.453  0.00  0.00    +0.139 C 
BRANCH  29  33
ATOM     30  C   UNL     1       1.318   3.447   0.843  0.00  0.00    +0.000 A 
ATOM     31  C   UNL     1       2.604   3.844   1.159  0.00  0.00    +0.000 A 
ATOM     32  C   UNL     1       3.653   2.953   1.033  0.00  0.00    +0.005 A 
ATOM     33  C   UNL     1       3.417   1.665   0.592  0.00  0.00    -0.030 A 
ATOM     34  C   UNL     1       2.131   1.267   0.276  0.00  0.00    +0.005 A 
ATOM     35  C   UNL     1       1.082   2.159   0.401  0.00  0.00    +0.000 A 
ENDBRANCH  29  33
ENDBRANCH  25  29
ENDBRANCH  19  26
ENDBRANCH  17  24
ENDBRANCH   1  17
BRANCH   5  36
ATOM     36  C   UNL     1      12.646  -5.048  -0.135  0.00  0.00    +0.158 C 
ATOM     37  S   UNL     1      13.640  -5.801   1.038  0.00  0.00    -0.017 S 
BRANCH  36  38
ATOM     38  N   UNL     1      13.047  -4.989  -1.420  0.00  0.00    -0.339 N 
ATOM     39  H   UNL     1      12.484  -4.562  -2.085  0.00  0.00    +0.144 HD
ATOM     40  H   UNL     1      13.899  -5.374  -1.680  0.00  0.00    +0.144 HD
ENDBRANCH  36  38
ENDBRANCH   5  36
TORSDOF 9
