REMARK  Name = ZINC67174367
REMARK  14 active torsions:
REMARK  status: ('A' for Active; 'I' for Inactive)
REMARK    1  A    between atoms: C_1  and  C_2
REMARK    2  A    between atoms: C_4  and  N_16
REMARK    3  A    between atoms: C_7  and  O_8
REMARK    4  A    between atoms: O_8  and  C_9
REMARK    5  A    between atoms: C_9  and  C_11
REMARK    6  A    between atoms: C_9  and  C_12
REMARK    7  A    between atoms: C_12  and  C_13
REMARK    8  A    between atoms: C_13  and  C_14
REMARK    9  A    between atoms: C_13  and  C_15
REMARK   10  A    between atoms: C_17  and  C_19
REMARK   11  A    between atoms: C_19  and  C_21
REMARK   12  A    between atoms: C_19  and  N_24
REMARK   13  A    between atoms: C_21  and  C_22
REMARK   14  A    between atoms: C_21  and  C_23
REMARK                            x       y       z     vdW  Elec       q    Type
REMARK                         _______ _______ _______ _____ _____    ______ ____
ROOT
ATOM      1  N   UNL     1       0.577  -3.378  -2.065  0.00  0.00    -0.284 N 
ATOM      2  C   UNL     1       1.394  -4.444  -1.947  0.00  0.00    +0.238 C 
ATOM      3  O   UNL     1       2.062  -4.588  -0.944  0.00  0.00    -0.273 OA
ATOM      4  H   UNL     1       0.090  -3.229  -2.891  0.00  0.00    +0.155 HD
ENDROOT
BRANCH   1   8
ATOM      5  C   UNL     1      -0.104   1.216  -0.451  0.00  0.00    +0.047 C 
ATOM      6  C   UNL     1       0.098  -0.253  -0.185  0.00  0.00    -0.007 A 
ATOM      7  C   UNL     1       0.243  -1.132  -1.240  0.00  0.00    +0.030 A 
ATOM      8  C   UNL     1       0.429  -2.486  -0.995  0.00  0.00    +0.034 A 
ATOM      9  C   UNL     1       0.470  -2.955   0.312  0.00  0.00    +0.027 A 
ATOM     10  C   UNL     1       0.324  -2.076   1.366  0.00  0.00    +0.048 A 
ATOM     11  C   UNL     1       0.143  -0.722   1.120  0.00  0.00    +0.124 A 
BRANCH  11  12
ATOM     12  O   UNL     1       0.005   0.145   2.159  0.00  0.00    -0.489 OA
BRANCH  12  13
ATOM     13  C   UNL     1      -0.063  -0.420   3.470  0.00  0.00    +0.171 C 
ATOM     14  C   UNL     1       1.353  -0.619   4.013  0.00  0.00    +0.052 C 
BRANCH  13  15
ATOM     15  C   UNL     1      -0.835   0.525   4.392  0.00  0.00    +0.047 C 
BRANCH  15  16
ATOM     16  C   UNL     1      -2.287   0.626   3.919  0.00  0.00    -0.014 C 
ATOM     17  C   UNL     1      -2.969  -0.735   4.072  0.00  0.00    +0.007 C 
ATOM     18  C   UNL     1      -3.027   1.665   4.764  0.00  0.00    +0.007 C 
ENDBRANCH  15  16
ENDBRANCH  13  15
ENDBRANCH  12  13
ENDBRANCH  11  12
ENDBRANCH   1   8
BRANCH   2  19
ATOM     19  C   UNL     1       1.478  -5.456  -3.059  0.00  0.00    +0.163 C 
BRANCH  19  20
ATOM     20  N   UNL     1       1.825  -6.766  -2.503  0.00  0.00    -0.288 N 
ATOM     21  C   UNL     1       1.480  -7.891  -3.160  0.00  0.00    +0.298 C 
ATOM     22  O   UNL     1       0.880  -7.819  -4.215  0.00  0.00    -0.253 OA
ATOM     23  N   UNL     1       1.800  -9.096  -2.648  0.00  0.00    -0.313 N 
ATOM     24  H   UNL     1       2.304  -6.824  -1.661  0.00  0.00    +0.151 HD
ATOM     25  H   UNL     1       2.279  -9.153  -1.807  0.00  0.00    +0.146 HD
ATOM     26  H   UNL     1       1.552  -9.905  -3.121  0.00  0.00    +0.146 HD
ENDBRANCH  19  20
BRANCH  19  27
ATOM     27  C   UNL     1       2.551  -5.026  -4.061  0.00  0.00    +0.012 C 
ATOM     28  C   UNL     1       2.583  -6.012  -5.230  0.00  0.00    +0.009 C 
ATOM     29  C   UNL     1       2.229  -3.625  -4.583  0.00  0.00    +0.009 C 
ENDBRANCH  19  27
ENDBRANCH   2  19
TORSDOF 8
