REMARK  Name = ZINC58057531
REMARK  5 active torsions:
REMARK  status: ('A' for Active; 'I' for Inactive)
REMARK    1  A    between atoms: C_1  and  C_2
REMARK    2  A    between atoms: C_2  and  C_3
REMARK    3  A    between atoms: C_6  and  C_10
REMARK    4  A    between atoms: C_8  and  N_9
REMARK    5  A    between atoms: C_16  and  C_18
REMARK                            x       y       z     vdW  Elec       q    Type
REMARK                         _______ _______ _______ _____ _____    ______ ____
ROOT
ATOM      1  C   UNL     1       2.796  -1.913   4.667  0.00  0.00    +0.079 A 
ATOM      2  C   UNL     1       4.146  -2.212   4.590  0.00  0.00    +0.098 A 
ATOM      3  C   UNL     1       4.800  -2.676   5.746  0.00  0.00    +0.252 A 
ATOM      4  O   UNL     1       5.989  -2.951   5.719  0.00  0.00    -0.268 OA
ATOM      5  N   UNL     1       4.089  -2.812   6.885  0.00  0.00    -0.306 N 
ATOM      6  H   UNL     1       4.523  -3.131   7.692  0.00  0.00    +0.170 HD
ATOM      7  C   UNL     1       2.762  -2.503   6.903  0.00  0.00    +0.160 A 
ATOM      8  N   UNL     1       2.146  -2.063   5.830  0.00  0.00    -0.227 NA
ENDROOT
BRANCH   1  12
ATOM      9  C   UNL     1       0.731  -0.503   1.223  0.00  0.00    -0.027 A 
ATOM     10  C   UNL     1       2.077  -0.807   1.145  0.00  0.00    +0.006 A 
ATOM     11  C   UNL     1       2.751  -1.265   2.260  0.00  0.00    +0.010 A 
ATOM     12  C   UNL     1       2.074  -1.421   3.469  0.00  0.00    +0.002 A 
ATOM     13  C   UNL     1       0.717  -1.115   3.548  0.00  0.00    +0.033 A 
ATOM     14  C   UNL     1       0.049  -0.651   2.425  0.00  0.00    +0.028 A 
BRANCH  14  15
ATOM     15  N   UNL     1      -1.310  -0.337   2.500  0.00  0.00    -0.358 N 
ATOM     16  H   UNL     1      -1.778  -0.016   1.714  0.00  0.00    +0.142 HD
ATOM     17  H   UNL     1      -1.786  -0.440   3.339  0.00  0.00    +0.142 HD
ENDBRANCH  14  15
BRANCH   9  19
ATOM     18  C   UNL     1      -0.019   1.526   0.010  0.00  0.00    +0.009 C 
ATOM     19  C   UNL     1       0.002  -0.004   0.002  0.00  0.00    +0.033 C 
ENDBRANCH   9  19
ENDBRANCH   1  12
BRANCH   7  20
ATOM     20  C   UNL     1       2.000  -2.659   8.162  0.00  0.00    +0.106 A 
ATOM     21  C   UNL     1       0.640  -2.350   8.190  0.00  0.00    +0.031 A 
ATOM     22  C   UNL     1      -0.059  -2.502   9.376  0.00  0.00    +0.004 A 
ATOM     23  C   UNL     1       0.624  -2.957  10.494  0.00  0.00    +0.020 A 
ATOM     24  C   UNL     1       1.975  -3.245  10.394  0.00  0.00    +0.111 A 
ATOM     25  N   UNL     1       2.615  -3.097   9.254  0.00  0.00    -0.252 NA
ENDBRANCH   7  20
TORSDOF 4
