REMARK  Name = ZINC20394537
REMARK  18 active torsions:
REMARK  status: ('A' for Active; 'I' for Inactive)
REMARK    1  A    between atoms: C_1  and  C_2
REMARK    2  A    between atoms: C_2  and  C_3
REMARK    3  A    between atoms: C_3  and  O_4
REMARK    4  A    between atoms: O_4  and  C_5
REMARK    5  A    between atoms: C_8  and  C_14
REMARK    6  A    between atoms: C_10  and  O_11
REMARK    7  A    between atoms: O_11  and  C_12
REMARK    8  A    between atoms: C_12  and  C_13
REMARK    9  A    between atoms: C_16  and  C_29
REMARK   10  A    between atoms: N_20  and  C_21
REMARK   11  A    between atoms: C_21  and  C_22
REMARK   12  A    between atoms: C_22  and  N_23
REMARK   13  A    between atoms: N_23  and  C_24
REMARK   14  A    between atoms: N_23  and  C_26
REMARK   15  A    between atoms: C_24  and  C_25
REMARK   16  A    between atoms: C_26  and  C_27
REMARK   17  A    between atoms: C_29  and  C_31
REMARK   18  A    between atoms: C_38  and  C_41
REMARK                            x       y       z     vdW  Elec       q    Type
REMARK                         _______ _______ _______ _____ _____    ______ ____
ROOT
ATOM      1  C   UNL     1       0.189   1.024  -1.312  0.00  0.00    +0.145 C 
ATOM      2  C   UNL     1       1.481   1.806  -1.337  0.00  0.00    +0.076 C 
ATOM      3  C   UNL     1       1.388   2.681  -2.365  0.00  0.00    +0.249 C 
ATOM      4  C   UNL     1       0.079   2.512  -3.030  0.00  0.00    +0.288 C 
ATOM      5  O   UNL     1      -0.305   3.153  -3.987  0.00  0.00    -0.266 OA
ATOM      6  N   UNL     1      -0.626   1.544  -2.416  0.00  0.00    -0.285 N 
ATOM      7  O   UNL     1       2.342   3.570  -2.728  0.00  0.00    -0.282 OA
ENDROOT
BRANCH   1  11
ATOM      8  C   UNL     1      -1.824   1.633   2.412  0.00  0.00    +0.162 A 
ATOM      9  C   UNL     1      -1.745   2.662   1.488  0.00  0.00    +0.050 A 
ATOM     10  C   UNL     1      -1.088   2.464   0.287  0.00  0.00    +0.009 A 
ATOM     11  C   UNL     1      -0.520   1.237   0.001  0.00  0.00    -0.019 A 
ATOM     12  C   UNL     1      -0.596   0.205   0.919  0.00  0.00    +0.055 A 
ATOM     13  C   UNL     1      -1.247   0.399   2.127  0.00  0.00    +0.162 A 
BRANCH   8  14
ATOM     14  O   UNL     1      -2.464   1.828   3.596  0.00  0.00    -0.488 OA
BRANCH  14  15
ATOM     15  C   UNL     1      -3.032   3.120   3.821  0.00  0.00    +0.229 C 
BRANCH  15  17
ATOM     16  C   UNL     1      -4.313   4.532   5.436  0.00  0.00    +0.007 C 
ATOM     17  C   UNL     1      -3.705   3.149   5.195  0.00  0.00    +0.038 C 
ENDBRANCH  15  17
ENDBRANCH  14  15
ENDBRANCH   8  14
BRANCH  13  18
ATOM     18  O   UNL     1      -1.323  -0.614   3.030  0.00  0.00    -0.489 OA
BRANCH  18  19
ATOM     19  C   UNL     1      -0.614  -1.815   2.719  0.00  0.00    +0.226 C 
ATOM     20  C   UNL     1      -0.866  -2.854   3.814  0.00  0.00    +0.048 C 
ENDBRANCH  18  19
ENDBRANCH  13  18
ENDBRANCH   1  11
BRANCH   2  21
ATOM     21  C   UNL     1       2.617   1.649  -0.423  0.00  0.00    +0.195 C 
ATOM     22  O   UNL     1       2.912   2.548   0.342  0.00  0.00    -0.287 OA
BRANCH  21  23
ATOM     23  C   UNL     1       3.403   0.399  -0.431  0.00  0.00    +0.023 A 
ATOM     24  C   UNL     1       3.120  -0.605  -1.362  0.00  0.00    +0.015 A 
ATOM     25  C   UNL     1       3.853  -1.767  -1.369  0.00  0.00    +0.046 A 
ATOM     26  C   UNL     1       4.879  -1.962  -0.441  0.00  0.00    +0.124 A 
ATOM     27  C   UNL     1       5.157  -0.958   0.483  0.00  0.00    -0.002 A 
ATOM     28  C   UNL     1       4.433   0.208   0.496  0.00  0.00    +0.019 A 
ATOM     29  C   UNL     1       6.314  -1.446   1.332  0.00  0.00    +0.083 C 
ATOM     30  C   UNL     1       6.855  -2.624   0.489  0.00  0.00    +0.175 C 
ATOM     31  O   UNL     1       5.702  -3.031  -0.268  0.00  0.00    -0.488 OA
ATOM     32  C   UNL     1       7.338  -3.761   1.392  0.00  0.00    +0.052 C 
ENDBRANCH  21  23
ENDBRANCH   2  21
BRANCH   6  33
ATOM     33  C   UNL     1      -1.968   1.088  -2.786  0.00  0.00    +0.090 C 
BRANCH  33  34
ATOM     34  C   UNL     1      -3.013   1.910  -2.028  0.00  0.00    -0.060 C 
BRANCH  34  35
ATOM     35  N   UNL     1      -4.356   1.550  -2.500  0.00  0.00    +0.380 N 
ATOM     36  H   UNL     1      -4.315   1.454  -3.595  0.00  0.00    -0.082 HD
BRANCH  35  37
ATOM     37  C   UNL     1      -4.779   0.256  -1.949  0.00  0.00    -0.082 C 
ATOM     38  C   UNL     1      -6.060  -0.203  -2.649  0.00  0.00    -0.017 C 
ENDBRANCH  35  37
BRANCH  35  39
ATOM     39  C   UNL     1      -5.328   2.603  -2.175  0.00  0.00    -0.082 C 
ATOM     40  C   UNL     1      -5.138   3.784  -3.129  0.00  0.00    -0.017 C 
ENDBRANCH  35  39
ENDBRANCH  34  35
ENDBRANCH  33  34
ENDBRANCH   6  33
TORSDOF 13
