REMARK  Name = ZINC13072780
REMARK  5 active torsions:
REMARK  status: ('A' for Active; 'I' for Inactive)
REMARK    1  A    between atoms: C_4  and  O_7
REMARK    2  A    between atoms: O_7  and  C_8
REMARK    3  A    between atoms: C_12  and  C_14
REMARK    4  A    between atoms: N_16  and  C_17
REMARK    5  A    between atoms: C_18  and  C_27
REMARK                            x       y       z     vdW  Elec       q    Type
REMARK                         _______ _______ _______ _____ _____    ______ ____
ROOT
ATOM      1  C   UNL     1       2.171   5.700   0.096  0.00  0.00    +0.249 C 
ATOM      2  O   UNL     1       1.100   6.257   0.240  0.00  0.00    -0.270 OA
ATOM      3  N   UNL     1       3.305   6.427   0.036  0.00  0.00    -0.275 N 
ATOM      4  H   UNL     1       4.160   5.983  -0.079  0.00  0.00    +0.156 HD
ENDROOT
BRANCH   3   5
ATOM      5  C   UNL     1       3.249   7.808   0.137  0.00  0.00    +0.085 A 
ATOM      6  C   UNL     1       4.295   8.717   0.103  0.00  0.00    +0.068 A 
ATOM      7  C   UNL     1       3.967  10.131   0.224  0.00  0.00    -0.023 A 
ATOM      8  C   UNL     1       2.652  10.400   0.376  0.00  0.00    -0.004 A 
ATOM      9  S   UNL     1       1.857   8.817   0.343  0.00  0.00    -0.077 S 
ATOM     10  C   UNL     1       2.006  11.739   0.550  0.00  0.00    +0.043 C 
ATOM     11  C   UNL     1       2.537  12.701  -0.521  0.00  0.00    +0.005 C 
ATOM     12  C   UNL     1       3.780  13.393   0.026  0.00  0.00    +0.001 C 
ATOM     13  C   UNL     1       4.544  12.448   0.952  0.00  0.00    +0.005 C 
ATOM     14  C   UNL     1       5.027  11.225   0.182  0.00  0.00    +0.037 C 
BRANCH   6  15
ATOM     15  C   UNL     1       5.683   8.271  -0.053  0.00  0.00    +0.244 C 
ATOM     16  O   UNL     1       6.164   8.158  -1.165  0.00  0.00    -0.270 OA
ATOM     17  N   UNL     1       6.426   7.988   1.035  0.00  0.00    -0.325 N 
ATOM     18  H   UNL     1       6.042   8.079   1.921  0.00  0.00    +0.145 HD
ATOM     19  H   UNL     1       7.344   7.693   0.932  0.00  0.00    +0.145 HD
ENDBRANCH   6  15
ENDBRANCH   3   5
BRANCH   1  24
ATOM     20  C   UNL     1       1.123   2.094  -0.051  0.00  0.00    +0.129 A 
ATOM     21  C   UNL     1       2.350   1.464  -0.210  0.00  0.00    +0.046 A 
ATOM     22  C   UNL     1       3.512   2.211  -0.277  0.00  0.00    +0.004 A 
ATOM     23  C   UNL     1       3.460   3.587  -0.176  0.00  0.00    +0.013 A 
ATOM     24  C   UNL     1       2.231   4.228  -0.011  0.00  0.00    +0.041 A 
ATOM     25  C   UNL     1       1.059   3.473   0.051  0.00  0.00    +0.059 A 
BRANCH  20  26
ATOM     26  O   UNL     1      -0.016   1.355   0.009  0.00  0.00    -0.456 OA
BRANCH  26  30
ATOM     27  C   UNL     1       0.341  -2.755   0.080  0.00  0.00    +0.000 A 
ATOM     28  C   UNL     1       0.784  -2.005   1.154  0.00  0.00    +0.004 A 
ATOM     29  C   UNL     1       0.665  -0.629   1.133  0.00  0.00    +0.046 A 
ATOM     30  C   UNL     1       0.102   0.001   0.033  0.00  0.00    +0.128 A 
ATOM     31  C   UNL     1      -0.346  -0.754  -1.042  0.00  0.00    +0.046 A 
ATOM     32  C   UNL     1      -0.221  -2.130  -1.018  0.00  0.00    +0.004 A 
ENDBRANCH  26  30
ENDBRANCH  20  26
ENDBRANCH   1  24
TORSDOF 5
