REMARK  Name = ZINC04469424
REMARK  3 active torsions:
REMARK  status: ('A' for Active; 'I' for Inactive)
REMARK    1  A    between atoms: C_6  and  C_7
REMARK    2  A    between atoms: C_7  and  C_9
REMARK    3  A    between atoms: C_9  and  N_10
REMARK                            x       y       z     vdW  Elec       q    Type
REMARK                         _______ _______ _______ _____ _____    ______ ____
ROOT
ATOM      1  N   UNL     1      -1.043   0.350  -3.109  0.00  0.00    -0.217 N 
ATOM      2  C   UNL     1      -0.060   1.010  -2.467  0.00  0.00    +0.247 C 
ATOM      3  O   UNL     1       1.090   1.141  -2.829  0.00  0.00    -0.273 OA
ATOM      4  C   UNL     1      -0.688   1.554  -1.196  0.00  0.00    +0.113 C 
ATOM      5  C   UNL     1      -0.013   1.086   0.008  0.00  0.00    +0.035 C 
ATOM      6  C   UNL     1      -0.703   1.567   1.299  0.00  0.00    +0.003 C 
ATOM      7  C   UNL     1      -0.274   2.986   1.567  0.00  0.00    +0.000 C 
ATOM      8  C   UNL     1      -1.269   4.013   0.996  0.00  0.00    +0.000 C 
ATOM      9  C   UNL     1      -1.786   3.631  -0.404  0.00  0.00    +0.003 C 
ATOM     10  C   UNL     1      -0.701   3.096  -1.296  0.00  0.00    +0.035 C 
ATOM     11  N   UNL     1      -2.086   1.085  -1.281  0.00  0.00    -0.285 N 
ATOM     12  C   UNL     1      -2.194   0.396  -2.430  0.00  0.00    +0.310 C 
ATOM     13  O   UNL     1      -3.223  -0.127  -2.810  0.00  0.00    -0.252 OA
ATOM     14  H   UNL     1      -2.791   1.243  -0.633  0.00  0.00    +0.151 HD
ENDROOT
BRANCH   1  15
ATOM     15  C   UNL     1      -0.872  -0.334  -4.394  0.00  0.00    +0.197 C 
BRANCH  15  16
ATOM     16  C   UNL     1      -0.459  -1.762  -4.151  0.00  0.00    +0.181 C 
ATOM     17  O   UNL     1      -0.321  -2.169  -3.017  0.00  0.00    -0.290 OA
BRANCH  16  23
ATOM     18  C   UNL     1      -0.385  -2.203  -6.600  0.00  0.00    +0.012 A 
ATOM     19  C   UNL     1      -0.157  -3.057  -7.654  0.00  0.00    +0.004 A 
ATOM     20  C   UNL     1       0.222  -4.377  -7.432  0.00  0.00    -0.044 A 
ATOM     21  C   UNL     1       0.382  -4.840  -6.142  0.00  0.00    -0.044 A 
ATOM     22  C   UNL     1       0.161  -3.988  -5.072  0.00  0.00    +0.015 A 
ATOM     23  C   UNL     1      -0.222  -2.664  -5.290  0.00  0.00    +0.019 A 
ATOM     24  C   UNL     1       0.800  -6.254  -5.835  0.00  0.00    +0.035 C 
ATOM     25  C   UNL     1       0.585  -7.154  -7.049  0.00  0.00    +0.005 C 
ATOM     26  C   UNL     1       1.248  -6.493  -8.264  0.00  0.00    +0.005 C 
ATOM     27  C   UNL     1       0.438  -5.253  -8.639  0.00  0.00    +0.035 C 
ENDBRANCH  16  23
ENDBRANCH  15  16
ENDBRANCH   1  15
TORSDOF 3
