REMARK  Name = ZINC25462947
REMARK  3 active torsions:
REMARK  status: ('A' for Active; 'I' for Inactive)
REMARK    1  A    between atoms: C_8  and  N_11
REMARK    2  A    between atoms: C_12  and  C_14
REMARK    3  A    between atoms: C_21  and  C_23
REMARK                            x       y       z     vdW  Elec       q    Type
REMARK                         _______ _______ _______ _____ _____    ______ ____
ROOT
ATOM      1  N   UNL     1       5.291   7.651  -1.270  0.00  0.00    -0.285 N 
ATOM      2  C   UNL     1       5.694   6.366  -1.317  0.00  0.00    +0.222 C 
ATOM      3  O   UNL     1       6.877   6.101  -1.308  0.00  0.00    -0.275 OA
ATOM      4  H   UNL     1       4.220   7.889  -1.183  0.00  0.00    +0.155 HD
ENDROOT
BRANCH   1  12
ATOM      5  C   UNL     1       4.592  11.546   0.350  0.00  0.00    +0.001 A 
ATOM      6  C   UNL     1       5.591  12.517   0.242  0.00  0.00    +0.004 A 
ATOM      7  C   UNL     1       6.770  12.225  -0.372  0.00  0.00    -0.039 A 
ATOM      8  C   UNL     1       6.942  10.941  -0.880  0.00  0.00    -0.010 A 
ATOM      9  C   UNL     1       8.172  10.720  -1.491  0.00  0.00    -0.039 A 
ATOM     10  C   UNL     1       8.420   9.487  -2.015  0.00  0.00    +0.006 A 
ATOM     11  C   UNL     1       7.461   8.477  -1.931  0.00  0.00    +0.024 A 
ATOM     12  C   UNL     1       6.232   8.681  -1.333  0.00  0.00    +0.041 A 
ATOM     13  C   UNL     1       5.951   9.948  -0.783  0.00  0.00    +0.004 A 
ATOM     14  C   UNL     1       4.747  10.283  -0.144  0.00  0.00    +0.010 A 
ATOM     15  C   UNL     1       8.958  12.006  -1.401  0.00  0.00    +0.040 C 
ATOM     16  C   UNL     1       8.033  12.998  -0.662  0.00  0.00    +0.040 C 
ENDBRANCH   1  12
BRANCH   2  17
ATOM     17  C   UNL     1       4.674   5.258  -1.380  0.00  0.00    +0.093 C 
ATOM     18  C   UNL     1       5.390   3.906  -1.419  0.00  0.00    +0.016 C 
ATOM     19  C   UNL     1       4.356   2.782  -1.517  0.00  0.00    +0.020 C 
ATOM     20  C   UNL     1       3.454   2.815  -0.273  0.00  0.00    +0.108 C 
ATOM     21  N   UNL     1       2.873   4.160  -0.152  0.00  0.00    -0.294 N 
ATOM     22  C   UNL     1       3.775   5.320  -0.141  0.00  0.00    +0.121 C 
ATOM     23  C   UNL     1       1.540   4.325  -0.049  0.00  0.00    +0.282 C 
ATOM     24  O   UNL     1       0.811   3.354   0.030  0.00  0.00    -0.267 OA
BRANCH  23  25
ATOM     25  C   UNL     1       0.968   5.676  -0.031  0.00  0.00    +0.189 A 
ATOM     26  C   UNL     1      -0.362   5.984  -0.040  0.00  0.00    +0.054 A 
ATOM     27  C   UNL     1      -0.452   7.384  -0.010  0.00  0.00    +0.042 A 
ATOM     28  C   UNL     1       0.811   7.864   0.008  0.00  0.00    +0.196 A 
ATOM     29  O   UNL     1       1.664   6.831  -0.002  0.00  0.00    -0.458 OA
ENDBRANCH  23  25
ENDBRANCH   2  17
TORSDOF 3
