REMARK  Name = ZINC01002421
REMARK  6 active torsions:
REMARK  status: ('A' for Active; 'I' for Inactive)
REMARK    1  A    between atoms: C_1  and  C_2
REMARK    2  A    between atoms: C_9  and  C_11
REMARK    3  A    between atoms: C_12  and  C_36
REMARK    4  A    between atoms: C_16  and  C_18
REMARK    5  A    between atoms: C_19  and  C_23
REMARK    6  A    between atoms: C_27  and  C_30
REMARK                            x       y       z     vdW  Elec       q    Type
REMARK                         _______ _______ _______ _____ _____    ______ ____
ROOT
ATOM      1  C   UNL     1       1.808   3.954  -0.835  0.00  0.00    +0.044 C 
ATOM      2  C   UNL     1       3.124   4.222  -0.857  0.00  0.00    +0.014 C 
ATOM      3  N   UNL     1       3.916   3.890   0.207  0.00  0.00    -0.321 N 
ATOM      4  C   UNL     1       3.367   3.658   1.440  0.00  0.00    +0.016 C 
ATOM      5  C   UNL     1       2.056   3.360   1.560  0.00  0.00    +0.024 C 
ATOM      6  C   UNL     1       1.170   3.278   0.343  0.00  0.00    +0.097 C 
ATOM      7  C   UNL     1       1.480   3.117   2.820  0.00  0.00    +0.162 C 
ATOM      8  O   UNL     1       0.294   2.866   2.895  0.00  0.00    -0.292 OA
ATOM      9  C   UNL     1       2.307   3.163   4.076  0.00  0.00    +0.088 C 
ATOM     10  C   UNL     1       3.753   2.790   3.735  0.00  0.00    +0.032 C 
ATOM     11  C   UNL     1       4.259   3.748   2.653  0.00  0.00    +0.059 C 
ATOM     12  C   UNL     1       3.731   4.893  -2.062  0.00  0.00    +0.061 C 
ATOM     13  H   UNL     1       5.005   3.807   0.077  0.00  0.00    +0.152 HD
ENDROOT
BRANCH   1  22
ATOM     14  C   UNL     1      -2.446   4.656  -7.346  0.00  0.00    +0.045 C 
ATOM     15  C   UNL     1      -1.518   4.401  -6.187  0.00  0.00    -0.032 A 
ATOM     16  C   UNL     1      -1.263   5.402  -5.259  0.00  0.00    +0.008 A 
ATOM     17  C   UNL     1      -0.409   5.125  -4.207  0.00  0.00    +0.044 A 
ATOM     18  C   UNL     1       0.172   3.864  -4.121  0.00  0.00    +0.125 A 
ATOM     19  N   UNL     1      -0.097   2.936  -5.026  0.00  0.00    -0.240 NA
ATOM     20  C   UNL     1      -0.912   3.170  -6.036  0.00  0.00    +0.116 A 
ATOM     21  N   UNL     1       1.038   3.574  -3.070  0.00  0.00    -0.267 N 
ATOM     22  C   UNL     1       1.007   4.316  -1.946  0.00  0.00    +0.248 C 
ATOM     23  O   UNL     1       0.290   5.298  -1.884  0.00  0.00    -0.270 OA
ATOM     24  H   UNL     1       1.749   2.738  -3.158  0.00  0.00    +0.157 HD
ENDBRANCH   1  22
BRANCH   6  25
ATOM     25  C   UNL     1       0.922   1.830   0.009  0.00  0.00    +0.005 A 
ATOM     26  C   UNL     1      -0.257   1.181  -0.152  0.00  0.00    -0.039 A 
ATOM     27  C   UNL     1      -0.244  -0.167  -0.461  0.00  0.00    +0.011 A 
ATOM     28  C   UNL     1       0.948  -0.798  -0.595  0.00  0.00    +0.046 A 
ATOM     29  S   UNL     1       2.105   0.524  -0.280  0.00  0.00    -0.100 S 
ATOM     30  C   UNL     1      -1.563   1.918  -0.002  0.00  0.00    +0.044 C 
ENDBRANCH   6  25
BRANCH  10  31
ATOM     31  C   UNL     1       4.613   2.917   4.966  0.00  0.00    -0.044 A 
ATOM     32  C   UNL     1       4.732   4.138   5.603  0.00  0.00    +0.004 A 
ATOM     33  C   UNL     1       5.517   4.254   6.734  0.00  0.00    +0.000 A 
ATOM     34  C   UNL     1       6.191   3.150   7.224  0.00  0.00    +0.000 A 
ATOM     35  C   UNL     1       6.075   1.930   6.585  0.00  0.00    +0.000 A 
ATOM     36  C   UNL     1       5.287   1.814   5.455  0.00  0.00    +0.004 A 
ENDBRANCH  10  31
TORSDOF 3
