REMARK  Name = ZINC51359327
REMARK  3 active torsions:
REMARK  status: ('A' for Active; 'I' for Inactive)
REMARK    1  A    between atoms: C_3  and  C_7
REMARK    2  A    between atoms: N_12  and  S_13
REMARK    3  A    between atoms: S_13  and  C_16
REMARK                            x       y       z     vdW  Elec       q    Type
REMARK                         _______ _______ _______ _____ _____    ______ ____
ROOT
ATOM      1  C   UNL     1       2.850   0.924  -0.590  0.00  0.00    +0.066 C 
ATOM      2  C   UNL     1       3.357  -0.533  -0.543  0.00  0.00    +0.020 C 
ATOM      3  C   UNL     1       4.898  -0.368  -0.611  0.00  0.00    +0.019 C 
ATOM      4  C   UNL     1       5.107   0.932   0.205  0.00  0.00    +0.109 C 
ATOM      5  N   UNL     1       3.953   1.787  -0.143  0.00  0.00    -0.179 NA
ENDROOT
BRANCH   1   8
ATOM      6  C   UNL     1      -0.397   2.330   0.701  0.00  0.00    -0.021 C 
ATOM      7  C   UNL     1       1.066   2.519   0.239  0.00  0.00    -0.016 C 
ATOM      8  C   UNL     1       1.650   1.087   0.344  0.00  0.00    -0.053 C 
ATOM      9  N   UNL     1       0.521   0.227  -0.092  0.00  0.00    +0.382 N 
ATOM     10  C   UNL     1      -0.697   0.835   0.487  0.00  0.00    -0.082 C 
ATOM     11  H   UNL     1       0.460   0.217  -1.099  0.00  0.00    -0.085 HD
ATOM     12  H   UNL     1       0.642  -0.711   0.260  0.00  0.00    -0.085 HD
ENDBRANCH   1   8
BRANCH   5  13
ATOM     13  S   UNL     1       3.907   3.439  -0.046  0.00  0.00    +0.036 S 
ATOM     14  O   UNL     1       2.692   3.806  -0.684  0.00  0.00    -0.158 OA
ATOM     15  O   UNL     1       4.120   3.728   1.329  0.00  0.00    -0.158 OA
BRANCH  13  16
ATOM     16  C   UNL     1       5.324   4.004  -1.029  0.00  0.00    +0.170 C 
ATOM     17  C   UNL     1       6.620   3.824  -0.223  0.00  0.00    +0.052 C 
ATOM     18  C   UNL     1       7.779   4.587  -0.909  0.00  0.00    +0.168 C 
ATOM     19  S   UNL     1       6.905   5.955  -1.774  0.00  0.00    -0.029 S 
ATOM     20  O   UNL     1       7.234   7.185  -1.144  0.00  0.00    -0.174 OA
ATOM     21  O   UNL     1       7.098   5.813  -3.175  0.00  0.00    -0.174 OA
ATOM     22  C   UNL     1       5.165   5.515  -1.360  0.00  0.00    +0.193 C 
ENDBRANCH  13  16
ENDBRANCH   5  13
TORSDOF 3
