REMARK  Name = ZINC41304059
REMARK  4 active torsions:
REMARK  status: ('A' for Active; 'I' for Inactive)
REMARK    1  A    between atoms: C_1  and  C_2
REMARK    2  A    between atoms: C_3  and  C_21
REMARK    3  A    between atoms: C_8  and  C_10
REMARK    4  A    between atoms: C_10  and  C_11
REMARK                            x       y       z     vdW  Elec       q    Type
REMARK                         _______ _______ _______ _____ _____    ______ ____
ROOT
ATOM      1  C   UNL     1      -0.018   1.503   0.010  0.00  0.00    +0.066 C 
ATOM      2  C   UNL     1       0.002  -0.004   0.002  0.00  0.00    +0.050 A 
ATOM      3  C   UNL     1       0.006  -0.706  -1.158  0.00  0.00    +0.011 A 
ATOM      4  S   UNL     1       0.032  -2.379  -0.535  0.00  0.00    -0.057 S 
ATOM      5  C   UNL     1       0.036  -2.015   1.108  0.00  0.00    +0.165 A 
ATOM      6  N   UNL     1       0.023  -0.700   1.124  0.00  0.00    -0.230 NA
ATOM      7  N   UNL     1       0.053  -2.891   2.187  0.00  0.00    -0.264 N 
ATOM      8  C   UNL     1       0.053  -2.410   3.446  0.00  0.00    +0.225 C 
ATOM      9  O   UNL     1       0.038  -1.213   3.638  0.00  0.00    -0.275 OA
ATOM     10  C   UNL     1      -0.009  -0.210  -2.581  0.00  0.00    +0.053 C 
ATOM     11  H   UNL     1       0.065  -3.849   2.034  0.00  0.00    +0.157 HD
ENDROOT
BRANCH   8  12
ATOM     12  C   UNL     1       0.072  -3.361   4.616  0.00  0.00    +0.153 C 
BRANCH  12  13
ATOM     13  C   UNL     1       0.068  -2.575   5.902  0.00  0.00    +0.069 A 
ATOM     14  C   UNL     1      -0.821  -2.717   6.909  0.00  0.00    +0.116 A 
ATOM     15  N   UNL     1      -0.474  -1.821   7.884  0.00  0.00    -0.305 N 
ATOM     16  C   UNL     1      -1.010  -1.531   9.105  0.00  0.00    +0.112 A 
ATOM     17  C   UNL     1      -0.460  -0.579   9.889  0.00  0.00    +0.058 A 
ATOM     18  C   UNL     1       0.675   0.126   9.456  0.00  0.00    +0.025 A 
ATOM     19  C   UNL     1       1.220  -0.154   8.242  0.00  0.00    +0.048 A 
ATOM     20  C   UNL     1       0.634  -1.150   7.435  0.00  0.00    +0.138 A 
ATOM     21  N   UNL     1       0.945  -1.626   6.237  0.00  0.00    -0.232 NA
ATOM     22 CL   UNL     1      -1.159  -0.225  11.438  0.00  0.00    -0.082 Cl
ENDBRANCH  12  13
ENDBRANCH   8  12
TORSDOF 2
