REMARK  Name = ZINC25467055
REMARK  3 active torsions:
REMARK  status: ('A' for Active; 'I' for Inactive)
REMARK    1  A    between atoms: C_4  and  C_7
REMARK    2  A    between atoms: N_14  and  N_17
REMARK    3  A    between atoms: C_18  and  C_20
REMARK                            x       y       z     vdW  Elec       q    Type
REMARK                         _______ _______ _______ _____ _____    ______ ____
ROOT
ATOM      1  C   UNL     1       1.247  -2.164  -0.022  0.00  0.00    +0.004 A 
ATOM      2  C   UNL     1       0.518  -2.873   0.874  0.00  0.00    +0.056 A 
ATOM      3  S   UNL     1       0.885  -4.566   0.455  0.00  0.00    -0.076 S 
ATOM      4  C   UNL     1       1.996  -4.286  -0.898  0.00  0.00    +0.116 A 
ATOM      5  C   UNL     1       2.054  -2.887  -0.998  0.00  0.00    +0.081 A 
ATOM      6  C   UNL     1       2.904  -2.373  -2.029  0.00  0.00    +0.280 A 
ATOM      7  O   UNL     1       3.022  -1.170  -2.191  0.00  0.00    -0.265 OA
ATOM      8  N   UNL     1       3.566  -3.237  -2.820  0.00  0.00    -0.212 N 
ATOM      9  C   UNL     1       3.446  -4.580  -2.653  0.00  0.00    +0.223 A 
ATOM     10  N   UNL     1       2.682  -5.078  -1.719  0.00  0.00    -0.228 NA
ENDROOT
BRANCH   1  14
ATOM     11  C   UNL     1       1.170   2.086   0.002  0.00  0.00    +0.000 A 
ATOM     12  C   UNL     1      -0.017   1.376   0.010  0.00  0.00    +0.001 A 
ATOM     13  C   UNL     1       0.002  -0.004   0.002  0.00  0.00    +0.008 A 
ATOM     14  C   UNL     1       1.220  -0.682  -0.013  0.00  0.00    -0.017 A 
ATOM     15  C   UNL     1       2.413   0.040  -0.021  0.00  0.00    +0.008 A 
ATOM     16  C   UNL     1       2.382   1.419  -0.013  0.00  0.00    +0.001 A 
ENDBRANCH   1  14
BRANCH   8  17
ATOM     17  N   UNL     1       4.397  -2.743  -3.834  0.00  0.00    -0.219 N 
ATOM     18  C   UNL     1       3.996  -2.798  -5.120  0.00  0.00    +0.237 C 
ATOM     19  O   UNL     1       2.917  -3.277  -5.399  0.00  0.00    -0.274 OA
ATOM     20  H   UNL     1       5.375  -2.309  -3.581  0.00  0.00    +0.176 HD
BRANCH  18  21
ATOM     21  C   UNL     1       4.889  -2.266  -6.210  0.00  0.00    +0.115 C 
ATOM     22  C   UNL     1       4.378  -2.356  -7.649  0.00  0.00    +0.055 C 
ATOM     23  C   UNL     1       4.436  -1.001  -6.941  0.00  0.00    +0.130 C 
ATOM     24 CL   UNL     1       2.873  -0.260  -6.430  0.00  0.00    -0.100 Cl
ATOM     25 CL   UNL     1       5.711   0.159  -7.467  0.00  0.00    -0.100 Cl
ENDBRANCH  18  21
ENDBRANCH   8  17
TORSDOF 3
