REMARK  Name = ZINC65381432
REMARK  5 active torsions:
REMARK  status: ('A' for Active; 'I' for Inactive)
REMARK    1  A    between atoms: C_1  and  C_2
REMARK    2  A    between atoms: C_10  and  N_12
REMARK    3  A    between atoms: C_15  and  C_25
REMARK    4  A    between atoms: C_16  and  C_18
REMARK    5  A    between atoms: C_20  and  C_24
REMARK                            x       y       z     vdW  Elec       q    Type
REMARK                         _______ _______ _______ _____ _____    ______ ____
ROOT
ATOM      1  N   UNL     1      -3.171  -2.779  -0.928  0.00  0.00    -0.261 NA
ATOM      2  C   UNL     1      -4.380  -3.630  -0.825  0.00  0.00    +0.229 C 
ATOM      3  N   UNL     1      -5.215  -3.018   0.215  0.00  0.00    -0.270 NA
ATOM      4  C   UNL     1      -4.839  -1.804   0.443  0.00  0.00    +0.068 C 
ATOM      5  C   UNL     1      -3.667  -1.464  -0.452  0.00  0.00    +0.156 C 
ENDROOT
BRANCH   1  15
ATOM      6  C   UNL     1      -0.540  -6.362  -3.764  0.00  0.00    +0.073 C 
ATOM      7  C   UNL     1      -0.852  -5.955  -2.347  0.00  0.00    +0.076 A 
ATOM      8  N   UNL     1      -1.321  -4.812  -1.914  0.00  0.00    -0.247 NA
ATOM      9  C   UNL     1      -1.552  -4.585  -0.626  0.00  0.00    +0.069 A 
ATOM     10  C   UNL     1      -1.264  -5.629   0.197  0.00  0.00    +0.014 A 
ATOM     11  S   UNL     1      -0.691  -6.863  -0.936  0.00  0.00    -0.077 S 
ATOM     12  C   UNL     1      -1.410  -5.687   1.679  0.00  0.00    +0.044 C 
ATOM     13  C   UNL     1      -1.597  -4.253   2.200  0.00  0.00    +0.007 C 
ATOM     14  C   UNL     1      -2.652  -3.549   1.340  0.00  0.00    +0.025 C 
ATOM     15  C   UNL     1      -2.097  -3.282  -0.060  0.00  0.00    +0.109 C 
ENDBRANCH   1  15
BRANCH   5  16
ATOM     16  C   UNL     1      -4.121  -0.620  -1.615  0.00  0.00    +0.060 A 
ATOM     17  H   UNL     1      -3.856   1.209  -4.128  0.00  0.00    +0.166 HD
ATOM     18  C   UNL     1      -3.320   0.020  -2.488  0.00  0.00    +0.035 A 
ATOM     19  N   UNL     1      -4.138   0.662  -3.378  0.00  0.00    -0.350 N 
ATOM     20  C   UNL     1      -5.411   0.392  -3.018  0.00  0.00    +0.171 A 
ATOM     21  N   UNL     1      -5.393  -0.380  -1.966  0.00  0.00    -0.348 N 
ATOM     22  C   UNL     1      -1.813   0.028  -2.485  0.00  0.00    +0.065 C 
ATOM     23  H   UNL     1      -6.176  -0.723  -1.508  0.00  0.00    +0.166 HD
ENDBRANCH   5  16
BRANCH   4  24
ATOM     24  C   UNL     1      -5.456  -0.889   1.423  0.00  0.00    -0.002 A 
ATOM     25  C   UNL     1      -5.032   0.438   1.509  0.00  0.00    +0.010 A 
ATOM     26  C   UNL     1      -5.614   1.287   2.427  0.00  0.00    +0.001 A 
ATOM     27  C   UNL     1      -6.615   0.826   3.263  0.00  0.00    +0.000 A 
ATOM     28  C   UNL     1      -7.040  -0.488   3.185  0.00  0.00    +0.001 A 
ATOM     29  C   UNL     1      -6.471  -1.347   2.266  0.00  0.00    +0.010 A 
ENDBRANCH   4  24
TORSDOF 3
