REMARK  Name = ZINC43191454
REMARK  10 active torsions:
REMARK  status: ('A' for Active; 'I' for Inactive)
REMARK    1  A    between atoms: C_1  and  C_2
REMARK    2  A    between atoms: C_17  and  C_35
REMARK    3  A    between atoms: C_19  and  O_33
REMARK    4  A    between atoms: C_22  and  C_32
REMARK    5  A    between atoms: C_23  and  C_24
REMARK    6  A    between atoms: C_23  and  O_31
REMARK    7  A    between atoms: C_24  and  C_26
REMARK    8  A    between atoms: C_26  and  O_27
REMARK    9  A    between atoms: O_27  and  C_28
REMARK   10  A    between atoms: C_28  and  C_30
REMARK                            x       y       z     vdW  Elec       q    Type
REMARK                         _______ _______ _______ _____ _____    ______ ____
ROOT
ATOM      1  C   UNL     1      -0.745   1.340   0.256  0.00  0.00    +0.011 C 
ATOM      2  C   UNL     1      -0.443  -0.160   0.182  0.00  0.00    +0.026 C 
ATOM      3  C   UNL     1      -1.675  -0.971   0.669  0.00  0.00    +0.011 C 
ATOM      4  C   UNL     1      -1.232  -1.488   2.047  0.00  0.00    +0.005 C 
ATOM      5  C   UNL     1      -2.012  -2.593   2.665  0.00  0.00    +0.034 C 
ATOM      6  C   UNL     1      -2.879  -3.457   1.751  0.00  0.00    +0.011 C 
ATOM      7  C   UNL     1      -3.983  -4.001   2.674  0.00  0.00    +0.032 C 
ATOM      8  C   UNL     1      -3.410  -4.502   3.972  0.00  0.00    -0.053 C 
ATOM      9  C   UNL     1      -4.266  -5.130   4.813  0.00  0.00    +0.051 C 
ATOM     10  C   UNL     1      -3.692  -5.601   6.098  0.00  0.00    +0.179 C 
ATOM     11  O   UNL     1      -4.024  -6.652   6.619  0.00  0.00    -0.288 OA
ATOM     12  C   UNL     1      -2.679  -4.697   6.710  0.00  0.00    +0.047 C 
ATOM     13  C   UNL     1      -1.829  -4.092   5.852  0.00  0.00    -0.009 C 
ATOM     14  C   UNL     1      -1.982  -4.377   4.393  0.00  0.00    +0.044 C 
ATOM     15  C   UNL     1      -1.129  -3.542   3.475  0.00  0.00    +0.153 C 
ATOM     16  C   UNL     1       0.003  -2.767   4.119  0.00  0.00    +0.154 C 
ATOM     17  C   UNL     1       0.979  -2.263   3.038  0.00  0.00    +0.044 C 
ATOM     18  C   UNL     1       0.250  -1.821   1.802  0.00  0.00    +0.010 C 
ATOM     19  C   UNL     1       0.727  -0.514   1.137  0.00  0.00    +0.135 C 
ATOM     20  C   UNL     1       0.397  -2.900   0.709  0.00  0.00    +0.015 C 
ATOM     21  F   UNL     1      -0.562  -4.475   2.593  0.00  0.00    -0.238 F 
ATOM     22  C   UNL     1      -1.410  -5.790   4.207  0.00  0.00    +0.023 C 
ENDROOT
BRANCH  19  23
ATOM     23  C   UNL     1       0.938   0.586   2.136  0.00  0.00    +0.202 C 
ATOM     24  O   UNL     1       0.316   0.589   3.171  0.00  0.00    -0.291 OA
BRANCH  23  25
ATOM     25  C   UNL     1       1.926   1.686   1.847  0.00  0.00    +0.309 C 
BRANCH  25  26
ATOM     26  O   UNL     1       1.856   2.672   2.879  0.00  0.00    -0.457 OA
BRANCH  26  27
ATOM     27  C   UNL     1       2.678   3.727   2.770  0.00  0.00    +0.304 C 
ATOM     28  O   UNL     1       3.433   3.811   1.831  0.00  0.00    -0.251 OA
ATOM     29  C   UNL     1       2.661   4.807   3.821  0.00  0.00    +0.136 C 
ENDBRANCH  26  27
ENDBRANCH  25  26
ENDBRANCH  23  25
ENDBRANCH  19  23
BRANCH  19  30
ATOM     30  O   UNL     1       1.920  -0.758   0.395  0.00  0.00    -0.380 OA
ATOM     31  H   UNL     1       2.227   0.003  -0.118  0.00  0.00    +0.211 HD
ENDBRANCH  19  30
BRANCH  16  32
ATOM     32  O   UNL     1      -0.512  -1.649   4.849  0.00  0.00    -0.389 OA
ATOM     33  H   UNL     1       0.168  -1.116   5.282  0.00  0.00    +0.210 HD
ENDBRANCH  16  32
TORSDOF 6
