REMARK  Name = ZINC56229264
REMARK  8 active torsions:
REMARK  status: ('A' for Active; 'I' for Inactive)
REMARK    1  A    between atoms: C_1  and  C_2
REMARK    2  A    between atoms: C_7  and  N_12
REMARK    3  A    between atoms: C_9  and  C_11
REMARK    4  A    between atoms: C_13  and  C_15
REMARK    5  A    between atoms: C_15  and  C_17
REMARK    6  A    between atoms: C_15  and  S_18
REMARK    7  A    between atoms: S_18  and  C_19
REMARK    8  A    between atoms: C_19  and  C_20
REMARK                            x       y       z     vdW  Elec       q    Type
REMARK                         _______ _______ _______ _____ _____    ______ ____
ROOT
ATOM      1  C   UNL     1       1.936  -4.254   4.128  0.00  0.00    +0.129 C 
ATOM      2  C   UNL     1       1.220  -3.760   5.387  0.00  0.00    +0.029 C 
ENDROOT
BRANCH   1   4
ATOM      3  N   UNL     1       1.471  -2.526   2.420  0.00  0.00    -0.311 N 
ATOM      4  C   UNL     1       1.207  -3.754   2.907  0.00  0.00    +0.226 C 
ATOM      5  O   UNL     1       0.382  -4.458   2.364  0.00  0.00    -0.275 OA
ATOM      6  H   UNL     1       2.131  -1.963   2.855  0.00  0.00    +0.149 HD
BRANCH   3  12
ATOM      7  C   UNL     1      -0.019   1.526   0.010  0.00  0.00    +0.008 C 
ATOM      8  C   UNL     1       0.002  -0.004   0.002  0.00  0.00    -0.009 C 
ATOM      9  C   UNL     1       0.718  -0.497  -1.257  0.00  0.00    +0.003 C 
ATOM     10  C   UNL     1       0.739  -2.027  -1.265  0.00  0.00    +0.002 C 
ATOM     11  C   UNL     1       1.479  -2.534  -0.026  0.00  0.00    +0.022 C 
ATOM     12  C   UNL     1       0.763  -2.041   1.233  0.00  0.00    +0.076 C 
ATOM     13  C   UNL     1       0.742  -0.511   1.242  0.00  0.00    +0.009 C 
ATOM     14  C   UNL     1       0.026  -0.018   2.500  0.00  0.00    +0.009 C 
ENDBRANCH   3  12
ENDBRANCH   1   4
BRANCH   1  15
ATOM     15  S   UNL     1       1.960  -6.067   4.118  0.00  0.00    -0.141 S 
BRANCH  15  16
ATOM     16  C   UNL     1       2.990  -6.500   5.548  0.00  0.00    +0.146 C 
BRANCH  16  17
ATOM     17  C   UNL     1       3.093  -8.000   5.657  0.00  0.00    +0.146 A 
ATOM     18  N   UNL     1       2.204  -8.672   6.366  0.00  0.00    -0.199 NA
ATOM     19  C   UNL     1       2.292  -9.997   6.464  0.00  0.00    +0.217 A 
ATOM     20  N   UNL     1       3.276 -10.643   5.848  0.00  0.00    -0.181 NA
ATOM     21  C   UNL     1       4.168  -9.963   5.136  0.00  0.00    +0.217 A 
ATOM     22  N   UNL     1       4.071  -8.639   5.038  0.00  0.00    -0.199 NA
ATOM     23  N   UNL     1       5.192 -10.629   4.494  0.00  0.00    -0.327 N 
ATOM     24  N   UNL     1       1.363 -10.698   7.205  0.00  0.00    -0.327 N 
ATOM     25  H   UNL     1       5.261 -11.595   4.562  0.00  0.00    +0.145 HD
ATOM     26  H   UNL     1       5.844 -10.133   3.974  0.00  0.00    +0.145 HD
ATOM     27  H   UNL     1       0.645 -10.226   7.654  0.00  0.00    +0.145 HD
ATOM     28  H   UNL     1       1.427 -11.663   7.276  0.00  0.00    +0.145 HD
ENDBRANCH  16  17
ENDBRANCH  15  16
ENDBRANCH   1  15
TORSDOF 5
