REMARK  Name = ZINC36206448
REMARK  15 active torsions:
REMARK  status: ('A' for Active; 'I' for Inactive)
REMARK    1  A    between atoms: C_1  and  C_2
REMARK    2  A    between atoms: C_5  and  C_9
REMARK    3  A    between atoms: C_6  and  C_8
REMARK    4  A    between atoms: C_18  and  C_20
REMARK    5  A    between atoms: C_20  and  N_21
REMARK    6  A    between atoms: N_21  and  C_22
REMARK    7  A    between atoms: N_21  and  C_28
REMARK    8  A    between atoms: C_22  and  C_23
REMARK    9  A    between atoms: C_28  and  C_29
REMARK   10  A    between atoms: C_29  and  C_31
REMARK   11  A    between atoms: C_29  and  O_36
REMARK   12  A    between atoms: C_31  and  O_32
REMARK   13  A    between atoms: O_32  and  C_33
REMARK   14  A    between atoms: C_33  and  C_34
REMARK   15  A    between atoms: C_33  and  C_35
REMARK                            x       y       z     vdW  Elec       q    Type
REMARK                         _______ _______ _______ _____ _____    ______ ____
ROOT
ATOM      1  C   UNL     1      -4.766  -7.628   7.947  0.00  0.00    +0.004 A 
ATOM      2  C   UNL     1      -4.770  -8.859   8.513  0.00  0.00    +0.056 A 
ATOM      3  S   UNL     1      -4.374  -9.940   7.152  0.00  0.00    -0.076 S 
ATOM      4  C   UNL     1      -4.214  -8.726   5.868  0.00  0.00    +0.116 A 
ATOM      5  C   UNL     1      -4.477  -7.512   6.523  0.00  0.00    +0.080 A 
ATOM      6  C   UNL     1      -4.419  -6.340   5.703  0.00  0.00    +0.260 A 
ATOM      7  O   UNL     1      -4.628  -5.238   6.182  0.00  0.00    -0.267 OA
ATOM      8  N   UNL     1      -4.130  -6.472   4.395  0.00  0.00    -0.312 N 
ATOM      9  H   UNL     1      -4.090  -5.681   3.835  0.00  0.00    +0.170 HD
ATOM     10  C   UNL     1      -3.894  -7.691   3.845  0.00  0.00    +0.094 A 
ATOM     11  N   UNL     1      -3.929  -8.777   4.569  0.00  0.00    -0.229 NA
ENDROOT
BRANCH   1  16
ATOM     12  C   UNL     1      -5.891  -2.945  11.103  0.00  0.00    +0.044 C 
ATOM     13  C   UNL     1      -5.597  -4.171  10.277  0.00  0.00    -0.050 A 
ATOM     14  C   UNL     1      -4.461  -4.918  10.534  0.00  0.00    +0.004 A 
ATOM     15  C   UNL     1      -4.187  -6.041   9.781  0.00  0.00    +0.009 A 
ATOM     16  C   UNL     1      -5.056  -6.423   8.760  0.00  0.00    -0.014 A 
ATOM     17  C   UNL     1      -6.199  -5.665   8.506  0.00  0.00    -0.042 A 
ATOM     18  C   UNL     1      -6.466  -4.547   9.269  0.00  0.00    +0.007 A 
ATOM     19  C   UNL     1      -7.143  -6.071   7.404  0.00  0.00    +0.044 C 
ENDBRANCH   1  16
BRANCH  10  20
ATOM     20  C   UNL     1      -3.574  -7.790   2.376  0.00  0.00    -0.003 C 
BRANCH  20  21
ATOM     21  N   UNL     1      -3.291  -9.189   2.030  0.00  0.00    +0.391 N 
ATOM     22  H   UNL     1      -2.586  -9.554   2.654  0.00  0.00    -0.080 HD
BRANCH  21  23
ATOM     23  C   UNL     1      -2.804  -9.263   0.646  0.00  0.00    -0.002 C 
BRANCH  23  24
ATOM     24  C   UNL     1      -1.518  -8.487   0.523  0.00  0.00    +0.089 A 
ATOM     25  C   UNL     1      -0.278  -8.998   0.621  0.00  0.00    +0.042 A 
ATOM     26  C   UNL     1       0.624  -7.923   0.444  0.00  0.00    +0.041 A 
ATOM     27  C   UNL     1      -0.120  -6.819   0.250  0.00  0.00    +0.195 A 
ATOM     28  O   UNL     1      -1.416  -7.167   0.293  0.00  0.00    -0.470 OA
ENDBRANCH  23  24
ENDBRANCH  21  23
BRANCH  21  29
ATOM     29  C   UNL     1      -4.519  -9.984   2.160  0.00  0.00    -0.044 C 
BRANCH  29  30
ATOM     30  C   UNL     1      -4.189 -11.467   1.980  0.00  0.00    +0.124 C 
BRANCH  30  31
ATOM     31  O   UNL     1      -3.817 -11.711   0.623  0.00  0.00    -0.391 OA
ATOM     32  H   UNL     1      -4.506 -11.493  -0.019  0.00  0.00    +0.210 HD
ENDBRANCH  30  31
BRANCH  30  33
ATOM     33  C   UNL     1      -5.417 -12.309   2.332  0.00  0.00    +0.189 C 
BRANCH  33  34
ATOM     34  O   UNL     1      -5.075 -13.696   2.277  0.00  0.00    -0.375 OA
BRANCH  34  35
ATOM     35  C   UNL     1      -6.157 -14.574   2.591  0.00  0.00    +0.112 C 
ATOM     36  C   UNL     1      -5.982 -15.891   1.831  0.00  0.00    +0.037 C 
ATOM     37  C   UNL     1      -6.170 -14.851   4.095  0.00  0.00    +0.037 C 
ENDBRANCH  34  35
ENDBRANCH  33  34
ENDBRANCH  30  33
ENDBRANCH  29  30
ENDBRANCH  21  29
ENDBRANCH  20  21
ENDBRANCH  10  20
TORSDOF 11
