REMARK  Name = ZINC38650702
REMARK  15 active torsions:
REMARK  status: ('A' for Active; 'I' for Inactive)
REMARK    1  A    between atoms: C_1  and  C_2
REMARK    2  A    between atoms: C_2  and  C_3
REMARK    3  A    between atoms: C_3  and  C_4
REMARK    4  A    between atoms: C_4  and  O_5
REMARK    5  A    between atoms: O_5  and  C_6
REMARK    6  A    between atoms: C_10  and  C_12
REMARK    7  A    between atoms: C_12  and  O_14
REMARK    8  A    between atoms: O_14  and  C_15
REMARK    9  A    between atoms: C_22  and  N_38
REMARK   10  A    between atoms: C_23  and  C_36
REMARK   11  A    between atoms: C_24  and  C_26
REMARK   12  A    between atoms: C_29  and  O_32
REMARK   13  A    between atoms: O_32  and  C_33
REMARK   14  A    between atoms: C_33  and  C_34
REMARK   15  A    between atoms: C_34  and  C_35
REMARK                            x       y       z     vdW  Elec       q    Type
REMARK                         _______ _______ _______ _____ _____    ______ ____
ROOT
ATOM      1  C   UNL     1       3.634  -8.180  -6.310  0.00  0.00    +0.135 A 
ATOM      2  C   UNL     1       4.225  -7.373  -7.273  0.00  0.00    +0.047 A 
ATOM      3  C   UNL     1       4.823  -7.943  -8.379  0.00  0.00    +0.012 A 
ATOM      4  C   UNL     1       4.835  -9.318  -8.534  0.00  0.00    +0.008 A 
ATOM      5  C   UNL     1       4.247 -10.129  -7.576  0.00  0.00    +0.138 A 
ATOM      6  C   UNL     1       3.651  -9.557  -6.459  0.00  0.00    +0.093 A 
ATOM      7  O   UNL     1       4.249 -11.478  -7.711  0.00  0.00    -0.441 OA
ATOM      8  C   UNL     1       5.127 -12.068  -8.539  0.00  0.00    +0.199 C 
ATOM      9  C   UNL     1       5.752 -11.384  -9.527  0.00  0.00    +0.098 C 
ATOM     10  C   UNL     1       5.491  -9.920  -9.748  0.00  0.00    +0.098 C 
ENDROOT
BRANCH  10  11
ATOM     11  C   UNL     1       4.586  -9.749 -10.941  0.00  0.00    -0.034 A 
ATOM     12  C   UNL     1       3.318 -10.300 -10.930  0.00  0.00    +0.008 A 
ATOM     13  C   UNL     1       2.487 -10.145 -12.022  0.00  0.00    +0.046 A 
ATOM     14  C   UNL     1       2.925  -9.436 -13.131  0.00  0.00    +0.121 A 
ATOM     15  C   UNL     1       4.197  -8.883 -13.139  0.00  0.00    +0.046 A 
ATOM     16  C   UNL     1       5.023  -9.037 -12.043  0.00  0.00    +0.008 A 
BRANCH  14  17
ATOM     17  O   UNL     1       2.109  -9.282 -14.207  0.00  0.00    -0.492 OA
BRANCH  17  18
ATOM     18  C   UNL     1       2.626  -8.540 -15.313  0.00  0.00    +0.229 C 
BRANCH  18  19
ATOM     19  C   UNL     1       1.573  -8.474 -16.420  0.00  0.00    +0.038 C 
ATOM     20  C   UNL     1       2.127  -7.679 -17.605  0.00  0.00    +0.007 C 
ENDBRANCH  18  19
ENDBRANCH  17  18
ENDBRANCH  14  17
ENDBRANCH  10  11
BRANCH   8  21
ATOM     21  N   UNL     1       5.399 -13.404  -8.379  0.00  0.00    -0.328 N 
ATOM     22  H   UNL     1       4.960 -13.907  -7.676  0.00  0.00    +0.145 HD
ATOM     23  H   UNL     1       6.031 -13.844  -8.969  0.00  0.00    +0.145 HD
ENDBRANCH   8  21
BRANCH   9  24
ATOM     24  C   UNL     1       6.678 -12.068 -10.377  0.00  0.00    +0.101 C 
ATOM     25  N   UNL     1       7.413 -12.612 -11.051  0.00  0.00    -0.191 NA
ENDBRANCH   9  24
BRANCH   1  26
ATOM     26  O   UNL     1       3.046  -7.621  -5.221  0.00  0.00    -0.422 OA
BRANCH  26  27
ATOM     27  C   UNL     1       1.828  -7.065  -5.375  0.00  0.00    +0.345 C 
ATOM     28  O   UNL     1       1.328  -6.995  -6.480  0.00  0.00    -0.245 OA
BRANCH  27  33
ATOM     29  C   UNL     1      -0.837  -5.478  -3.252  0.00  0.00    +0.121 A 
ATOM     30  C   UNL     1      -0.260  -5.562  -1.992  0.00  0.00    +0.046 A 
ATOM     31  C   UNL     1       0.990  -6.132  -1.835  0.00  0.00    +0.004 A 
ATOM     32  C   UNL     1       1.672  -6.622  -2.929  0.00  0.00    +0.015 A 
ATOM     33  C   UNL     1       1.100  -6.542  -4.200  0.00  0.00    +0.063 A 
ATOM     34  C   UNL     1      -0.164  -5.971  -4.357  0.00  0.00    +0.060 A 
BRANCH  29  35
ATOM     35  O   UNL     1      -2.066  -4.916  -3.400  0.00  0.00    -0.492 OA
BRANCH  35  36
ATOM     36  C   UNL     1      -2.703  -4.428  -2.218  0.00  0.00    +0.229 C 
BRANCH  36  37
ATOM     37  C   UNL     1      -4.066  -3.836  -2.581  0.00  0.00    +0.041 C 
BRANCH  37  39
ATOM     38  C   UNL     1      -6.111  -2.720  -1.678  0.00  0.00    +0.004 C 
ATOM     39  C   UNL     1      -4.748  -3.313  -1.315  0.00  0.00    -0.000 C 
ENDBRANCH  37  39
ENDBRANCH  36  37
ENDBRANCH  35  36
ENDBRANCH  29  35
ENDBRANCH  27  33
ENDBRANCH  26  27
ENDBRANCH   1  26
TORSDOF 13
