REMARK  Name = ZINC00910635
REMARK  5 active torsions:
REMARK  status: ('A' for Active; 'I' for Inactive)
REMARK    1  A    between atoms: C_4  and  O_25
REMARK    2  A    between atoms: C_5  and  C_7
REMARK    3  A    between atoms: C_10  and  C_20
REMARK    4  A    between atoms: C_10  and  O_24
REMARK    5  A    between atoms: C_12  and  C_14
REMARK                            x       y       z     vdW  Elec       q    Type
REMARK                         _______ _______ _______ _____ _____    ______ ____
ROOT
ATOM      1  C   UNL     1       2.371  -0.025   1.611  0.00  0.00    +0.272 C 
ATOM      2  O   UNL     1       1.982  -0.989   0.979  0.00  0.00    -0.268 OA
ATOM      3  N   UNL     1       2.036   1.219   1.217  0.00  0.00    -0.148 N 
ATOM      4  C   UNL     1       1.308   1.562  -0.016  0.00  0.00    +0.257 C 
ATOM      5  C   UNL     1       1.207   3.100   0.045  0.00  0.00    +0.119 C 
ATOM      6  C   UNL     1       1.906   3.453   1.343  0.00  0.00    +0.045 C 
ATOM      7  N   UNL     1       2.321   2.394   1.909  0.00  0.00    -0.183 NA
ENDROOT
BRANCH   1  12
ATOM      8  C   UNL     1       4.338   0.686   4.727  0.00  0.00    +0.001 A 
ATOM      9  C   UNL     1       4.784  -0.582   5.063  0.00  0.00    +0.004 A 
ATOM     10  C   UNL     1       4.449  -1.671   4.282  0.00  0.00    +0.046 A 
ATOM     11  C   UNL     1       3.662  -1.500   3.154  0.00  0.00    +0.129 A 
ATOM     12  C   UNL     1       3.208  -0.219   2.810  0.00  0.00    +0.080 A 
ATOM     13  C   UNL     1       3.560   0.874   3.606  0.00  0.00    +0.017 A 
BRANCH  11  14
ATOM     14  O   UNL     1       3.331  -2.569   2.386  0.00  0.00    -0.506 OA
ATOM     15  H   UNL     1       3.961  -2.752   1.675  0.00  0.00    +0.292 HD
ENDBRANCH  11  14
ENDBRANCH   1  12
BRANCH   6  16
ATOM     16  C   UNL     1       2.083   4.850   1.879  0.00  0.00    +0.035 C 
ATOM     17  C   UNL     1       2.985   5.648   0.935  0.00  0.00    +0.009 C 
ATOM     18  C   UNL     1       3.165   7.066   1.480  0.00  0.00    +0.001 C 
ATOM     19  C   UNL     1       3.808   7.002   2.867  0.00  0.00    +0.000 C 
ATOM     20  C   UNL     1       2.907   6.204   3.811  0.00  0.00    +0.001 C 
ATOM     21  C   UNL     1       2.727   4.786   3.266  0.00  0.00    +0.009 C 
ENDBRANCH   6  16
BRANCH   4  22
ATOM     22  C   UNL     1       2.099   1.122  -1.250  0.00  0.00    +0.438 C 
ATOM     23  F   UNL     1       1.427   1.534  -2.405  0.00  0.00    -0.166 F 
ATOM     24  F   UNL     1       3.372   1.701  -1.219  0.00  0.00    -0.166 F 
ATOM     25  F   UNL     1       2.220  -0.272  -1.252  0.00  0.00    -0.166 F 
ENDBRANCH   4  22
BRANCH   4  26
ATOM     26  O   UNL     1       0.008   0.971  -0.015  0.00  0.00    -0.363 OA
ATOM     27  H   UNL     1       0.015   0.004  -0.017  0.00  0.00    +0.212 HD
ENDBRANCH   4  26
TORSDOF 5
