REMARK  Name = ZINC39379849
REMARK  9 active torsions:
REMARK  status: ('A' for Active; 'I' for Inactive)
REMARK    1  A    between atoms: C_1  and  C_2
REMARK    2  A    between atoms: C_7  and  S_12
REMARK    3  A    between atoms: S_12  and  C_13
REMARK    4  A    between atoms: C_13  and  C_14
REMARK    5  A    between atoms: N_16  and  C_17
REMARK    6  A    between atoms: C_17  and  C_19
REMARK    7  A    between atoms: C_17  and  C_20
REMARK    8  A    between atoms: N_23  and  C_27
REMARK    9  A    between atoms: C_24  and  C_26
REMARK                            x       y       z     vdW  Elec       q    Type
REMARK                         _______ _______ _______ _____ _____    ______ ____
ROOT
ATOM      1  C   UNL     1      -6.274   4.195  -7.254  0.00  0.00    +0.224 C 
ATOM      2  O   UNL     1      -7.359   4.290  -6.720  0.00  0.00    -0.275 OA
ATOM      3  N   UNL     1      -6.115   4.591  -8.532  0.00  0.00    -0.308 N 
ATOM      4  H   UNL     1      -5.248   4.515  -8.960  0.00  0.00    +0.149 HD
ENDROOT
BRANCH   3   5
ATOM      5  C   UNL     1      -7.253   5.138  -9.277  0.00  0.00    +0.099 C 
ATOM      6  C   UNL     1      -8.061   3.991  -9.887  0.00  0.00    +0.033 C 
BRANCH   5   7
ATOM      7  C   UNL     1      -6.748   6.038 -10.375  0.00  0.00    -0.013 C 
ATOM      8  C   UNL     1      -5.490   6.227 -10.710  0.00  0.00    +0.091 C 
ATOM      9  N   UNL     1      -5.364   7.115 -11.761  0.00  0.00    -0.271 N 
ATOM     10  N   UNL     1      -6.627   7.563 -12.173  0.00  0.00    -0.247 N 
ATOM     11  C   UNL     1      -7.597   6.883 -11.299  0.00  0.00    +0.120 C 
ATOM     12  C   UNL     1      -8.400   7.909 -10.497  0.00  0.00    +0.035 C 
ATOM     13  H   UNL     1      -4.522   7.389 -12.157  0.00  0.00    +0.169 HD
BRANCH  10  14
ATOM     14  C   UNL     1      -6.906   8.465 -13.203  0.00  0.00    +0.048 A 
ATOM     15  C   UNL     1      -8.221   8.814 -13.484  0.00  0.00    +0.025 A 
ATOM     16  C   UNL     1      -8.494   9.706 -14.502  0.00  0.00    +0.002 A 
ATOM     17  C   UNL     1      -7.461  10.251 -15.242  0.00  0.00    +0.000 A 
ATOM     18  C   UNL     1      -6.151   9.905 -14.965  0.00  0.00    +0.002 A 
ATOM     19  C   UNL     1      -5.870   9.019 -13.944  0.00  0.00    +0.025 A 
ENDBRANCH  10  14
ENDBRANCH   5   7
ENDBRANCH   3   5
BRANCH   1  20
ATOM     20  C   UNL     1      -5.104   3.633  -6.489  0.00  0.00    +0.173 C 
BRANCH  20  21
ATOM     21  S   UNL     1      -5.634   3.194  -4.810  0.00  0.00    -0.079 S 
BRANCH  21  28
ATOM     22  C   UNL     1      -0.027   0.257  -0.422  0.00  0.00    +0.044 C 
ATOM     23  C   UNL     1      -0.763   0.847  -1.597  0.00  0.00    -0.048 A 
ATOM     24  C   UNL     1      -0.088   1.081  -2.786  0.00  0.00    +0.005 A 
ATOM     25  C   UNL     1      -0.746   1.619  -3.869  0.00  0.00    +0.030 A 
ATOM     26  C   UNL     1      -2.104   1.933  -3.770  0.00  0.00    +0.090 A 
ATOM     27  N   UNL     1      -3.005   2.462  -4.639  0.00  0.00    -0.222 NA
ATOM     28  C   UNL     1      -4.174   2.561  -4.054  0.00  0.00    +0.168 A 
ATOM     29  H   UNL     1      -4.813   2.064  -2.124  0.00  0.00    +0.168 HD
ATOM     30  N   UNL     1      -4.091   2.100  -2.770  0.00  0.00    -0.333 N 
ATOM     31  C   UNL     1      -2.782   1.694  -2.564  0.00  0.00    +0.067 A 
ATOM     32  C   UNL     1      -2.105   1.147  -1.485  0.00  0.00    +0.031 A 
ENDBRANCH  21  28
ENDBRANCH  20  21
ENDBRANCH   1  20
TORSDOF 6
