REMARK  Name = ZINC33072119
REMARK  9 active torsions:
REMARK  status: ('A' for Active; 'I' for Inactive)
REMARK    1  A    between atoms: C_1  and  C_2
REMARK    2  A    between atoms: C_2  and  N_3
REMARK    3  A    between atoms: C_4  and  C_32
REMARK    4  A    between atoms: C_5  and  C_9
REMARK    5  A    between atoms: C_6  and  C_8
REMARK    6  A    between atoms: C_9  and  C_10
REMARK    7  A    between atoms: C_10  and  N_11
REMARK    8  A    between atoms: C_12  and  C_14
REMARK    9  A    between atoms: C_26  and  C_31
REMARK                            x       y       z     vdW  Elec       q    Type
REMARK                         _______ _______ _______ _____ _____    ______ ____
ROOT
ATOM      1  C   UNL     1       7.886  -0.665   0.073  0.00  0.00    +0.092 C 
ATOM      2  C   UNL     1       8.485   0.132  -1.089  0.00  0.00    +0.016 C 
ATOM      3  C   UNL     1       7.900   1.547  -1.083  0.00  0.00    +0.020 C 
ATOM      4  C   UNL     1       6.375   1.464  -1.183  0.00  0.00    +0.108 C 
ATOM      5  N   UNL     1       5.851   0.694  -0.049  0.00  0.00    -0.302 N 
ATOM      6  C   UNL     1       6.361  -0.683  -0.060  0.00  0.00    +0.120 C 
ATOM      7  C   UNL     1       4.472   0.709  -0.036  0.00  0.00    +0.174 A 
ATOM      8  N   UNL     1       3.700   1.836  -0.023  0.00  0.00    -0.327 N 
ATOM      9  H   UNL     1       4.175   2.828  -0.023  0.00  0.00    +0.169 HD
ATOM     10  C   UNL     1       2.377   1.427  -0.013  0.00  0.00    +0.066 A 
ATOM     11  C   UNL     1       1.163   2.098   0.002  0.00  0.00    +0.031 A 
ATOM     12  C   UNL     1      -0.017   1.383   0.010  0.00  0.00    -0.048 A 
ATOM     13  C   UNL     1       0.002  -0.004   0.002  0.00  0.00    +0.005 A 
ATOM     14  C   UNL     1       1.198  -0.687  -0.013  0.00  0.00    +0.028 A 
ATOM     15  C   UNL     1       2.401   0.022  -0.020  0.00  0.00    +0.065 A 
ATOM     16  N   UNL     1       3.707  -0.354  -0.035  0.00  0.00    -0.327 N 
ATOM     17  C   UNL     1      -1.335   2.114   0.020  0.00  0.00    +0.044 C 
ATOM     18  H   UNL     1       4.160  -1.357  -0.044  0.00  0.00    +0.169 HD
ENDROOT
BRANCH   1  20
ATOM     19  N   UNL     1       9.735  -2.306   0.143  0.00  0.00    -0.315 N 
ATOM     20  C   UNL     1       8.411  -2.077   0.040  0.00  0.00    +0.218 C 
ATOM     21  O   UNL     1       7.642  -3.007  -0.078  0.00  0.00    -0.275 OA
ATOM     22  H   UNL     1      10.432  -1.462   0.250  0.00  0.00    +0.149 HD
BRANCH  19  23
ATOM     23  C   UNL     1      10.246  -3.679   0.111  0.00  0.00    +0.109 C 
BRANCH  23  24
ATOM     24  C   UNL     1      11.770  -3.659   0.244  0.00  0.00    +0.057 C 
BRANCH  24  27
ATOM     25  N   UNL     1      12.962  -7.054   0.834  0.00  0.00    -0.268 N 
ATOM     26  C   UNL     1      12.483  -5.875   1.283  0.00  0.00    +0.040 A 
ATOM     27  C   UNL     1      12.295  -5.071   0.211  0.00  0.00    -0.003 A 
ATOM     28  C   UNL     1      12.680  -5.780  -0.931  0.00  0.00    +0.063 A 
ATOM     29  N   UNL     1      13.080  -6.969  -0.560  0.00  0.00    -0.176 NA
ATOM     30  C   UNL     1      12.641  -5.263  -2.346  0.00  0.00    +0.068 C 
ATOM     31  C   UNL     1      12.205  -5.520   2.721  0.00  0.00    +0.065 C 
BRANCH  25  33
ATOM     32  C   UNL     1      14.768  -8.124   2.089  0.00  0.00    +0.029 C 
ATOM     33  C   UNL     1      13.303  -8.217   1.658  0.00  0.00    +0.140 C 
ENDBRANCH  25  33
ENDBRANCH  24  27
ENDBRANCH  23  24
ENDBRANCH  19  23
ENDBRANCH   1  20
TORSDOF 5
