REMARK  Name = ZINC63376008
REMARK  8 active torsions:
REMARK  status: ('A' for Active; 'I' for Inactive)
REMARK    1  A    between atoms: C_1  and  C_2
REMARK    2  A    between atoms: C_2  and  C_3
REMARK    3  A    between atoms: C_3  and  C_4
REMARK    4  A    between atoms: C_4  and  C_5
REMARK    5  A    between atoms: C_5  and  C_6
REMARK    6  A    between atoms: C_6  and  N_7
REMARK    7  A    between atoms: C_8  and  O_32
REMARK    8  A    between atoms: C_10  and  C_17
REMARK                            x       y       z     vdW  Elec       q    Type
REMARK                         _______ _______ _______ _____ _____    ______ ____
ROOT
ATOM      1  N   UNL     1      -4.301  -4.691  -0.174  0.00  0.00    -0.286 N 
ATOM      2  C   UNL     1      -4.868  -4.875   1.163  0.00  0.00    +0.217 C 
ATOM      3  C   UNL     1      -5.768  -6.113   1.171  0.00  0.00    +0.141 C 
ATOM      4  C   UNL     1      -6.674  -6.074  -0.035  0.00  0.00    +0.227 C 
ATOM      5  O   UNL     1      -7.801  -6.513   0.040  0.00  0.00    -0.275 OA
ATOM      6  N   UNL     1      -6.230  -5.552  -1.192  0.00  0.00    -0.267 N 
ATOM      7  C   UNL     1      -5.019  -4.975  -1.273  0.00  0.00    +0.141 C 
ATOM      8  S   UNL     1      -4.372  -4.598  -2.813  0.00  0.00    -0.018 S 
ATOM      9  H   UNL     1      -6.794  -5.589  -1.980  0.00  0.00    +0.157 HD
ENDROOT
BRANCH   3  10
ATOM     10  C   UNL     1      -4.903  -7.374   1.122  0.00  0.00    +0.096 C 
ATOM     11  C   UNL     1      -4.054  -7.467   2.392  0.00  0.00    +0.124 C 
ATOM     12  C   UNL     1      -3.108  -8.644   2.187  0.00  0.00    -0.036 C 
ATOM     13  C   UNL     1      -3.274  -9.445   3.230  0.00  0.00    -0.001 A 
ATOM     14  C   UNL     1      -2.588 -10.682   3.637  0.00  0.00    +0.010 A 
ATOM     15  C   UNL     1      -3.032 -11.265   4.782  0.00  0.00    +0.001 A 
ATOM     16  C   UNL     1      -4.077 -10.747   5.554  0.00  0.00    +0.002 A 
ATOM     17  C   UNL     1      -4.759  -9.612   5.259  0.00  0.00    +0.026 A 
ATOM     18  C   UNL     1      -4.379  -8.906   4.080  0.00  0.00    +0.043 A 
ATOM     19  N   UNL     1      -4.848  -7.779   3.579  0.00  0.00    -0.376 N 
ATOM     20  C   UNL     1      -2.279  -8.785   0.933  0.00  0.00    +0.048 C 
ATOM     21  C   UNL     1      -3.239  -8.546  -0.246  0.00  0.00    +0.085 C 
ATOM     22  N   UNL     1      -3.999  -7.311  -0.037  0.00  0.00    -0.310 NA
ATOM     23  H   UNL     1      -4.500  -7.048  -0.873  0.00  0.00    +0.122 HD
ATOM     24  H   UNL     1      -5.585  -7.252   3.923  0.00  0.00    +0.160 HD
ENDBRANCH   3  10
BRANCH   2  25
ATOM     25  O   UNL     1      -5.638  -3.724   1.517  0.00  0.00    -0.373 OA
ATOM     26  H   UNL     1      -5.130  -2.902   1.533  0.00  0.00    +0.212 HD
ENDBRANCH   2  25
BRANCH   1  27
ATOM     27  C   UNL     1      -2.934  -4.184  -0.315  0.00  0.00    +0.109 C 
BRANCH  27  28
ATOM     28  C   UNL     1      -2.962  -2.655  -0.385  0.00  0.00    +0.019 C 
BRANCH  28  29
ATOM     29  C   UNL     1      -1.534  -2.126  -0.533  0.00  0.00    +0.002 C 
BRANCH  29  30
ATOM     30  C   UNL     1      -1.561  -0.598  -0.602  0.00  0.00    -0.000 C 
BRANCH  30  32
ATOM     31  C   UNL     1      -0.161   1.460  -0.819  0.00  0.00    +0.004 C 
ATOM     32  C   UNL     1      -0.134  -0.068  -0.750  0.00  0.00    -0.003 C 
ENDBRANCH  30  32
ENDBRANCH  29  30
ENDBRANCH  28  29
ENDBRANCH  27  28
ENDBRANCH   1  27
TORSDOF 7
