REMARK  Name = ZINC63686404
REMARK  7 active torsions:
REMARK  status: ('A' for Active; 'I' for Inactive)
REMARK    1  A    between atoms: C_1  and  C_2
REMARK    2  A    between atoms: C_4  and  C_30
REMARK    3  A    between atoms: C_9  and  C_13
REMARK    4  A    between atoms: C_13  and  S_14
REMARK    5  A    between atoms: S_14  and  C_15
REMARK    6  A    between atoms: C_19  and  C_23
REMARK    7  A    between atoms: N_21  and  C_22
REMARK                            x       y       z     vdW  Elec       q    Type
REMARK                         _______ _______ _______ _____ _____    ______ ____
ROOT
ATOM      1  S   UNL     1       2.774  -4.301   4.330  0.00  0.00    -0.119 S 
ENDROOT
BRANCH   1   2
ATOM      2  C   UNL     1       2.904  -5.280   5.851  0.00  0.00    +0.200 C 
ATOM      3  N   UNL     1       2.716  -6.717   5.548  0.00  0.00    -0.229 NA
ATOM      4  N   UNL     1       1.962  -7.240   6.699  0.00  0.00    -0.233 NA
ATOM      5  C   UNL     1       1.028  -6.129   7.020  0.00  0.00    +0.171 C 
ATOM      6  N   UNL     1       1.827  -4.903   6.790  0.00  0.00    -0.260 NA
ATOM      7  C   UNL     1       2.383  -4.391   8.051  0.00  0.00    +0.109 C 
ATOM      8  H   UNL     1       3.604  -7.186   5.454  0.00  0.00    +0.143 HD
ATOM      9  H   UNL     1       1.456  -8.077   6.450  0.00  0.00    +0.143 HD
BRANCH   5  10
ATOM     10  C   UNL     1       0.586  -6.212   8.459  0.00  0.00    -0.012 A 
ATOM     11  C   UNL     1       1.479  -6.617   9.434  0.00  0.00    +0.007 A 
ATOM     12  C   UNL     1       1.075  -6.693  10.754  0.00  0.00    +0.003 A 
ATOM     13  C   UNL     1      -0.222  -6.364  11.100  0.00  0.00    +0.038 A 
ATOM     14  C   UNL     1      -1.116  -5.958  10.125  0.00  0.00    +0.124 A 
ATOM     15  C   UNL     1      -0.709  -5.876   8.804  0.00  0.00    +0.045 A 
ATOM     16  F   UNL     1      -2.384  -5.636  10.463  0.00  0.00    -0.205 F 
ENDBRANCH   5  10
ENDBRANCH   1   2
BRANCH   1  17
ATOM     17  C   UNL     1       1.123  -4.701   3.691  0.00  0.00    +0.125 C 
BRANCH  17  26
ATOM     18  C   UNL     1      -0.409   1.691   0.366  0.00  0.00    +0.044 C 
ATOM     19  C   UNL     1      -0.112   0.216   0.276  0.00  0.00    -0.048 A 
ATOM     20  C   UNL     1      -0.068  -0.401  -0.966  0.00  0.00    +0.007 A 
ATOM     21  C   UNL     1       0.201  -1.738  -1.069  0.00  0.00    -0.037 A 
ATOM     22  C   UNL     1       0.431  -2.486   0.085  0.00  0.00    +0.048 A 
ATOM     23  C   UNL     1       0.387  -1.867   1.347  0.00  0.00    +0.051 A 
ATOM     24  C   UNL     1       0.118  -0.504   1.428  0.00  0.00    +0.029 A 
ATOM     25  N   UNL     1       0.616  -2.617   2.479  0.00  0.00    -0.357 N 
ATOM     26  C   UNL     1       0.883  -3.943   2.411  0.00  0.00    +0.030 A 
ATOM     27  C   UNL     1       0.944  -4.612   1.240  0.00  0.00    +0.073 A 
ATOM     28  C   UNL     1       0.723  -3.929   0.021  0.00  0.00    +0.190 A 
ATOM     29  O   UNL     1       0.772  -4.515  -1.048  0.00  0.00    -0.287 OA
ATOM     30  C   UNL     1       0.246  -2.399  -2.422  0.00  0.00    +0.044 C 
ATOM     31  H   UNL     1       0.585  -2.184   3.347  0.00  0.00    +0.166 HD
ENDBRANCH  17  26
ENDBRANCH   1  17
TORSDOF 4
