REMARK  Name = ZINC33810446
REMARK  12 active torsions:
REMARK  status: ('A' for Active; 'I' for Inactive)
REMARK    1  A    between atoms: C_1  and  C_2
REMARK    2  A    between atoms: C_2  and  O_3
REMARK    3  A    between atoms: O_3  and  C_4
REMARK    4  A    between atoms: C_7  and  C_12
REMARK    5  A    between atoms: C_9  and  O_10
REMARK    6  A    between atoms: O_10  and  C_11
REMARK    7  A    between atoms: C_17  and  S_21
REMARK    8  A    between atoms: S_21  and  C_22
REMARK    9  A    between atoms: C_22  and  C_23
REMARK   10  A    between atoms: C_22  and  C_24
REMARK   11  A    between atoms: C_31  and  C_33
REMARK   12  A    between atoms: C_31  and  C_34
REMARK                            x       y       z     vdW  Elec       q    Type
REMARK                         _______ _______ _______ _____ _____    ______ ____
ROOT
ATOM      1  C   UNL     1      -0.057   3.671  -0.806  0.00  0.00    +0.093 C 
ATOM      2  C   UNL     1       1.198   2.969  -0.379  0.00  0.00    +0.069 A 
ATOM      3  C   UNL     1       1.174   1.663  -0.000  0.00  0.00    +0.135 A 
ATOM      4  N   UNL     1       2.342   1.051   0.372  0.00  0.00    -0.208 NA
ATOM      5  C   UNL     1       3.512   1.751   0.365  0.00  0.00    +0.171 A 
ATOM      6  N   UNL     1       3.547   3.017   0.005  0.00  0.00    -0.302 N 
ATOM      7  C   UNL     1       2.429   3.659  -0.369  0.00  0.00    +0.258 A 
ATOM      8  O   UNL     1       2.478   4.835  -0.699  0.00  0.00    -0.267 OA
ATOM      9  N   UNL     1      -0.011   0.966   0.007  0.00  0.00    -0.302 N 
ATOM     10  C   UNL     1      -1.209   1.627   0.017  0.00  0.00    +0.017 C 
ATOM     11  C   UNL     1      -1.284   2.923  -0.351  0.00  0.00    +0.024 C 
ATOM     12  C   UNL     1      -2.508   3.614  -0.325  0.00  0.00    +0.162 C 
ATOM     13  O   UNL     1      -2.543   4.777  -0.673  0.00  0.00    -0.292 OA
ATOM     14  C   UNL     1      -3.775   2.940   0.125  0.00  0.00    +0.086 C 
ATOM     15  C   UNL     1      -3.425   1.834   1.126  0.00  0.00    -0.023 C 
ATOM     16  C   UNL     1      -2.440   0.871   0.459  0.00  0.00    +0.058 C 
ATOM     17  C   UNL     1      -2.779   2.451   2.369  0.00  0.00    +0.011 C 
ATOM     18  C   UNL     1      -4.694   1.078   1.523  0.00  0.00    +0.011 C 
ATOM     19  H   UNL     1      -0.002  -0.134   0.006  0.00  0.00    +0.153 HD
ATOM     20  H   UNL     1       4.501   3.563   0.007  0.00  0.00    +0.171 HD
ENDROOT
BRANCH   1  24
ATOM     21  C   UNL     1      -0.108   3.972  -5.072  0.00  0.00    +0.162 A 
ATOM     22  C   UNL     1      -0.061   2.728  -4.463  0.00  0.00    +0.050 A 
ATOM     23  C   UNL     1      -0.045   2.634  -3.084  0.00  0.00    +0.008 A 
ATOM     24  C   UNL     1      -0.075   3.779  -2.309  0.00  0.00    -0.032 A 
ATOM     25  C   UNL     1      -0.127   5.023  -2.911  0.00  0.00    +0.054 A 
ATOM     26  C   UNL     1      -0.138   5.125  -4.293  0.00  0.00    +0.162 A 
BRANCH  26  27
ATOM     27  O   UNL     1      -0.184   6.348  -4.886  0.00  0.00    -0.491 OA
ATOM     28  C   UNL     1      -0.213   7.486  -4.023  0.00  0.00    +0.277 C 
ENDBRANCH  26  27
BRANCH  21  29
ATOM     29  O   UNL     1      -0.124   4.066  -6.429  0.00  0.00    -0.489 OA
BRANCH  29  31
ATOM     30  C   UNL     1      -0.116   3.147  -8.664  0.00  0.00    +0.048 C 
ATOM     31  C   UNL     1      -0.091   2.842  -7.165  0.00  0.00    +0.226 C 
ENDBRANCH  29  31
ENDBRANCH  21  29
ENDBRANCH   1  24
BRANCH   5  32
ATOM     32  S   UNL     1       5.004   0.947   0.847  0.00  0.00    -0.085 S 
BRANCH  32  33
ATOM     33  C   UNL     1       6.176   2.312   0.647  0.00  0.00    +0.048 C 
ATOM     34  C   UNL     1       5.844   3.419   1.650  0.00  0.00    +0.019 C 
ATOM     35  C   UNL     1       7.597   1.805   0.898  0.00  0.00    +0.019 C 
ENDBRANCH  32  33
ENDBRANCH   5  32
TORSDOF 6
