REMARK  Name = ZINC23635276
REMARK  10 active torsions:
REMARK  status: ('A' for Active; 'I' for Inactive)
REMARK    1  A    between atoms: C_1  and  C_2
REMARK    2  A    between atoms: C_2  and  C_4
REMARK    3  A    between atoms: C_2  and  S_16
REMARK    4  A    between atoms: S_16  and  C_17
REMARK    5  A    between atoms: N_30  and  C_31
REMARK    6  A    between atoms: C_31  and  C_32
REMARK    7  A    between atoms: C_32  and  C_33
REMARK    8  A    between atoms: C_33  and  N_34
REMARK    9  A    between atoms: N_34  and  C_35
REMARK   10  A    between atoms: N_34  and  C_36
REMARK                            x       y       z     vdW  Elec       q    Type
REMARK                         _______ _______ _______ _____ _____    ______ ____
ROOT
ATOM      1  C   UNL     1      -0.118  -4.466   0.917  0.00  0.00    +0.173 A 
ATOM      2  N   UNL     1       0.907  -4.958   0.251  0.00  0.00    -0.216 NA
ATOM      3  C   UNL     1       1.119  -6.268   0.199  0.00  0.00    +0.117 A 
ATOM      4  C   UNL     1       0.268  -7.188   0.834  0.00  0.00    +0.076 A 
ATOM      5  C   UNL     1       0.626  -8.600   0.683  0.00  0.00    -0.023 A 
ATOM      6  C   UNL     1       1.728  -8.877  -0.043  0.00  0.00    -0.004 A 
ATOM      7  S   UNL     1       2.346  -7.299  -0.563  0.00  0.00    -0.073 S 
ATOM      8  C   UNL     1       2.301 -10.229  -0.343  0.00  0.00    +0.043 C 
ATOM      9  C   UNL     1       1.660 -11.248   0.609  0.00  0.00    +0.005 C 
ATOM     10  C   UNL     1       0.143 -11.036   0.608  0.00  0.00    +0.005 C 
ATOM     11  C   UNL     1      -0.197  -9.721   1.311  0.00  0.00    +0.037 C 
ATOM     12  C   UNL     1      -0.840  -6.625   1.544  0.00  0.00    +0.263 A 
ATOM     13  O   UNL     1      -1.632  -7.347   2.126  0.00  0.00    -0.267 OA
ATOM     14  N   UNL     1      -0.995  -5.289   1.562  0.00  0.00    -0.287 N 
ENDROOT
BRANCH   1  15
ATOM     15  S   UNL     1      -0.363  -2.722   0.970  0.00  0.00    -0.077 S 
BRANCH  15  17
ATOM     16  C   UNL     1       0.889  -2.671  -1.458  0.00  0.00    +0.027 C 
ATOM     17  C   UNL     1       1.050  -2.175  -0.020  0.00  0.00    +0.117 C 
BRANCH  17  18
ATOM     18  C   UNL     1       1.117  -0.670  -0.012  0.00  0.00    +0.124 A 
ATOM     19  N   UNL     1       2.340  -0.078  -0.020  0.00  0.00    -0.309 N 
ATOM     20  H   UNL     1       3.250  -0.697  -0.032  0.00  0.00    +0.170 HD
ATOM     21  C   UNL     1       2.453   1.270  -0.014  0.00  0.00    +0.259 A 
ATOM     22  O   UNL     1       3.543   1.813  -0.021  0.00  0.00    -0.267 OA
ATOM     23  C   UNL     1       1.209   2.054   0.002  0.00  0.00    +0.065 A 
ATOM     24  C   UNL     1       1.216   3.447   0.009  0.00  0.00    +0.015 A 
ATOM     25  C   UNL     1       0.021   4.132   0.025  0.00  0.00    +0.001 A 
ATOM     26  C   UNL     1      -1.187   3.445   0.032  0.00  0.00    +0.002 A 
ATOM     27  C   UNL     1      -1.215   2.069   0.030  0.00  0.00    +0.028 A 
ATOM     28  C   UNL     1      -0.016   1.352   0.009  0.00  0.00    +0.078 A 
ATOM     29  N   UNL     1       0.002  -0.004   0.002  0.00  0.00    -0.233 NA
ENDBRANCH  17  18
ENDBRANCH  15  17
ENDBRANCH   1  15
BRANCH  14  30
ATOM     30  C   UNL     1      -2.126  -4.706   2.288  0.00  0.00    +0.125 C 
BRANCH  30  31
ATOM     31  C   UNL     1      -3.326  -4.581   1.346  0.00  0.00    +0.003 C 
BRANCH  31  32
ATOM     32  C   UNL     1      -4.507  -3.972   2.104  0.00  0.00    -0.078 C 
BRANCH  32  33
ATOM     33  N   UNL     1      -5.659  -3.852   1.200  0.00  0.00    +0.376 N 
ATOM     34  C   UNL     1      -6.149  -5.175   0.793  0.00  0.00    -0.097 C 
ATOM     35  C   UNL     1      -6.731  -3.060   1.817  0.00  0.00    -0.097 C 
ATOM     36  H   UNL     1      -5.325  -3.322   0.296  0.00  0.00    -0.083 HD
ENDBRANCH  32  33
ENDBRANCH  31  32
ENDBRANCH  30  31
ENDBRANCH  14  30
TORSDOF 7
