REMARK  Name = ZINC12473329
REMARK  9 active torsions:
REMARK  status: ('A' for Active; 'I' for Inactive)
REMARK    1  A    between atoms: C_6  and  C_7
REMARK    2  A    between atoms: C_7  and  C_9
REMARK    3  A    between atoms: C_7  and  N_19
REMARK    4  A    between atoms: N_11  and  C_12
REMARK    5  A    between atoms: C_12  and  C_13
REMARK    6  A    between atoms: N_19  and  C_20
REMARK    7  A    between atoms: C_27  and  C_29
REMARK    8  A    between atoms: C_30  and  N_37
REMARK    9  A    between atoms: C_31  and  C_34
REMARK                            x       y       z     vdW  Elec       q    Type
REMARK                         _______ _______ _______ _____ _____    ______ ____
ROOT
ATOM      1  N   UNL     1      -5.330   0.571   3.696  0.00  0.00    -0.251 N 
ATOM      2  C   UNL     1      -4.734  -0.017   4.751  0.00  0.00    +0.262 C 
ATOM      3  O   UNL     1      -3.524  -0.155   4.767  0.00  0.00    -0.269 OA
ENDROOT
BRANCH   1   4
ATOM      4  C   UNL     1      -6.710   0.806   3.713  0.00  0.00    +0.038 A 
ATOM      5  C   UNL     1      -7.240   1.774   4.557  0.00  0.00    +0.026 A 
ATOM      6  C   UNL     1      -8.601   2.008   4.569  0.00  0.00    +0.040 A 
ATOM      7  C   UNL     1      -9.438   1.271   3.749  0.00  0.00    +0.124 A 
ATOM      8  C   UNL     1      -8.913   0.301   2.911  0.00  0.00    +0.040 A 
ATOM      9  C   UNL     1      -7.552   0.068   2.892  0.00  0.00    +0.026 A 
ATOM     10  F   UNL     1     -10.770   1.497   3.766  0.00  0.00    -0.205 F 
ENDBRANCH   1   4
BRANCH   2  11
ATOM     11  C   UNL     1      -5.539  -0.489   5.878  0.00  0.00    +0.116 A 
ATOM     12  C   UNL     1      -5.125  -1.018   7.102  0.00  0.00    +0.076 A 
ATOM     13  C   UNL     1      -6.197  -1.358   7.928  0.00  0.00    +0.155 A 
ATOM     14  N   UNL     1      -7.425  -1.159   7.502  0.00  0.00    -0.203 NA
ATOM     15  S   UNL     1      -7.310  -0.535   6.059  0.00  0.00    +0.019 S 
BRANCH  13  16
ATOM     16  C   UNL     1      -5.956  -1.933   9.264  0.00  0.00    +0.262 C 
ATOM     17  O   UNL     1      -4.817  -2.113   9.651  0.00  0.00    -0.269 OA
ATOM     18  N   UNL     1      -6.997  -2.258  10.055  0.00  0.00    -0.324 N 
ATOM     19  H   UNL     1      -7.905  -2.114   9.746  0.00  0.00    +0.145 HD
ATOM     20  H   UNL     1      -6.838  -2.636  10.934  0.00  0.00    +0.145 HD
ENDBRANCH  13  16
BRANCH  12  21
ATOM     21  N   UNL     1      -3.794  -1.188   7.458  0.00  0.00    -0.355 N 
ATOM     22  H   UNL     1      -3.090  -0.932   6.841  0.00  0.00    +0.142 HD
ATOM     23  H   UNL     1      -3.567  -1.561   8.324  0.00  0.00    +0.142 HD
ENDBRANCH  12  21
ENDBRANCH   2  11
BRANCH   1  24
ATOM     24  C   UNL     1      -4.535   0.964   2.530  0.00  0.00    +0.197 C 
BRANCH  24  30
ATOM     25  C   UNL     1      -6.400   2.405   1.686  0.00  0.00    +0.009 A 
ATOM     26  C   UNL     1      -7.240   2.836   0.676  0.00  0.00    +0.038 A 
ATOM     27  C   UNL     1      -7.140   2.284  -0.590  0.00  0.00    +0.123 A 
ATOM     28  C   UNL     1      -6.195   1.305  -0.844  0.00  0.00    +0.038 A 
ATOM     29  C   UNL     1      -5.353   0.879   0.166  0.00  0.00    +0.009 A 
ATOM     30  C   UNL     1      -5.454   1.430   1.429  0.00  0.00    -0.018 A 
ATOM     31  F   UNL     1      -7.963   2.702  -1.576  0.00  0.00    -0.205 F 
ENDBRANCH  24  30
BRANCH  24  32
ATOM     32  C   UNL     1      -3.602   2.084   2.912  0.00  0.00    +0.239 C 
ATOM     33  O   UNL     1      -3.601   2.511   4.047  0.00  0.00    -0.273 OA
ATOM     34  N   UNL     1      -2.768   2.610   1.993  0.00  0.00    -0.311 N 
ATOM     35  H   UNL     1      -2.769   2.268   1.086  0.00  0.00    +0.149 HD
BRANCH  34  36
ATOM     36  C   UNL     1      -1.861   3.698   2.365  0.00  0.00    +0.135 C 
BRANCH  36  37
ATOM     37  C   UNL     1      -1.030   4.109   1.148  0.00  0.00    +0.135 C 
ATOM     38  C   UNL     1      -0.005   5.196   1.538  0.00  0.00    +0.035 C 
ATOM     39  C   UNL     1       0.036   6.131   0.309  0.00  0.00    +0.031 C 
ATOM     40  C   UNL     1      -0.969   5.498  -0.679  0.00  0.00    +0.160 C 
ATOM     41  O   UNL     1      -1.869   4.733   0.151  0.00  0.00    -0.375 OA
ENDBRANCH  36  37
ENDBRANCH  34  36
ENDBRANCH  24  32
ENDBRANCH   1  24
TORSDOF 9
