REMARK  Name = ZINC32885687
REMARK  10 active torsions:
REMARK  status: ('A' for Active; 'I' for Inactive)
REMARK    1  A    between atoms: C_1  and  C_2
REMARK    2  A    between atoms: C_3  and  C_13
REMARK    3  A    between atoms: C_4  and  C_12
REMARK    4  A    between atoms: C_9  and  C_10
REMARK    5  A    between atoms: C_13  and  C_14
REMARK    6  A    between atoms: C_14  and  C_15
REMARK    7  A    between atoms: C_20  and  C_23
REMARK    8  A    between atoms: C_23  and  N_24
REMARK    9  A    between atoms: C_26  and  C_33
REMARK   10  A    between atoms: C_29  and  C_32
REMARK                            x       y       z     vdW  Elec       q    Type
REMARK                         _______ _______ _______ _____ _____    ______ ____
ROOT
ATOM      1  C   UNL     1       4.171   5.318   1.429  0.00  0.00    +0.219 C 
ATOM      2  O   UNL     1       4.625   5.725   0.380  0.00  0.00    -0.275 OA
ATOM      3  N   UNL     1       4.806   5.586   2.587  0.00  0.00    -0.265 N 
ATOM      4  C   UNL     1       5.980   6.330   2.580  0.00  0.00    +0.164 A 
ATOM      5  N   UNL     1       6.737   6.692   3.598  0.00  0.00    -0.231 NA
ATOM      6  C   UNL     1       7.832   7.405   3.415  0.00  0.00    +0.034 A 
ATOM      7  C   UNL     1       8.167   7.761   2.151  0.00  0.00    +0.070 A 
ATOM      8  S   UNL     1       6.831   7.013   1.230  0.00  0.00    -0.060 S 
ATOM      9  H   UNL     1       4.394   5.217   3.538  0.00  0.00    +0.157 HD
ENDROOT
BRANCH   1  10
ATOM     10  C   UNL     1       2.898   4.512   1.436  0.00  0.00    +0.101 C 
BRANCH  10  11
ATOM     11  C   UNL     1       2.387   4.353   0.003  0.00  0.00    +0.046 C 
BRANCH  11  14
ATOM     12  C   UNL     1       2.501   1.442  -0.013  0.00  0.00    +0.045 C 
ATOM     13  C   UNL     1       1.172   2.153   0.002  0.00  0.00    -0.023 A 
ATOM     14  C   UNL     1       1.113   3.547   0.010  0.00  0.00    -0.024 A 
ATOM     15  C   UNL     1      -0.087   4.178   0.024  0.00  0.00    +0.019 A 
ATOM     16  N   UNL     1      -1.248   3.480   0.032  0.00  0.00    -0.325 N 
ATOM     17  H   UNL     1      -2.211   4.013   0.048  0.00  0.00    +0.169 HD
ATOM     18  C   UNL     1      -1.249   2.133   0.019  0.00  0.00    +0.267 A 
ATOM     19  O   UNL     1      -2.304   1.522   0.021  0.00  0.00    -0.266 OA
ATOM     20  C   UNL     1      -0.017   1.428   0.010  0.00  0.00    +0.119 A 
ATOM     21  C   UNL     1      -0.131   5.685   0.033  0.00  0.00    +0.063 C 
BRANCH  20  22
ATOM     22  C   UNL     1       0.002  -0.004   0.002  0.00  0.00    +0.105 C 
ATOM     23  N   UNL     1       0.018  -1.140  -0.004  0.00  0.00    -0.191 NA
ENDBRANCH  20  22
ENDBRANCH  11  14
ENDBRANCH  10  11
ENDBRANCH   1  10
BRANCH   6  24
ATOM     24  C   UNL     1       8.689   7.814   4.585  0.00  0.00    -0.022 C 
BRANCH  24  25
ATOM     25  N   UNL     1       8.158   9.051   5.172  0.00  0.00    +0.384 N 
ATOM     26  C   UNL     1       6.700   8.973   5.333  0.00  0.00    -0.075 C 
ATOM     27  C   UNL     1       6.166  10.326   5.809  0.00  0.00    -0.031 C 
ATOM     28  C   UNL     1       6.826  10.690   7.142  0.00  0.00    +0.003 C 
ATOM     29  C   UNL     1       8.346  10.716   6.959  0.00  0.00    -0.031 C 
ATOM     30  C   UNL     1       8.818   9.352   6.449  0.00  0.00    -0.075 C 
ATOM     31  C   UNL     1       9.017  11.020   8.300  0.00  0.00    +0.005 C 
ATOM     32  C   UNL     1       4.650  10.239   5.998  0.00  0.00    +0.005 C 
ATOM     33  H   UNL     1       8.376   9.877   4.479  0.00  0.00    -0.081 HD
ENDBRANCH  24  25
ENDBRANCH   6  24
TORSDOF 6
