REMARK  Name = ZINC23716292
REMARK  7 active torsions:
REMARK  status: ('A' for Active; 'I' for Inactive)
REMARK    1  A    between atoms: C_1  and  N_2
REMARK    2  A    between atoms: N_2  and  C_3
REMARK    3  A    between atoms: C_6  and  C_12
REMARK    4  A    between atoms: C_8  and  N_9
REMARK    5  A    between atoms: C_17  and  C_19
REMARK    6  A    between atoms: C_24  and  O_25
REMARK    7  A    between atoms: O_25  and  C_26
REMARK                            x       y       z     vdW  Elec       q    Type
REMARK                         _______ _______ _______ _____ _____    ______ ____
ROOT
ATOM      1  C   UNL     1      -4.489  -0.896  -0.026  0.00  0.00    +0.043 C 
ATOM      2  C   UNL     1      -3.109  -0.905  -0.038  0.00  0.00    +0.152 C 
ATOM      3  C   UNL     1      -2.225  -2.082  -0.079  0.00  0.00    +0.364 C 
ATOM      4  O   UNL     1      -2.554  -3.253  -0.109  0.00  0.00    -0.243 OA
ATOM      5  O   UNL     1      -0.970  -1.584  -0.082  0.00  0.00    -0.402 OA
ATOM      6  C   UNL     1      -1.039  -0.239  -0.037  0.00  0.00    +0.236 C 
ATOM      7  N   UNL     1      -2.276   0.176  -0.015  0.00  0.00    -0.205 NA
ENDROOT
BRANCH   1  11
ATOM      8  C   UNL     1      -6.577   2.751   0.432  0.00  0.00    +0.058 A 
ATOM      9  C   UNL     1      -5.190   2.757   0.294  0.00  0.00    +0.026 A 
ATOM     10  C   UNL     1      -4.510   1.581   0.153  0.00  0.00    +0.010 A 
ATOM     11  C   UNL     1      -5.212   0.366   0.133  0.00  0.00    -0.021 A 
ATOM     12  C   UNL     1      -6.608   0.366   0.272  0.00  0.00    +0.042 A 
ATOM     13  C   UNL     1      -7.277   1.547   0.420  0.00  0.00    +0.147 A 
BRANCH   8  15
ATOM     14  C   UNL     1      -6.522   5.206   0.723  0.00  0.00    +0.125 C 
ATOM     15  N   UNL     1      -7.263   3.950   0.583  0.00  0.00    -0.345 N 
ATOM     16  H   UNL     1      -8.363   3.956   0.597  0.00  0.00    +0.146 HD
ENDBRANCH   8  15
BRANCH  13  17
ATOM     17  N   UNL     1      -8.750   1.548   0.566  0.00  0.00    +0.058 N 
ATOM     18  O   UNL     1      -9.353   0.494   0.666  0.00  0.00    -0.126 OA
ATOM     19  O   UNL     1      -9.360   2.602   0.587  0.00  0.00    -0.126 OA
ENDBRANCH  13  17
ENDBRANCH   1  11
BRANCH   6  20
ATOM     20  C   UNL     1       0.136   0.652  -0.022  0.00  0.00    +0.079 A 
ATOM     21  C   UNL     1       1.425   0.116  -0.049  0.00  0.00    +0.017 A 
ATOM     22  C   UNL     1       2.519   0.954  -0.034  0.00  0.00    +0.001 A 
ATOM     23  C   UNL     1       2.346   2.328   0.006  0.00  0.00    +0.004 A 
ATOM     24  C   UNL     1       1.076   2.871   0.032  0.00  0.00    +0.046 A 
ATOM     25  C   UNL     1      -0.035   2.043   0.018  0.00  0.00    +0.132 A 
BRANCH  25  26
ATOM     26  O   UNL     1      -1.283   2.576   0.038  0.00  0.00    -0.494 OA
ATOM     27  C   UNL     1      -1.380   4.001   0.080  0.00  0.00    +0.277 C 
ENDBRANCH  25  26
ENDBRANCH   6  20
TORSDOF 5
