REMARK  Name = ZINC24892480
REMARK  14 active torsions:
REMARK  status: ('A' for Active; 'I' for Inactive)
REMARK    1  A    between atoms: C_1  and  C_2
REMARK    2  A    between atoms: C_2  and  C_4
REMARK    3  A    between atoms: C_2  and  N_10
REMARK    4  A    between atoms: C_4  and  C_5
REMARK    5  A    between atoms: N_10  and  C_11
REMARK    6  A    between atoms: N_10  and  C_20
REMARK    7  A    between atoms: C_11  and  C_12
REMARK    8  A    between atoms: C_15  and  O_18
REMARK    9  A    between atoms: O_18  and  C_19
REMARK   10  A    between atoms: C_20  and  C_21
REMARK   11  A    between atoms: C_27  and  O_34
REMARK   12  A    between atoms: C_28  and  O_32
REMARK   13  A    between atoms: O_32  and  C_33
REMARK   14  A    between atoms: O_34  and  C_35
REMARK                            x       y       z     vdW  Elec       q    Type
REMARK                         _______ _______ _______ _____ _____    ______ ____
ROOT
ATOM      1  N   UNL     1       2.048   5.466  -0.261  0.00  0.00    +0.389 N 
ATOM      2  H   UNL     1       1.276   5.623  -1.029  0.00  0.00    -0.080 HD
ENDROOT
BRANCH   1   4
ATOM      3  C   UNL     1       0.373   6.759   0.971  0.00  0.00    -0.013 C 
ATOM      4  C   UNL     1       1.421   5.647   1.054  0.00  0.00    -0.066 C 
BRANCH   4   5
ATOM      5  C   UNL     1       2.490   6.029   2.081  0.00  0.00    +0.027 C 
BRANCH   5   6
ATOM      6  C   UNL     1       3.446   4.878   2.262  0.00  0.00    -0.012 A 
ATOM      7  C   UNL     1       4.655   4.675   1.686  0.00  0.00    +0.011 A 
ATOM      8  C   UNL     1       5.368   3.535   2.008  0.00  0.00    +0.008 A 
ATOM      9  C   UNL     1       4.831   2.649   2.883  0.00  0.00    +0.045 A 
ATOM     10  S   UNL     1       3.275   3.426   3.287  0.00  0.00    -0.102 S 
ENDBRANCH   5   6
ENDBRANCH   4   5
ENDBRANCH   1   4
BRANCH   1  11
ATOM     11  C   UNL     1       3.109   6.458  -0.480  0.00  0.00    -0.042 C 
BRANCH  11  12
ATOM     12  C   UNL     1       2.491   7.813  -0.711  0.00  0.00    -0.064 A 
ATOM     13  C   UNL     1       1.911   8.108  -1.931  0.00  0.00    +0.005 A 
ATOM     14  C   UNL     1       1.338   9.347  -2.143  0.00  0.00    +0.046 A 
ATOM     15  C   UNL     1       1.355  10.299  -1.135  0.00  0.00    +0.120 A 
ATOM     16  C   UNL     1       1.942  10.003   0.087  0.00  0.00    +0.046 A 
ATOM     17  C   UNL     1       2.508   8.760   0.296  0.00  0.00    +0.005 A 
BRANCH  15  18
ATOM     18  O   UNL     1       0.796  11.521  -1.343  0.00  0.00    -0.495 OA
ATOM     19  C   UNL     1       0.210  11.756  -2.624  0.00  0.00    +0.277 C 
ENDBRANCH  15  18
ENDBRANCH  11  12
ENDBRANCH   1  11
BRANCH   1  20
ATOM     20  C   UNL     1       2.566   4.100  -0.414  0.00  0.00    -0.002 C 
BRANCH  20  21
ATOM     21  C   UNL     1       1.413   3.139  -0.559  0.00  0.00    +0.094 A 
ATOM     22  N   UNL     1       1.690   1.817  -0.712  0.00  0.00    -0.312 N 
ATOM     23  C   UNL     1       0.691   0.916  -0.853  0.00  0.00    +0.259 A 
ATOM     24  O   UNL     1       0.926  -0.271  -0.991  0.00  0.00    -0.267 OA
ATOM     25  C   UNL     1      -0.687   1.422  -0.825  0.00  0.00    +0.068 A 
ATOM     26  C   UNL     1      -1.786   0.573  -0.960  0.00  0.00    +0.064 A 
ATOM     27  C   UNL     1      -3.060   1.100  -0.939  0.00  0.00    +0.162 A 
ATOM     28  C   UNL     1      -3.254   2.476  -0.777  0.00  0.00    +0.164 A 
ATOM     29  C   UNL     1      -2.176   3.326  -0.622  0.00  0.00    +0.078 A 
ATOM     30  C   UNL     1      -0.880   2.812  -0.657  0.00  0.00    +0.082 A 
ATOM     31  N   UNL     1       0.206   3.617  -0.532  0.00  0.00    -0.236 NA
ATOM     32  H   UNL     1       2.735   1.472  -0.723  0.00  0.00    +0.170 HD
BRANCH  28  33
ATOM     33  O   UNL     1      -4.515   2.980  -0.757  0.00  0.00    -0.491 OA
ATOM     34  C   UNL     1      -4.647   4.393  -0.589  0.00  0.00    +0.277 C 
ENDBRANCH  28  33
BRANCH  27  35
ATOM     35  O   UNL     1      -4.135   0.278  -1.075  0.00  0.00    -0.491 OA
ATOM     36  C   UNL     1      -3.867  -1.117  -1.237  0.00  0.00    +0.277 C 
ENDBRANCH  27  35
ENDBRANCH  20  21
ENDBRANCH   1  20
TORSDOF 10
