REMARK  Name = ZINC23118686
REMARK  13 active torsions:
REMARK  status: ('A' for Active; 'I' for Inactive)
REMARK    1  A    between atoms: C_1  and  C_2
REMARK    2  A    between atoms: C_5  and  S_8
REMARK    3  A    between atoms: S_8  and  N_11
REMARK    4  A    between atoms: N_11  and  C_12
REMARK    5  A    between atoms: N_11  and  C_30
REMARK    6  A    between atoms: C_12  and  C_13
REMARK    7  A    between atoms: C_13  and  C_15
REMARK    8  A    between atoms: C_13  and  O_29
REMARK    9  A    between atoms: C_15  and  N_16
REMARK   10  A    between atoms: N_19  and  C_22
REMARK   11  A    between atoms: C_22  and  C_23
REMARK   12  A    between atoms: C_33  and  O_36
REMARK   13  A    between atoms: O_36  and  C_37
REMARK                            x       y       z     vdW  Elec       q    Type
REMARK                         _______ _______ _______ _____ _____    ______ ____
ROOT
ATOM      1  N   UNL     1       1.234  -2.081  -0.021  0.00  0.00    -0.201 N 
ENDROOT
BRANCH   1   2
ATOM      2  C   UNL     1       1.300  -0.698  -0.225  0.00  0.00    +0.052 A 
ATOM      3  C   UNL     1       0.363   0.138   0.368  0.00  0.00    +0.028 A 
ATOM      4  C   UNL     1       0.429   1.502   0.166  0.00  0.00    +0.047 A 
ATOM      5  C   UNL     1       1.432   2.038  -0.628  0.00  0.00    +0.120 A 
ATOM      6  C   UNL     1       2.369   1.204  -1.220  0.00  0.00    +0.047 A 
ATOM      7  C   UNL     1       2.304  -0.160  -1.019  0.00  0.00    +0.028 A 
BRANCH   5   8
ATOM      8  O   UNL     1       1.497   3.382  -0.826  0.00  0.00    -0.495 OA
ATOM      9  C   UNL     1       2.556   3.866  -1.655  0.00  0.00    +0.277 C 
ENDBRANCH   5   8
ENDBRANCH   1   2
BRANCH   1  10
ATOM     10  S   UNL     1      -0.106  -2.925  -0.502  0.00  0.00    +0.075 S 
ATOM     11  O   UNL     1      -0.077  -4.165   0.193  0.00  0.00    -0.150 OA
ATOM     12  O   UNL     1      -1.205  -2.029  -0.414  0.00  0.00    -0.150 OA
BRANCH  10  17
ATOM     13  C   UNL     1       0.603  -4.213  -6.354  0.00  0.00    +0.044 C 
ATOM     14  C   UNL     1       0.425  -3.891  -4.893  0.00  0.00    -0.050 A 
ATOM     15  C   UNL     1       0.887  -4.770  -3.931  0.00  0.00    +0.005 A 
ATOM     16  C   UNL     1       0.724  -4.475  -2.590  0.00  0.00    +0.029 A 
ATOM     17  C   UNL     1       0.101  -3.301  -2.211  0.00  0.00    +0.109 A 
ATOM     18  C   UNL     1      -0.365  -2.425  -3.173  0.00  0.00    +0.029 A 
ATOM     19  C   UNL     1      -0.199  -2.717  -4.514  0.00  0.00    +0.005 A 
ENDBRANCH  10  17
ENDBRANCH   1  10
BRANCH   1  20
ATOM     20  C   UNL     1       2.350  -2.781   0.619  0.00  0.00    +0.164 C 
BRANCH  20  21
ATOM     21  C   UNL     1       2.201  -2.697   2.140  0.00  0.00    +0.147 C 
BRANCH  21  22
ATOM     22  O   UNL     1       1.028  -3.408   2.543  0.00  0.00    -0.389 OA
ATOM     23  H   UNL     1       0.754  -3.458   3.607  0.00  0.00    +0.210 HD
ENDBRANCH  21  22
BRANCH  21  24
ATOM     24  C   UNL     1       3.429  -3.319   2.808  0.00  0.00    +0.117 C 
BRANCH  24  25
ATOM     25  N   UNL     1       3.285  -3.239   4.268  0.00  0.00    -0.303 NA
ATOM     26  C   UNL     1       3.313  -1.842   4.723  0.00  0.00    +0.066 C 
ATOM     27  C   UNL     1       3.081  -1.797   6.236  0.00  0.00    -0.063 C 
ATOM     28  N   UNL     1       4.118  -2.589   6.911  0.00  0.00    +0.384 N 
ATOM     29  C   UNL     1       4.091  -3.986   6.455  0.00  0.00    -0.063 C 
ATOM     30  C   UNL     1       4.322  -4.031   4.943  0.00  0.00    +0.066 C 
ATOM     31  H   UNL     1       5.098  -2.164   6.645  0.00  0.00    -0.081 HD
BRANCH  28  32
ATOM     32  C   UNL     1       3.975  -2.509   8.371  0.00  0.00    -0.043 C 
BRANCH  32  33
ATOM     33  C   UNL     1       3.761  -1.073   8.777  0.00  0.00    -0.064 A 
ATOM     34  C   UNL     1       4.847  -0.271   9.076  0.00  0.00    +0.002 A 
ATOM     35  C   UNL     1       4.651   1.047   9.444  0.00  0.00    +0.000 A 
ATOM     36  C   UNL     1       3.370   1.560   9.521  0.00  0.00    +0.000 A 
ATOM     37  C   UNL     1       2.284   0.757   9.226  0.00  0.00    +0.000 A 
ATOM     38  C   UNL     1       2.480  -0.560   8.854  0.00  0.00    +0.002 A 
ENDBRANCH  32  33
ENDBRANCH  28  32
ENDBRANCH  24  25
ENDBRANCH  21  24
ENDBRANCH  20  21
ENDBRANCH   1  20
TORSDOF 11
