REMARK  Name = ZINC14258314
REMARK  4 active torsions:
REMARK  status: ('A' for Active; 'I' for Inactive)
REMARK    1  A    between atoms: C_1  and  C_2
REMARK    2  A    between atoms: C_4  and  N_16
REMARK    3  A    between atoms: C_7  and  N_8
REMARK    4  A    between atoms: C_9  and  C_11
REMARK                            x       y       z     vdW  Elec       q    Type
REMARK                         _______ _______ _______ _____ _____    ______ ____
ROOT
ATOM      1  C   UNL     1      -3.594  -2.150  -0.165  0.00  0.00    +0.046 C 
ATOM      2  C   UNL     1      -2.253  -2.837  -0.178  0.00  0.00    -0.027 A 
ATOM      3  C   UNL     1      -2.182  -4.213  -0.283  0.00  0.00    +0.039 A 
ATOM      4  C   UNL     1      -0.953  -4.845  -0.290  0.00  0.00    +0.145 A 
ATOM      5  C   UNL     1       0.211  -4.101  -0.198  0.00  0.00    +0.073 A 
ATOM      6  C   UNL     1       0.147  -2.724  -0.099  0.00  0.00    +0.045 A 
ATOM      7  C   UNL     1      -1.087  -2.088  -0.091  0.00  0.00    +0.038 A 
ATOM      8 CL   UNL     1       1.753  -4.899  -0.207  0.00  0.00    -0.081 Cl
ENDROOT
BRANCH   7   9
ATOM      9  N   UNL     1      -1.156  -0.694   0.009  0.00  0.00    -0.282 N 
ATOM     10  C   UNL     1      -0.147  -0.009   0.584  0.00  0.00    +0.269 C 
ATOM     11  O   UNL     1       0.772  -0.606   1.103  0.00  0.00    -0.271 OA
ATOM     12  H   UNL     1      -1.929  -0.220  -0.335  0.00  0.00    +0.155 HD
BRANCH  10  13
ATOM     13  C   UNL     1      -0.162   1.498   0.582  0.00  0.00    +0.267 C 
ATOM     14 CL   UNL     1       1.310   2.115   1.420  0.00  0.00    -0.074 Cl
ATOM     15 CL   UNL     1      -0.181   2.096  -1.119  0.00  0.00    -0.074 Cl
ATOM     16 CL   UNL     1      -1.633   2.086   1.442  0.00  0.00    -0.074 Cl
ENDBRANCH  10  13
ENDBRANCH   7   9
BRANCH   4  17
ATOM     17  N   UNL     1      -0.881  -6.320  -0.396  0.00  0.00    +0.058 N 
ATOM     18  O   UNL     1      -1.904  -6.975  -0.477  0.00  0.00    -0.126 OA
ATOM     19  O   UNL     1       0.202  -6.878  -0.403  0.00  0.00    -0.126 OA
ENDBRANCH   4  17
TORSDOF 3
