REMARK  Name = ZINC47340747
REMARK  9 active torsions:
REMARK  status: ('A' for Active; 'I' for Inactive)
REMARK    1  A    between atoms: C_1  and  C_2
REMARK    2  A    between atoms: C_3  and  C_8
REMARK    3  A    between atoms: C_4  and  C_7
REMARK    4  A    between atoms: C_8  and  C_9
REMARK    5  A    between atoms: N_11  and  N_12
REMARK    6  A    between atoms: N_12  and  C_13
REMARK    7  A    between atoms: C_13  and  N_15
REMARK    8  A    between atoms: N_15  and  C_16
REMARK    9  A    between atoms: C_22  and  C_24
REMARK                            x       y       z     vdW  Elec       q    Type
REMARK                         _______ _______ _______ _____ _____    ______ ____
ROOT
ATOM      1  N   UNL     1       2.962   0.418  -4.762  0.00  0.00    -0.246 N 
ATOM      2  H   UNL     1       3.705   0.229  -4.167  0.00  0.00    +0.172 HD
ENDROOT
BRANCH   1   5
ATOM      3  C   UNL     1       1.411  -0.170  -3.054  0.00  0.00    +0.234 C 
ATOM      4  O   UNL     1       2.340  -0.406  -2.311  0.00  0.00    -0.274 OA
ATOM      5  N   UNL     1       1.645   0.252  -4.312  0.00  0.00    -0.235 N 
ATOM      6  H   UNL     1       0.903   0.441  -4.907  0.00  0.00    +0.173 HD
BRANCH   3   7
ATOM      7  C   UNL     1      -0.005  -0.348  -2.571  0.00  0.00    +0.137 C 
BRANCH   7  10
ATOM      8  C   UNL     1      -0.018   1.503   0.010  0.00  0.00    +0.069 C 
ATOM      9  C   UNL     1       0.002  -0.004   0.002  0.00  0.00    +0.084 A 
ATOM     10  C   UNL     1       0.008  -0.824  -1.141  0.00  0.00    +0.026 A 
ATOM     11  C   UNL     1       0.027  -2.108  -0.735  0.00  0.00    +0.138 A 
ATOM     12  O   UNL     1       0.034  -2.119   0.606  0.00  0.00    -0.359 OA
ATOM     13  N   UNL     1       0.023  -0.775   1.052  0.00  0.00    -0.083 NA
ATOM     14  C   UNL     1       0.039  -3.320  -1.631  0.00  0.00    +0.089 C 
ENDBRANCH   7  10
ENDBRANCH   3   7
ENDBRANCH   1   5
BRANCH   1  15
ATOM     15  C   UNL     1       3.196   0.840  -6.020  0.00  0.00    +0.147 C 
ATOM     16  S   UNL     1       4.805   1.043  -6.569  0.00  0.00    -0.017 S 
BRANCH  15  17
ATOM     17  N   UNL     1       2.164   1.102  -6.846  0.00  0.00    -0.322 N 
ATOM     18  H   UNL     1       1.253   0.988  -6.535  0.00  0.00    +0.148 HD
BRANCH  17  19
ATOM     19  C   UNL     1       2.419   1.561  -8.214  0.00  0.00    +0.075 C 
ATOM     20  C   UNL     1       2.648   0.352  -9.123  0.00  0.00    +0.022 C 
ATOM     21  C   UNL     1       1.406  -0.541  -9.107  0.00  0.00    +0.002 C 
ATOM     22  C   UNL     1       0.200   0.255  -9.612  0.00  0.00    +0.000 C 
ATOM     23  C   UNL     1      -0.029   1.464  -8.703  0.00  0.00    +0.005 C 
ATOM     24  C   UNL     1       1.214   2.357  -8.718  0.00  0.00    +0.006 C 
ATOM     25  C   UNL     1       0.984   3.566  -7.809  0.00  0.00    +0.009 C 
ENDBRANCH  17  19
ENDBRANCH  15  17
ENDBRANCH   1  15
TORSDOF 6
