REMARK  Name = ZINC53125617
REMARK  5 active torsions:
REMARK  status: ('A' for Active; 'I' for Inactive)
REMARK    1  A    between atoms: C_1  and  C_2
REMARK    2  A    between atoms: C_7  and  C_9
REMARK    3  A    between atoms: C_7  and  N_11
REMARK    4  A    between atoms: C_9  and  O_10
REMARK    5  A    between atoms: N_11  and  C_12
REMARK                            x       y       z     vdW  Elec       q    Type
REMARK                         _______ _______ _______ _____ _____    ______ ____
ROOT
ATOM      1  C   UNL     1      -0.019   1.526   0.010  0.00  0.00    +0.007 C 
ATOM      2  C   UNL     1       0.002  -0.004   0.002  0.00  0.00    -0.012 C 
ATOM      3  C   UNL     1      -1.433  -0.534   0.013  0.00  0.00    +0.003 C 
ATOM      4  C   UNL     1      -1.413  -2.063   0.004  0.00  0.00    +0.002 C 
ATOM      5  C   UNL     1      -0.673  -2.570   1.244  0.00  0.00    +0.028 C 
ATOM      6  C   UNL     1       0.763  -2.041   1.233  0.00  0.00    +0.064 C 
ATOM      7  C   UNL     1       0.742  -0.511   1.242  0.00  0.00    +0.032 C 
ENDROOT
BRANCH   6   8
ATOM      8  N   UNL     1       1.473  -2.527   2.423  0.00  0.00    -0.275 N 
ATOM      9  H   UNL     1       2.403  -2.139   2.473  0.00  0.00    +0.158 HD
BRANCH   8  10
ATOM     10  C   UNL     1       1.512  -3.957   2.448  0.00  0.00    +0.167 C 
ATOM     11  N   UNL     1       1.543  -5.092   2.468  0.00  0.00    -0.174 NA
ENDBRANCH   8  10
ENDBRANCH   6   8
BRANCH   6  12
ATOM     12  C   UNL     1       1.479  -2.534  -0.026  0.00  0.00    +0.182 C 
BRANCH  12  13
ATOM     13  O   UNL     1       1.498  -3.963  -0.034  0.00  0.00    -0.393 OA
ATOM     14  H   UNL     1       1.938  -4.346  -0.805  0.00  0.00    +0.209 HD
ENDBRANCH  12  13
ENDBRANCH   6  12
TORSDOF 4
