REMARK  Name = ZINC41515095
REMARK  7 active torsions:
REMARK  status: ('A' for Active; 'I' for Inactive)
REMARK    1  A    between atoms: C_1  and  C_2
REMARK    2  A    between atoms: C_4  and  O_31
REMARK    3  A    between atoms: C_5  and  C_20
REMARK    4  A    between atoms: C_11  and  C_12
REMARK    5  A    between atoms: C_20  and  N_21
REMARK    6  A    between atoms: C_23  and  C_30
REMARK    7  A    between atoms: C_26  and  C_29
REMARK                            x       y       z     vdW  Elec       q    Type
REMARK                         _______ _______ _______ _____ _____    ______ ____
ROOT
ATOM      1  C   UNL     1      -1.609   1.435   0.270  0.00  0.00    +0.045 C 
ATOM      2  C   UNL     1      -1.292  -0.035   0.190  0.00  0.00    -0.033 A 
ATOM      3  C   UNL     1      -1.395  -0.694  -1.003  0.00  0.00    +0.050 A 
ATOM      4  C   UNL     1      -1.101  -2.053  -1.079  0.00  0.00    +0.122 A 
ATOM      5  C   UNL     1      -0.702  -2.752   0.048  0.00  0.00    +0.020 A 
ATOM      6  C   UNL     1      -0.592  -2.098   1.269  0.00  0.00    +0.145 A 
ATOM      7  C   UNL     1      -0.885  -0.726   1.332  0.00  0.00    +0.071 A 
ATOM      8  C   UNL     1      -0.674  -0.320   2.734  0.00  0.00    +0.232 C 
ATOM      9  O   UNL     1      -0.822   0.787   3.220  0.00  0.00    -0.283 OA
ATOM     10  C   UNL     1      -0.245  -1.552   3.413  0.00  0.00    +0.176 C 
ATOM     11  C   UNL     1       0.068  -1.675   4.728  0.00  0.00    +0.058 C 
ATOM     12  O   UNL     1      -0.231  -2.544   2.491  0.00  0.00    -0.451 OA
ENDROOT
BRANCH  11  13
ATOM     13  C   UNL     1       0.170  -0.478   5.574  0.00  0.00    -0.021 A 
ATOM     14  C   UNL     1      -0.317  -0.501   6.886  0.00  0.00    +0.011 A 
ATOM     15  C   UNL     1      -0.219   0.625   7.673  0.00  0.00    +0.039 A 
ATOM     16  C   UNL     1       0.362   1.779   7.169  0.00  0.00    +0.123 A 
ATOM     17  C   UNL     1       0.846   1.809   5.870  0.00  0.00    +0.039 A 
ATOM     18  C   UNL     1       0.760   0.689   5.073  0.00  0.00    +0.011 A 
ATOM     19  F   UNL     1       0.455   2.880   7.947  0.00  0.00    -0.205 F 
ENDBRANCH  11  13
BRANCH   4  20
ATOM     20  O   UNL     1      -1.207  -2.698  -2.269  0.00  0.00    -0.506 OA
ATOM     21  H   UNL     1      -0.394  -2.692  -2.793  0.00  0.00    +0.292 HD
ENDBRANCH   4  20
BRANCH   5  22
ATOM     22  C   UNL     1      -0.389  -4.223  -0.049  0.00  0.00    -0.036 C 
BRANCH  22  23
ATOM     23  N   UNL     1       1.036  -4.400  -0.362  0.00  0.00    +0.383 N 
ATOM     24  C   UNL     1       1.316  -3.846  -1.692  0.00  0.00    -0.075 C 
ATOM     25  C   UNL     1       2.813  -3.954  -1.989  0.00  0.00    -0.031 C 
ATOM     26  C   UNL     1       3.230  -5.428  -1.950  0.00  0.00    +0.003 C 
ATOM     27  C   UNL     1       2.865  -6.015  -0.584  0.00  0.00    -0.031 C 
ATOM     28  C   UNL     1       1.366  -5.830  -0.339  0.00  0.00    -0.075 C 
ATOM     29  C   UNL     1       3.207  -7.506  -0.561  0.00  0.00    +0.005 C 
ATOM     30  C   UNL     1       3.601  -3.172  -0.937  0.00  0.00    +0.005 C 
ATOM     31  H   UNL     1       1.593  -3.916   0.326  0.00  0.00    -0.081 HD
ENDBRANCH  22  23
ENDBRANCH   5  22
TORSDOF 4
