REMARK  Name = ZINC35137369
REMARK  17 active torsions:
REMARK  status: ('A' for Active; 'I' for Inactive)
REMARK    1  A    between atoms: C_1  and  C_2
REMARK    2  A    between atoms: C_2  and  C_3
REMARK    3  A    between atoms: C_3  and  C_4
REMARK    4  A    between atoms: C_4  and  C_5
REMARK    5  A    between atoms: C_5  and  N_6
REMARK    6  A    between atoms: N_6  and  C_7
REMARK    7  A    between atoms: C_7  and  C_8
REMARK    8  A    between atoms: N_10  and  C_11
REMARK    9  A    between atoms: C_13  and  C_24
REMARK   10  A    between atoms: N_15  and  C_16
REMARK   11  A    between atoms: C_19  and  O_22
REMARK   12  A    between atoms: O_22  and  C_23
REMARK   13  A    between atoms: C_24  and  C_25
REMARK   14  A    between atoms: C_24  and  C_26
REMARK   15  A    between atoms: C_24  and  C_27
REMARK   16  A    between atoms: C_28  and  C_30
REMARK   17  A    between atoms: C_34  and  N_36
REMARK                            x       y       z     vdW  Elec       q    Type
REMARK                         _______ _______ _______ _____ _____    ______ ____
ROOT
ATOM      1  C   UNL     1      -0.346  -4.783  -3.700  0.00  0.00    +0.236 C 
ATOM      2  O   UNL     1       0.474  -4.515  -4.552  0.00  0.00    -0.274 OA
ATOM      3  N   UNL     1      -1.521  -5.345  -4.049  0.00  0.00    -0.269 N 
ATOM      4  H   UNL     1      -2.177  -5.560  -3.368  0.00  0.00    +0.156 HD
ENDROOT
BRANCH   3   5
ATOM      5  C   UNL     1      -1.793  -5.618  -5.389  0.00  0.00    +0.129 A 
ATOM      6  C   UNL     1      -0.967  -5.376  -6.444  0.00  0.00    +0.069 A 
ATOM      7  C   UNL     1      -1.620  -5.796  -7.606  0.00  0.00    +0.071 A 
ATOM      8  N   UNL     1      -2.793  -6.272  -7.273  0.00  0.00    -0.169 NA
ATOM      9  N   UNL     1      -2.930  -6.179  -5.882  0.00  0.00    -0.218 N 
BRANCH   9  10
ATOM     10  C   UNL     1      -4.042  -6.589  -5.131  0.00  0.00    +0.068 A 
ATOM     11  C   UNL     1      -3.865  -7.121  -3.861  0.00  0.00    +0.031 A 
ATOM     12  C   UNL     1      -4.959  -7.524  -3.123  0.00  0.00    +0.048 A 
ATOM     13  C   UNL     1      -6.237  -7.399  -3.650  0.00  0.00    +0.120 A 
ATOM     14  C   UNL     1      -6.414  -6.868  -4.920  0.00  0.00    +0.048 A 
ATOM     15  C   UNL     1      -5.321  -6.459  -5.656  0.00  0.00    +0.031 A 
BRANCH  13  16
ATOM     16  O   UNL     1      -7.314  -7.796  -2.923  0.00  0.00    -0.495 OA
ATOM     17  C   UNL     1      -8.599  -7.638  -3.528  0.00  0.00    +0.277 C 
ENDBRANCH  13  16
ENDBRANCH   9  10
BRANCH   7  18
ATOM     18  C   UNL     1      -1.068  -5.713  -9.005  0.00  0.00    +0.006 C 
ATOM     19  C   UNL     1      -0.011  -6.802  -9.201  0.00  0.00    +0.017 C 
ATOM     20  C   UNL     1      -2.201  -5.916 -10.014  0.00  0.00    +0.017 C 
ATOM     21  C   UNL     1      -0.432  -4.339  -9.223  0.00  0.00    +0.017 C 
ENDBRANCH   7  18
ENDBRANCH   3   5
BRANCH   1  22
ATOM     22  C   UNL     1      -0.053  -4.489  -2.252  0.00  0.00    +0.204 C 
BRANCH  22  23
ATOM     23  N   UNL     1       1.277  -3.885  -2.136  0.00  0.00    -0.289 N 
ATOM     24  C   UNL     1       2.339  -4.649  -1.815  0.00  0.00    +0.247 C 
ATOM     25  O   UNL     1       3.428  -4.136  -1.645  0.00  0.00    -0.270 OA
BRANCH  24  26
ATOM     26  C   UNL     1       2.180  -6.112  -1.670  0.00  0.00    +0.039 A 
ATOM     27  C   UNL     1       1.508  -6.845  -2.651  0.00  0.00    +0.013 A 
ATOM     28  C   UNL     1       1.364  -8.209  -2.509  0.00  0.00    +0.003 A 
ATOM     29  C   UNL     1       1.883  -8.852  -1.399  0.00  0.00    +0.033 A 
ATOM     30  C   UNL     1       2.549  -8.132  -0.424  0.00  0.00    +0.127 A 
ATOM     31  C   UNL     1       2.706  -6.767  -0.556  0.00  0.00    +0.045 A 
BRANCH  30  32
ATOM     32  N   UNL     1       3.100  -8.827   0.761  0.00  0.00    +0.056 N 
ATOM     33  O   UNL     1       2.968 -10.023   0.875  0.00  0.00    -0.126 OA
ATOM     34  O   UNL     1       3.683  -8.199   1.614  0.00  0.00    -0.126 OA
ENDBRANCH  30  32
ENDBRANCH  24  26
BRANCH  23  35
ATOM     35  C   UNL     1       1.452  -2.449  -2.370  0.00  0.00    +0.108 C 
BRANCH  35  36
ATOM     36  C   UNL     1       1.160  -1.683  -1.078  0.00  0.00    +0.019 C 
BRANCH  36  37
ATOM     37  C   UNL     1       1.343  -0.183  -1.321  0.00  0.00    +0.001 C 
BRANCH  37  39
ATOM     38  C   UNL     1       1.234   2.082  -0.273  0.00  0.00    +0.004 C 
ATOM     39  C   UNL     1       1.051   0.583  -0.029  0.00  0.00    -0.003 C 
ENDBRANCH  37  39
ENDBRANCH  36  37
ENDBRANCH  35  36
ENDBRANCH  23  35
ENDBRANCH  22  23
ENDBRANCH   1  22
TORSDOF 12
