REMARK  Name = ZINC22626081
REMARK  6 active torsions:
REMARK  status: ('A' for Active; 'I' for Inactive)
REMARK    1  A    between atoms: C_1  and  C_2
REMARK    2  A    between atoms: C_6  and  C_8
REMARK    3  A    between atoms: C_8  and  C_10
REMARK    4  A    between atoms: C_8  and  N_20
REMARK    5  A    between atoms: C_16  and  C_18
REMARK    6  A    between atoms: C_24  and  C_27
REMARK                            x       y       z     vdW  Elec       q    Type
REMARK                         _______ _______ _______ _____ _____    ______ ____
ROOT
ATOM      1  C   UNL     1       3.526   1.533  -1.198  0.00  0.00    +0.006 C 
ENDROOT
BRANCH   1   2
ATOM      2  C   UNL     1       3.639   3.029  -1.337  0.00  0.00    +0.050 A 
ATOM      3  C   UNL     1       4.472   3.874  -0.718  0.00  0.00    +0.282 A 
ATOM      4  N   UNL     1       4.425   5.222  -0.982  0.00  0.00    -0.170 N 
ATOM      5  C   UNL     1       3.496   5.649  -1.881  0.00  0.00    +0.199 A 
ATOM      6  S   UNL     1       2.690   4.141  -2.363  0.00  0.00    -0.050 S 
ATOM      7  N   UNL     1       3.579   6.945  -2.014  0.00  0.00    -0.205 NA
ATOM      8  C   UNL     1       4.545   7.408  -1.223  0.00  0.00    +0.150 A 
ATOM      9  N   UNL     1       5.088   6.410  -0.578  0.00  0.00    -0.147 NA
ATOM     10  C   UNL     1       4.947   8.854  -1.092  0.00  0.00    +0.090 C 
ATOM     11  O   UNL     1       5.377   3.394   0.177  0.00  0.00    -0.265 OA
ENDBRANCH   1   2
BRANCH   1  12
ATOM     12  N   UNL     1       2.110   1.155  -1.102  0.00  0.00    +0.388 N 
ATOM     13  C   UNL     1       1.453   1.854   0.011  0.00  0.00    -0.077 C 
ATOM     14  C   UNL     1      -0.046   1.550  -0.009  0.00  0.00    -0.018 C 
ATOM     15  C   UNL     1      -0.258   0.039   0.117  0.00  0.00    -0.001 C 
ATOM     16  C   UNL     1       0.476  -0.668  -1.026  0.00  0.00    -0.031 C 
ATOM     17  C   UNL     1       1.961  -0.300  -0.977  0.00  0.00    -0.074 C 
ATOM     18  C   UNL     1       0.320  -2.183  -0.874  0.00  0.00    +0.005 C 
ATOM     19  H   UNL     1       1.612   1.464  -2.033  0.00  0.00    -0.080 HD
ENDBRANCH   1  12
BRANCH   1  25
ATOM     20  C   UNL     1       7.280  -1.036  -3.285  0.00  0.00    +0.044 C 
ATOM     21  C   UNL     1       5.938  -0.360  -3.401  0.00  0.00    -0.050 A 
ATOM     22  C   UNL     1       5.272  -0.349  -4.612  0.00  0.00    +0.003 A 
ATOM     23  C   UNL     1       4.041   0.270  -4.719  0.00  0.00    +0.000 A 
ATOM     24  C   UNL     1       3.474   0.876  -3.613  0.00  0.00    +0.002 A 
ATOM     25  C   UNL     1       4.142   0.869  -2.403  0.00  0.00    -0.056 A 
ATOM     26  C   UNL     1       5.373   0.249  -2.296  0.00  0.00    +0.005 A 
ENDBRANCH   1  25
TORSDOF 3
