REMARK  Name = ZINC30881396
REMARK  11 active torsions:
REMARK  status: ('A' for Active; 'I' for Inactive)
REMARK    1  A    between atoms: C_1  and  C_2
REMARK    2  A    between atoms: C_4  and  C_21
REMARK    3  A    between atoms: C_6  and  C_18
REMARK    4  A    between atoms: C_9  and  C_11
REMARK    5  A    between atoms: C_11  and  C_12
REMARK    6  A    between atoms: N_14  and  C_15
REMARK    7  A    between atoms: C_15  and  C_16
REMARK    8  A    between atoms: C_18  and  C_19
REMARK    9  A    between atoms: C_18  and  C_20
REMARK   10  A    between atoms: C_21  and  N_22
REMARK   11  A    between atoms: N_25  and  C_26
REMARK                            x       y       z     vdW  Elec       q    Type
REMARK                         _______ _______ _______ _____ _____    ______ ____
ROOT
ATOM      1  C   UNL     1       5.765   2.016  -0.144  0.00  0.00    +0.039 C 
ATOM      2  C   UNL     1       4.289   1.742  -0.012  0.00  0.00    -0.073 C 
ATOM      3  C   UNL     1       3.805   1.581   1.178  0.00  0.00    -0.022 C 
ATOM      4  C   UNL     1       2.361   1.292   1.467  0.00  0.00    +0.032 C 
ATOM      5  C   UNL     1       1.501   1.635   0.248  0.00  0.00    +0.000 C 
ATOM      6  C   UNL     1       2.133   0.986  -0.990  0.00  0.00    +0.012 C 
ATOM      7  C   UNL     1       3.471   1.674  -1.268  0.00  0.00    +0.023 C 
ENDROOT
BRANCH   5   8
ATOM      8  C   UNL     1       0.085   1.092   0.448  0.00  0.00    -0.013 C 
ATOM      9  C   UNL     1       0.127  -0.437   0.492  0.00  0.00    +0.007 C 
ATOM     10  C   UNL     1      -0.804   1.544  -0.712  0.00  0.00    +0.007 C 
ENDBRANCH   5   8
BRANCH   7  11
ATOM     11  C   UNL     1       3.214   3.092  -1.784  0.00  0.00    +0.103 C 
BRANCH  11  12
ATOM     12  C   UNL     1       2.539   3.023  -3.129  0.00  0.00    +0.214 C 
ATOM     13  O   UNL     1       2.387   1.951  -3.677  0.00  0.00    -0.276 OA
ATOM     14  N   UNL     1       2.104   4.151  -3.724  0.00  0.00    -0.304 N 
ATOM     15  H   UNL     1       2.242   5.123  -3.227  0.00  0.00    +0.150 HD
BRANCH  14  16
ATOM     16  C   UNL     1       1.448   4.084  -5.032  0.00  0.00    +0.193 C 
BRANCH  16  17
ATOM     17  C   UNL     1       1.071   5.440  -5.462  0.00  0.00    -0.087 C 
ATOM     18  C   UNL     1       0.770   6.522  -5.805  0.00  0.00    +0.005 C 
ENDBRANCH  16  17
ENDBRANCH  14  16
ENDBRANCH  11  12
ENDBRANCH   7  11
BRANCH   4  19
ATOM     19  C   UNL     1       1.905   2.133   2.661  0.00  0.00    +0.113 C 
BRANCH  19  20
ATOM     20  N   UNL     1       2.659   1.736   3.853  0.00  0.00    -0.299 N 
ATOM     21  C   UNL     1       2.425   2.345   5.033  0.00  0.00    +0.300 C 
ATOM     22  O   UNL     1       1.588   3.224   5.107  0.00  0.00    -0.253 OA
ATOM     23  N   UNL     1       3.118   1.979   6.129  0.00  0.00    -0.297 N 
ATOM     24  H   UNL     1       3.416   0.940   3.786  0.00  0.00    +0.150 HD
ATOM     25  H   UNL     1       3.875   1.184   6.062  0.00  0.00    +0.151 HD
BRANCH  23  26
ATOM     26  C   UNL     1       2.863   2.641   7.411  0.00  0.00    +0.074 C 
ATOM     27  C   UNL     1       3.691   3.925   7.495  0.00  0.00    +0.022 C 
ATOM     28  C   UNL     1       3.425   4.617   8.834  0.00  0.00    +0.002 C 
ATOM     29  C   UNL     1       3.818   3.681   9.978  0.00  0.00    +0.000 C 
ATOM     30  C   UNL     1       2.990   2.397   9.894  0.00  0.00    +0.002 C 
ATOM     31  C   UNL     1       3.256   1.705   8.556  0.00  0.00    +0.022 C 
ENDBRANCH  23  26
ENDBRANCH  19  20
ENDBRANCH   4  19
TORSDOF 8
