REMARK  Name = ZINC40568096
REMARK  11 active torsions:
REMARK  status: ('A' for Active; 'I' for Inactive)
REMARK    1  A    between atoms: C_1  and  C_2
REMARK    2  A    between atoms: C_2  and  O_3
REMARK    3  A    between atoms: O_3  and  C_4
REMARK    4  A    between atoms: C_4  and  C_6
REMARK    5  A    between atoms: C_7  and  N_31
REMARK    6  A    between atoms: C_11  and  C_30
REMARK    7  A    between atoms: C_17  and  C_19
REMARK    8  A    between atoms: C_21  and  O_28
REMARK    9  A    between atoms: C_22  and  O_26
REMARK   10  A    between atoms: O_26  and  C_27
REMARK   11  A    between atoms: O_28  and  C_29
REMARK                            x       y       z     vdW  Elec       q    Type
REMARK                         _______ _______ _______ _____ _____    ______ ____
ROOT
ATOM      1  C   UNL     1      -2.788  -2.392  -0.013  0.00  0.00    +0.105 C 
ATOM      2  C   UNL     1      -2.934  -3.739  -0.087  0.00  0.00    +0.195 C 
ATOM      3  O   UNL     1      -4.143  -4.324  -0.055  0.00  0.00    -0.441 OA
ATOM      4  C   UNL     1      -5.207  -3.647   0.429  0.00  0.00    +0.141 A 
ATOM      5  C   UNL     1      -6.360  -4.349   0.836  0.00  0.00    +0.067 A 
ATOM      6  C   UNL     1      -7.422  -3.670   1.320  0.00  0.00    +0.019 A 
ATOM      7  N   UNL     1      -7.397  -2.315   1.422  0.00  0.00    -0.326 N 
ATOM      8  H   UNL     1      -8.171  -1.848   1.774  0.00  0.00    +0.169 HD
ATOM      9  C   UNL     1      -6.314  -1.611   1.043  0.00  0.00    +0.257 A 
ATOM     10  O   UNL     1      -6.312  -0.394   1.142  0.00  0.00    -0.267 OA
ATOM     11  C   UNL     1      -5.189  -2.273   0.534  0.00  0.00    +0.071 A 
ATOM     12  C   UNL     1      -3.980  -1.485   0.116  0.00  0.00    +0.100 C 
ATOM     13  C   UNL     1      -8.652  -4.425   1.754  0.00  0.00    +0.063 C 
ENDROOT
BRANCH  12  14
ATOM     14  C   UNL     1      -4.253  -0.826  -1.212  0.00  0.00    -0.030 A 
ATOM     15  C   UNL     1      -4.212   0.552  -1.320  0.00  0.00    +0.054 A 
ATOM     16  C   UNL     1      -4.463   1.159  -2.539  0.00  0.00    +0.163 A 
ATOM     17  C   UNL     1      -4.756   0.380  -3.654  0.00  0.00    +0.180 A 
ATOM     18  C   UNL     1      -4.795  -1.001  -3.540  0.00  0.00    +0.086 A 
ATOM     19  C   UNL     1      -4.538  -1.601  -2.320  0.00  0.00    +0.028 A 
ATOM     20 CL   UNL     1      -5.161  -1.977  -4.928  0.00  0.00    -0.080 Cl
BRANCH  17  21
ATOM     21  O   UNL     1      -5.003   0.972  -4.854  0.00  0.00    -0.490 OA
ATOM     22  C   UNL     1      -3.882   1.196  -5.710  0.00  0.00    +0.277 C 
ENDBRANCH  17  21
BRANCH  16  23
ATOM     23  O   UNL     1      -4.423   2.514  -2.647  0.00  0.00    -0.491 OA
ATOM     24  C   UNL     1      -4.117   3.250  -1.461  0.00  0.00    +0.277 C 
ENDBRANCH  16  23
ENDBRANCH  12  14
BRANCH   2  25
ATOM     25  N   UNL     1      -1.818  -4.524  -0.200  0.00  0.00    -0.329 N 
ATOM     26  H   UNL     1      -0.936  -4.126  -0.132  0.00  0.00    +0.145 HD
ATOM     27  H   UNL     1      -1.910  -5.478  -0.347  0.00  0.00    +0.145 HD
ENDBRANCH   2  25
BRANCH   1  28
ATOM     28  C   UNL     1      -1.500  -1.836  -0.051  0.00  0.00    +0.341 C 
ATOM     29  O   UNL     1      -0.967  -1.463   0.979  0.00  0.00    -0.245 OA
BRANCH  28  30
ATOM     30  O   UNL     1      -0.852  -1.714  -1.230  0.00  0.00    -0.462 OA
BRANCH  30  32
ATOM     31  C   UNL     1       1.027  -1.084  -2.613  0.00  0.00    +0.048 C 
ATOM     32  C   UNL     1       0.456  -1.139  -1.195  0.00  0.00    +0.229 C 
ENDBRANCH  30  32
ENDBRANCH  28  30
ENDBRANCH   1  28
TORSDOF 7
