REMARK  Name = ZINC13065108
REMARK  12 active torsions:
REMARK  status: ('A' for Active; 'I' for Inactive)
REMARK    1  A    between atoms: C_1  and  C_2
REMARK    2  A    between atoms: C_2  and  C_3
REMARK    3  A    between atoms: C_3  and  C_5
REMARK    4  A    between atoms: C_3  and  N_66
REMARK    5  A    between atoms: N_9  and  C_10
REMARK    6  A    between atoms: C_10  and  C_11
REMARK    7  A    between atoms: C_18  and  C_19
REMARK    8  A    between atoms: C_18  and  N_66
REMARK    9  A    between atoms: C_24  and  C_25
REMARK   10  A    between atoms: C_24  and  N_66
REMARK   11  A    between atoms: C_30  and  C_38
REMARK   12  A    between atoms: C_31  and  C_37
REMARK                            x       y       z     vdW  Elec       q    Type
REMARK                         _______ _______ _______ _____ _____    ______ ____
ROOT
ATOM      1  N   UNL     1      -1.933   0.898   1.346  0.00  0.00    +0.394 N 
ATOM      2  H   UNL     1      -1.776  -0.115   1.394  0.00  0.00    -0.080 HD
ENDROOT
BRANCH   1   3
ATOM      3  C   UNL     1      -0.631   1.579   1.190  0.00  0.00    +0.003 C 
BRANCH   3   4
ATOM      4  C   UNL     1       0.210   1.316   2.412  0.00  0.00    +0.138 A 
ATOM      5  N   UNL     1       0.358   0.168   3.028  0.00  0.00    -0.115 NA
ATOM      6  N   UNL     1       1.155   0.350   4.024  0.00  0.00    -0.023 NA
ATOM      7  N   UNL     1       1.513   1.586   4.064  0.00  0.00    -0.044 NA
ATOM      8  N   UNL     1       0.952   2.214   3.087  0.00  0.00    -0.226 N 
BRANCH   8   9
ATOM      9  C   UNL     1       1.094   3.637   2.771  0.00  0.00    +0.182 C 
BRANCH   9  10
ATOM     10  C   UNL     1       0.029   4.421   3.494  0.00  0.00    -0.026 A 
ATOM     11  C   UNL     1      -1.192   4.651   2.886  0.00  0.00    +0.008 A 
ATOM     12  C   UNL     1      -2.171   5.365   3.549  0.00  0.00    +0.038 A 
ATOM     13  C   UNL     1      -1.926   5.860   4.819  0.00  0.00    +0.123 A 
ATOM     14  C   UNL     1      -0.702   5.634   5.425  0.00  0.00    +0.038 A 
ATOM     15  C   UNL     1       0.274   4.915   4.761  0.00  0.00    +0.008 A 
ATOM     16  F   UNL     1      -2.881   6.563   5.466  0.00  0.00    -0.205 F 
ENDBRANCH   9  10
ENDBRANCH   8   9
ENDBRANCH   3   4
BRANCH   3  18
ATOM     17  C   UNL     1       1.398   1.760  -0.257  0.00  0.00    +0.002 C 
ATOM     18  C   UNL     1       0.076   1.020  -0.046  0.00  0.00    -0.011 C 
ENDBRANCH   3  18
ENDBRANCH   1   3
BRANCH   1  19
ATOM     19  C   UNL     1      -2.588   1.341   2.595  0.00  0.00    -0.002 C 
BRANCH  19  20
ATOM     20  C   UNL     1      -3.752   0.427   2.882  0.00  0.00    +0.089 A 
ATOM     21  C   UNL     1      -3.722  -0.657   3.678  0.00  0.00    +0.042 A 
ATOM     22  C   UNL     1      -5.022  -1.213   3.661  0.00  0.00    +0.041 A 
ATOM     23  C   UNL     1      -5.769  -0.434   2.857  0.00  0.00    +0.195 A 
ATOM     24  O   UNL     1      -4.995   0.561   2.393  0.00  0.00    -0.470 OA
ENDBRANCH  19  20
ENDBRANCH   1  19
BRANCH   1  25
ATOM     25  C   UNL     1      -2.801   1.196   0.187  0.00  0.00    -0.036 C 
BRANCH  25  26
ATOM     26  C   UNL     1      -2.901   2.683  -0.030  0.00  0.00    +0.001 A 
ATOM     27  C   UNL     1      -2.061   3.297  -0.900  0.00  0.00    +0.017 A 
ATOM     28  C   UNL     1      -2.186   4.743  -1.091  0.00  0.00    -0.001 A 
ATOM     29  C   UNL     1      -1.352   5.430  -1.979  0.00  0.00    +0.010 A 
ATOM     30  C   UNL     1      -1.491   6.780  -2.132  0.00  0.00    +0.004 A 
ATOM     31  C   UNL     1      -2.454   7.477  -1.413  0.00  0.00    -0.046 A 
ATOM     32  C   UNL     1      -3.287   6.820  -0.534  0.00  0.00    -0.024 A 
ATOM     33  C   UNL     1      -3.163   5.446  -0.362  0.00  0.00    +0.052 A 
ATOM     34  N   UNL     1      -3.984   4.763   0.511  0.00  0.00    -0.322 N 
ATOM     35  H   UNL     1      -4.657   5.249   1.013  0.00  0.00    +0.169 HD
ATOM     36  C   UNL     1      -3.864   3.434   0.677  0.00  0.00    +0.251 A 
ATOM     37  O   UNL     1      -4.606   2.864   1.457  0.00  0.00    -0.268 OA
ATOM     38  C   UNL     1      -4.328   7.589   0.238  0.00  0.00    +0.046 C 
ATOM     39  C   UNL     1      -2.589   8.966  -1.598  0.00  0.00    +0.044 C 
ENDBRANCH  25  26
ENDBRANCH   1  25
TORSDOF 9
