REMARK  Name = ZINC35474903
REMARK  9 active torsions:
REMARK  status: ('A' for Active; 'I' for Inactive)
REMARK    1  A    between atoms: C_1  and  C_2
REMARK    2  A    between atoms: C_4  and  C_32
REMARK    3  A    between atoms: C_5  and  C_9
REMARK    4  A    between atoms: C_7  and  C_8
REMARK    5  A    between atoms: N_14  and  C_17
REMARK    6  A    between atoms: C_17  and  C_18
REMARK    7  A    between atoms: C_18  and  N_19
REMARK    8  A    between atoms: N_25  and  C_29
REMARK    9  A    between atoms: C_29  and  C_30
REMARK                            x       y       z     vdW  Elec       q    Type
REMARK                         _______ _______ _______ _____ _____    ______ ____
ROOT
ATOM      1  C   UNL     1       0.207  -4.235  -0.451  0.00  0.00    +0.142 C 
ATOM      2  C   UNL     1       1.656  -4.569  -0.744  0.00  0.00    +0.058 C 
ATOM      3  C   UNL     1       2.269  -5.460   0.061  0.00  0.00    +0.043 C 
ATOM      4  C   UNL     1       3.683  -5.599  -0.458  0.00  0.00    +0.159 C 
ATOM      5  N   UNL     1       3.752  -4.694  -1.615  0.00  0.00    -0.294 N 
ATOM      6  C   UNL     1       2.544  -4.116  -1.742  0.00  0.00    +0.247 C 
ATOM      7  O   UNL     1       2.255  -3.308  -2.605  0.00  0.00    -0.270 OA
ATOM      8  N   UNL     1       1.610  -6.041   1.106  0.00  0.00    -0.253 N 
ATOM      9  C   UNL     1       0.331  -5.783   1.411  0.00  0.00    +0.307 C 
ATOM     10  O   UNL     1      -0.173  -6.349   2.361  0.00  0.00    -0.252 OA
ATOM     11  N   UNL     1      -0.414  -4.915   0.698  0.00  0.00    -0.288 N 
ATOM     12  H   UNL     1      -1.338  -4.743   0.937  0.00  0.00    +0.151 HD
ENDROOT
BRANCH   1  17
ATOM     13  C   UNL     1      -0.164   1.462   0.443  0.00  0.00    +0.044 C 
ATOM     14  C   UNL     1      -0.067  -0.024   0.209  0.00  0.00    -0.047 A 
ATOM     15  C   UNL     1      -1.173  -0.728  -0.230  0.00  0.00    +0.007 A 
ATOM     16  C   UNL     1      -1.084  -2.090  -0.444  0.00  0.00    -0.045 A 
ATOM     17  C   UNL     1       0.111  -2.749  -0.219  0.00  0.00    -0.019 A 
ATOM     18  C   UNL     1       1.216  -2.045   0.220  0.00  0.00    +0.009 A 
ATOM     19  C   UNL     1       1.129  -0.681   0.429  0.00  0.00    -0.047 A 
ATOM     20  C   UNL     1       2.336   0.087   0.902  0.00  0.00    +0.044 C 
ATOM     21  C   UNL     1      -2.289  -2.858  -0.921  0.00  0.00    +0.044 C 
ENDBRANCH   1  17
BRANCH   5  22
ATOM     22  C   UNL     1       4.919  -4.465  -2.471  0.00  0.00    +0.090 C 
BRANCH  22  23
ATOM     23  C   UNL     1       4.902  -5.460  -3.633  0.00  0.00    -0.060 C 
BRANCH  23  24
ATOM     24  N   UNL     1       6.072  -5.230  -4.491  0.00  0.00    +0.381 N 
ATOM     25  C   UNL     1       5.973  -3.901  -5.105  0.00  0.00    -0.079 C 
ATOM     26  C   UNL     1       7.228  -3.624  -5.936  0.00  0.00    -0.019 C 
ATOM     27  C   UNL     1       7.353  -4.686  -7.032  0.00  0.00    -0.004 C 
ATOM     28  C   UNL     1       7.380  -6.073  -6.384  0.00  0.00    -0.019 C 
ATOM     29  C   UNL     1       6.119  -6.259  -5.537  0.00  0.00    -0.079 C 
ATOM     30  H   UNL     1       6.911  -5.280  -3.934  0.00  0.00    -0.082 HD
ENDBRANCH  23  24
ENDBRANCH  22  23
ENDBRANCH   5  22
BRANCH   8  31
ATOM     31  C   UNL     1       2.340  -6.999   1.939  0.00  0.00    +0.141 C 
BRANCH  31  32
ATOM     32  C   UNL     1       3.008  -6.270   3.077  0.00  0.00    -0.015 C 
ATOM     33  C   UNL     1       2.782  -6.639   4.313  0.00  0.00    +0.005 C 
ENDBRANCH  31  32
ENDBRANCH   8  31
TORSDOF 6
