REMARK  Name = ZINC11730265
REMARK  0 active torsions:
REMARK  status: ('A' for Active; 'I' for Inactive)
REMARK                            x       y       z     vdW  Elec       q    Type
REMARK                         _______ _______ _______ _____ _____    ______ ____
ROOT
ATOM      1  C   UNL     1       5.979  -2.281   0.686  0.00  0.00    +0.001 A 
ATOM      2  C   UNL     1       5.024  -1.266   0.694  0.00  0.00    +0.001 A 
ATOM      3  C   UNL     1       3.710  -1.539   0.464  0.00  0.00    +0.009 A 
ATOM      4  C   UNL     1       3.306  -2.858   0.213  0.00  0.00    -0.005 A 
ATOM      5  C   UNL     1       4.278  -3.893   0.207  0.00  0.00    -0.017 A 
ATOM      6  C   UNL     1       5.624  -3.574   0.449  0.00  0.00    +0.008 A 
ATOM      7  C   UNL     1       3.873  -5.215  -0.043  0.00  0.00    +0.012 A 
ATOM      8  C   UNL     1       2.567  -5.504  -0.292  0.00  0.00    +0.047 A 
ATOM      9  C   UNL     1       1.591  -4.503  -0.303  0.00  0.00    +0.132 A 
ATOM     10  C   UNL     1       1.962  -3.188  -0.035  0.00  0.00    +0.051 A 
ATOM     11  C   UNL     1       0.888  -2.150  -0.017  0.00  0.00    +0.091 A 
ATOM     12  C   UNL     1      -0.408  -2.634  -0.007  0.00  0.00    +0.062 A 
ATOM     13  S   UNL     1      -1.371  -1.154   0.016  0.00  0.00    -0.053 S 
ATOM     14  C   UNL     1       0.002  -0.004   0.002  0.00  0.00    +0.156 A 
ATOM     15  N   UNL     1       1.038  -0.825  -0.012  0.00  0.00    -0.225 NA
ATOM     16  N   UNL     1      -0.017   1.381   0.010  0.00  0.00    -0.337 N 
ATOM     17  C   UNL     1      -0.761  -4.071  -0.011  0.00  0.00    +0.144 C 
ATOM     18  O   UNL     1       0.301  -4.835  -0.578  0.00  0.00    -0.480 OA
ATOM     19  C   UNL     1      -2.070  -4.327  -0.784  0.00  0.00    +0.053 C 
ATOM     20  C   UNL     1      -2.590  -5.665  -0.214  0.00  0.00    +0.004 C 
ATOM     21  C   UNL     1      -1.960  -5.823   1.181  0.00  0.00    +0.004 C 
ATOM     22  C   UNL     1      -1.078  -4.577   1.412  0.00  0.00    +0.053 C 
ATOM     23  H   UNL     1       0.817   1.877   0.004  0.00  0.00    +0.144 HD
ATOM     24  H   UNL     1      -0.863   1.855   0.016  0.00  0.00    +0.144 HD
ENDROOT
TORSDOF 0
