REMARK  Name = ZINC13549418
REMARK  8 active torsions:
REMARK  status: ('A' for Active; 'I' for Inactive)
REMARK    1  A    between atoms: C_1  and  C_2
REMARK    2  A    between atoms: C_2  and  C_3
REMARK    3  A    between atoms: C_3  and  C_4
REMARK    4  A    between atoms: C_10  and  C_11
REMARK    5  A    between atoms: C_10  and  N_12
REMARK    6  A    between atoms: N_12  and  C_13
REMARK    7  A    between atoms: C_13  and  C_14
REMARK    8  A    between atoms: C_14  and  C_15
REMARK                            x       y       z     vdW  Elec       q    Type
REMARK                         _______ _______ _______ _____ _____    ______ ____
ROOT
ATOM      1  C   UNL     1       0.762  -2.018   1.233  0.00  0.00    +0.074 C 
ATOM      2  N   UNL     1       0.246  -2.787   0.325  0.00  0.00    -0.174 NA
ATOM      3  N   UNL     1       0.445  -4.133   0.626  0.00  0.00    -0.132 N 
ATOM      4  C   UNL     1       1.123  -4.253   1.786  0.00  0.00    +0.275 C 
ATOM      5  O   UNL     1       1.461  -5.289   2.334  0.00  0.00    -0.268 OA
ATOM      6  C   UNL     1       1.377  -2.884   2.250  0.00  0.00    +0.078 C 
ATOM      7  C   UNL     1       2.047  -2.494   3.397  0.00  0.00    +0.015 C 
ATOM      8  C   UNL     1       2.615  -3.533   4.329  0.00  0.00    +0.061 C 
ATOM      9  C   UNL     1       0.008  -5.196  -0.152  0.00  0.00    +0.189 A 
ATOM     10  N   UNL     1       0.146  -6.484   0.060  0.00  0.00    -0.223 NA
ATOM     11  C   UNL     1      -0.334  -7.415  -0.792  0.00  0.00    +0.080 A 
ATOM     12  C   UNL     1      -0.253  -8.823  -0.682  0.00  0.00    +0.029 A 
ATOM     13  C   UNL     1      -0.797  -9.633  -1.644  0.00  0.00    +0.002 A 
ATOM     14  C   UNL     1      -1.444  -9.107  -2.753  0.00  0.00    +0.001 A 
ATOM     15  C   UNL     1      -1.543  -7.735  -2.892  0.00  0.00    +0.017 A 
ATOM     16  C   UNL     1      -1.000  -6.916  -1.934  0.00  0.00    +0.041 A 
ATOM     17  S   UNL     1      -0.893  -5.158  -1.696  0.00  0.00    -0.050 S 
ENDROOT
BRANCH   7  18
ATOM     18  N   UNL     1       2.192  -1.183   3.681  0.00  0.00    -0.346 N 
ATOM     19  H   UNL     1       1.827  -0.514   3.081  0.00  0.00    +0.146 HD
BRANCH  18  20
ATOM     20  C   UNL     1       2.901  -0.770   4.894  0.00  0.00    +0.107 C 
BRANCH  20  21
ATOM     21  C   UNL     1       2.923   0.757   4.977  0.00  0.00    +0.073 C 
BRANCH  21  22
ATOM     22  C   UNL     1       3.652   1.183   6.226  0.00  0.00    +0.035 A 
ATOM     23  C   UNL     1       3.116   1.293   7.456  0.00  0.00    +0.105 A 
ATOM     24  N   UNL     1       4.121   1.703   8.290  0.00  0.00    -0.352 N 
ATOM     25  H   UNL     1       4.046   1.872   9.242  0.00  0.00    +0.166 HD
ATOM     26  C   UNL     1       5.237   1.829   7.540  0.00  0.00    +0.171 A 
ATOM     27  N   UNL     1       4.950   1.512   6.307  0.00  0.00    -0.350 N 
ATOM     28  H   UNL     1       5.576   1.514   5.566  0.00  0.00    +0.166 HD
ENDBRANCH  21  22
ENDBRANCH  20  21
ENDBRANCH  18  20
ENDBRANCH   7  18
BRANCH   1  29
ATOM     29  C   UNL     1       0.742  -0.511   1.242  0.00  0.00    +0.057 C 
BRANCH  29  31
ATOM     30  C   UNL     1      -0.019   1.526   0.010  0.00  0.00    +0.004 C 
ATOM     31  C   UNL     1       0.002  -0.004   0.002  0.00  0.00    +0.003 C 
ENDBRANCH  29  31
ENDBRANCH   1  29
TORSDOF 6
