REMARK  Name = ZINC35554235
REMARK  7 active torsions:
REMARK  status: ('A' for Active; 'I' for Inactive)
REMARK    1  A    between atoms: C_1  and  C_2
REMARK    2  A    between atoms: C_2  and  C_3
REMARK    3  A    between atoms: C_3  and  N_4
REMARK    4  A    between atoms: C_12  and  C_13
REMARK    5  A    between atoms: C_16  and  C_18
REMARK    6  A    between atoms: N_20  and  N_21
REMARK    7  A    between atoms: C_22  and  C_24
REMARK                            x       y       z     vdW  Elec       q    Type
REMARK                         _______ _______ _______ _____ _____    ______ ____
ROOT
ATOM      1  C   UNL     1      -1.385  -2.363   2.502  0.00  0.00    +0.055 A 
ATOM      2  C   UNL     1      -1.637  -3.089   3.657  0.00  0.00    +0.020 A 
ATOM      3  C   UNL     1      -1.573  -2.450   4.862  0.00  0.00    +0.021 A 
ATOM      4  C   UNL     1      -1.258  -1.098   4.884  0.00  0.00    +0.076 A 
ATOM      5  S   UNL     1      -1.041  -0.735   3.150  0.00  0.00    -0.081 S 
ENDROOT
BRANCH   1  14
ATOM      6  N   UNL     1      -1.413  -1.998   0.005  0.00  0.00    -0.323 N 
ATOM      7  C   UNL     1      -1.407  -2.813  -1.110  0.00  0.00    +0.069 A 
ATOM      8  C   UNL     1      -1.418  -2.574  -2.478  0.00  0.00    +0.028 A 
ATOM      9  C   UNL     1      -1.407  -3.636  -3.357  0.00  0.00    +0.002 A 
ATOM     10  C   UNL     1      -1.387  -4.941  -2.885  0.00  0.00    +0.002 A 
ATOM     11  C   UNL     1      -1.376  -5.197  -1.543  0.00  0.00    +0.030 A 
ATOM     12  C   UNL     1      -1.386  -4.136  -0.631  0.00  0.00    +0.090 A 
ATOM     13  N   UNL     1      -1.381  -4.074   0.717  0.00  0.00    -0.227 NA
ATOM     14  C   UNL     1      -1.391  -2.819   1.103  0.00  0.00    +0.149 A 
BRANCH   6  15
ATOM     15  C   UNL     1      -1.433  -0.534   0.013  0.00  0.00    +0.123 C 
BRANCH  15  17
ATOM     16  C   UNL     1      -0.019   1.526   0.010  0.00  0.00    +0.005 C 
ATOM     17  C   UNL     1       0.002  -0.004   0.002  0.00  0.00    +0.018 C 
ENDBRANCH  15  17
ENDBRANCH   6  15
ENDBRANCH   1  14
BRANCH   4  18
ATOM     18  C   UNL     1      -1.130  -0.200   6.037  0.00  0.00    +0.267 C 
ATOM     19  O   UNL     1      -1.310  -0.626   7.163  0.00  0.00    -0.268 OA
ATOM     20  N   UNL     1      -0.813   1.096   5.849  0.00  0.00    -0.230 N 
ATOM     21  H   UNL     1      -0.669   1.435   4.952  0.00  0.00    +0.173 HD
BRANCH  20  22
ATOM     22  N   UNL     1      -0.691   1.954   6.951  0.00  0.00    -0.230 N 
ATOM     23  C   UNL     1      -0.374   3.250   6.763  0.00  0.00    +0.263 C 
ATOM     24  O   UNL     1      -0.194   3.675   5.638  0.00  0.00    -0.269 OA
ATOM     25  H   UNL     1      -0.834   1.615   7.848  0.00  0.00    +0.173 HD
BRANCH  23  26
ATOM     26  C   UNL     1      -0.245   4.154   7.924  0.00  0.00    +0.073 A 
ATOM     27  C   UNL     1      -0.445   3.668   9.217  0.00  0.00    +0.016 A 
ATOM     28  C   UNL     1      -0.323   4.518  10.297  0.00  0.00    +0.001 A 
ATOM     29  C   UNL     1      -0.003   5.851  10.102  0.00  0.00    +0.003 A 
ATOM     30  C   UNL     1       0.197   6.341   8.825  0.00  0.00    +0.039 A 
ATOM     31  C   UNL     1       0.084   5.500   7.733  0.00  0.00    +0.136 A 
ATOM     32  F   UNL     1       0.285   5.978   6.486  0.00  0.00    -0.205 F 
ENDBRANCH  23  26
ENDBRANCH  20  22
ENDBRANCH   4  18
TORSDOF 6
