REMARK  Name = ZINC01897708
REMARK  7 active torsions:
REMARK  status: ('A' for Active; 'I' for Inactive)
REMARK    1  A    between atoms: C_1  and  O_2
REMARK    2  A    between atoms: O_2  and  C_3
REMARK    3  A    between atoms: C_3  and  C_5
REMARK    4  A    between atoms: C_6  and  N_35
REMARK    5  A    between atoms: C_11  and  C_12
REMARK    6  A    between atoms: C_22  and  C_33
REMARK    7  A    between atoms: C_23  and  C_25
REMARK                            x       y       z     vdW  Elec       q    Type
REMARK                         _______ _______ _______ _____ _____    ______ ____
ROOT
ATOM      1  C   UNL     1      -1.206  -1.852  -0.929  0.00  0.00    +0.087 C 
ATOM      2  C   UNL     1      -2.388  -2.508  -0.849  0.00  0.00    +0.115 C 
ATOM      3  N   UNL     1      -2.499  -3.898  -0.766  0.00  0.00    -0.257 N 
ATOM      4  C   UNL     1      -3.681  -4.542  -0.687  0.00  0.00    +0.271 A 
ATOM      5  O   UNL     1      -4.728  -3.922  -0.684  0.00  0.00    -0.266 OA
ATOM      6  C   UNL     1      -3.675  -6.007  -0.606  0.00  0.00    +0.080 A 
ATOM      7  C   UNL     1      -4.719  -6.870  -0.519  0.00  0.00    +0.030 C 
ATOM      8  S   UNL     1      -1.923  -6.349  -0.650  0.00  0.00    -0.065 S 
ATOM      9  C   UNL     1      -1.350  -4.666  -0.766  0.00  0.00    +0.104 A 
ATOM     10  C   UNL     1      -0.092  -4.163  -0.839  0.00  0.00    +0.072 C 
ATOM     11  C   UNL     1       0.077  -2.659  -0.937  0.00  0.00    +0.104 C 
ENDROOT
BRANCH   7  12
ATOM     12  C   UNL     1      -4.488  -8.316  -0.624  0.00  0.00    -0.005 A 
ATOM     13  C   UNL     1      -3.361  -8.802  -1.299  0.00  0.00    +0.011 A 
ATOM     14  C   UNL     1      -3.151 -10.160  -1.392  0.00  0.00    +0.020 A 
ATOM     15  C   UNL     1      -4.051 -11.046  -0.821  0.00  0.00    +0.042 A 
ATOM     16  C   UNL     1      -5.168 -10.575  -0.152  0.00  0.00    +0.040 A 
ATOM     17  C   UNL     1      -5.390  -9.217  -0.044  0.00  0.00    +0.050 A 
ATOM     18 CL   UNL     1      -6.787  -8.628   0.801  0.00  0.00    -0.083 Cl
ATOM     19 CL   UNL     1      -3.776 -12.756  -0.945  0.00  0.00    -0.083 Cl
ENDBRANCH   7  12
BRANCH  11  20
ATOM     20  C   UNL     1       0.925  -2.209   0.224  0.00  0.00    -0.016 A 
ATOM     21  C   UNL     1       0.447  -2.328   1.516  0.00  0.00    +0.007 A 
ATOM     22  C   UNL     1       1.225  -1.915   2.581  0.00  0.00    +0.020 A 
ATOM     23  C   UNL     1       2.482  -1.382   2.355  0.00  0.00    +0.042 A 
ATOM     24  C   UNL     1       2.960  -1.264   1.063  0.00  0.00    +0.040 A 
ATOM     25  C   UNL     1       2.184  -1.682  -0.003  0.00  0.00    +0.046 A 
ATOM     26 CL   UNL     1       2.786  -1.538  -1.625  0.00  0.00    -0.083 Cl
ATOM     27 CL   UNL     1       3.458  -0.863   3.694  0.00  0.00    -0.083 Cl
ENDBRANCH  11  20
BRANCH   2  28
ATOM     28  N   UNL     1      -3.540  -1.766  -0.848  0.00  0.00    -0.344 N 
ATOM     29  H   UNL     1      -3.646  -1.033  -1.474  0.00  0.00    +0.144 HD
ATOM     30  H   UNL     1      -4.250  -1.974  -0.220  0.00  0.00    +0.144 HD
ENDBRANCH   2  28
BRANCH   1  31
ATOM     31  C   UNL     1      -1.169  -0.452  -1.009  0.00  0.00    +0.339 C 
ATOM     32  O   UNL     1      -2.197   0.192  -0.898  0.00  0.00    -0.245 OA
BRANCH  31  34
ATOM     33  C   UNL     1      -0.030   1.609  -1.280  0.00  0.00    +0.280 C 
ATOM     34  O   UNL     1       0.006   0.183  -1.209  0.00  0.00    -0.465 OA
ENDBRANCH  31  34
ENDBRANCH   1  31
BRANCH  10  35
ATOM     35  C   UNL     1       1.047  -5.030  -0.833  0.00  0.00    +0.098 C 
ATOM     36  N   UNL     1       1.951  -5.718  -0.827  0.00  0.00    -0.191 NA
ENDBRANCH  10  35
TORSDOF 6
