REMARK  Name = ZINC09724178
REMARK  16 active torsions:
REMARK  status: ('A' for Active; 'I' for Inactive)
REMARK    1  A    between atoms: C_1  and  C_2
REMARK    2  A    between atoms: C_5  and  S_8
REMARK    3  A    between atoms: S_8  and  N_11
REMARK    4  A    between atoms: N_11  and  C_12
REMARK    5  A    between atoms: C_12  and  C_14
REMARK    6  A    between atoms: C_12  and  C_18
REMARK    7  A    between atoms: C_14  and  C_16
REMARK    8  A    between atoms: C_14  and  O_17
REMARK    9  A    between atoms: C_18  and  O_20
REMARK   10  A    between atoms: O_20  and  C_21
REMARK   11  A    between atoms: C_21  and  C_22
REMARK   12  A    between atoms: C_22  and  C_24
REMARK   13  A    between atoms: C_26  and  C_35
REMARK   14  A    between atoms: N_27  and  C_30
REMARK   15  A    between atoms: C_28  and  C_29
REMARK   16  A    between atoms: C_30  and  C_31
REMARK                            x       y       z     vdW  Elec       q    Type
REMARK                         _______ _______ _______ _____ _____    ______ ____
ROOT
ATOM      1  C   UNL     1       4.187   0.768   8.357  0.00  0.00    +0.329 C 
ATOM      2  O   UNL     1       3.576  -0.208   8.720  0.00  0.00    -0.249 OA
ENDROOT
BRANCH   1   3
ATOM      3  C   UNL     1       5.348   1.278   9.172  0.00  0.00    +0.213 C 
BRANCH   3   4
ATOM      4  N   UNL     1       5.531   0.423  10.348  0.00  0.00    -0.174 NA
ATOM      5  H   UNL     1       5.362  -0.530  10.285  0.00  0.00    +0.149 HD
BRANCH   4   6
ATOM      6  S   UNL     1       6.025   1.084  11.783  0.00  0.00    +0.059 S 
ATOM      7  O   UNL     1       6.047   0.026  12.732  0.00  0.00    -0.153 OA
ATOM      8  O   UNL     1       7.172   1.871  11.494  0.00  0.00    -0.153 OA
BRANCH   6  13
ATOM      9  C   UNL     1       1.713   4.909  13.566  0.00  0.00    +0.044 C 
ATOM     10  C   UNL     1       2.790   3.954  13.121  0.00  0.00    -0.050 A 
ATOM     11  C   UNL     1       2.743   2.628  13.511  0.00  0.00    +0.005 A 
ATOM     12  C   UNL     1       3.731   1.752  13.103  0.00  0.00    +0.029 A 
ATOM     13  C   UNL     1       4.766   2.201  12.304  0.00  0.00    +0.105 A 
ATOM     14  C   UNL     1       4.816   3.527  11.918  0.00  0.00    +0.029 A 
ATOM     15  C   UNL     1       3.825   4.403  12.322  0.00  0.00    +0.005 A 
ENDBRANCH   6  13
ENDBRANCH   4   6
ENDBRANCH   3   4
BRANCH   3  16
ATOM     16  C   UNL     1       6.619   1.254   8.321  0.00  0.00    +0.141 C 
ATOM     17  C   UNL     1       6.474   2.239   7.160  0.00  0.00    +0.040 C 
BRANCH  16  18
ATOM     18  O   UNL     1       6.822  -0.064   7.806  0.00  0.00    -0.390 OA
ATOM     19  H   UNL     1       6.100  -0.384   7.249  0.00  0.00    +0.210 HD
ENDBRANCH  16  18
ENDBRANCH   3  16
ENDBRANCH   1   3
BRANCH   1  20
ATOM     20  O   UNL     1       3.833   1.400   7.226  0.00  0.00    -0.455 OA
BRANCH  20  21
ATOM     21  C   UNL     1       2.706   0.854   6.492  0.00  0.00    +0.311 C 
BRANCH  21  22
ATOM     22  C   UNL     1       2.457   1.687   5.261  0.00  0.00    +0.202 C 
ATOM     23  O   UNL     1       3.161   2.647   5.026  0.00  0.00    -0.288 OA
BRANCH  22  24
ATOM     24  C   UNL     1       1.366   1.338   4.348  0.00  0.00    +0.042 A 
ATOM     25  C   UNL     1       0.426   0.217   4.481  0.00  0.00    +0.034 A 
ATOM     26  C   UNL     1      -0.401   0.290   3.424  0.00  0.00    +0.017 A 
ATOM     27  N   UNL     1      -0.043   1.355   2.648  0.00  0.00    -0.339 N 
ATOM     28  C   UNL     1       1.010   1.996   3.186  0.00  0.00    +0.027 A 
ATOM     29  C   UNL     1       1.683   3.219   2.620  0.00  0.00    +0.064 C 
ATOM     30  C   UNL     1      -1.539  -0.655   3.139  0.00  0.00    +0.063 C 
BRANCH  27  31
ATOM     31  C   UNL     1      -0.715   1.747   1.407  0.00  0.00    +0.234 C 
BRANCH  31  32
ATOM     32  C   UNL     1      -0.051   1.041   0.222  0.00  0.00    +0.407 C 
ATOM     33  F   UNL     1      -0.151  -0.344   0.389  0.00  0.00    -0.169 F 
ATOM     34  F   UNL     1       1.298   1.407   0.158  0.00  0.00    -0.169 F 
ATOM     35  F   UNL     1      -0.692   1.416  -0.963  0.00  0.00    -0.169 F 
ENDBRANCH  31  32
ENDBRANCH  27  31
ENDBRANCH  22  24
ENDBRANCH  21  22
ENDBRANCH  20  21
ENDBRANCH   1  20
TORSDOF 12
