REMARK  Name = ZINC39889986
REMARK  7 active torsions:
REMARK  status: ('A' for Active; 'I' for Inactive)
REMARK    1  A    between atoms: C_1  and  C_2
REMARK    2  A    between atoms: C_6  and  C_8
REMARK    3  A    between atoms: C_8  and  N_9
REMARK    4  A    between atoms: N_32  and  C_33
REMARK    5  A    between atoms: C_33  and  C_34
REMARK    6  A    between atoms: C_34  and  C_35
REMARK    7  A    between atoms: C_35  and  O_36
REMARK                            x       y       z     vdW  Elec       q    Type
REMARK                         _______ _______ _______ _____ _____    ______ ____
ROOT
ATOM      1  N   UNL     1       1.440  -3.073   2.903  0.00  0.00    -0.264 N 
ATOM      2  C   UNL     1       2.184  -4.181   2.538  0.00  0.00    +0.043 A 
ATOM      3  C   UNL     1       1.821  -5.270   1.744  0.00  0.00    +0.024 A 
ATOM      4  C   UNL     1       2.776  -6.254   1.540  0.00  0.00    +0.002 A 
ATOM      5  C   UNL     1       4.037  -6.173   2.095  0.00  0.00    +0.000 A 
ATOM      6  C   UNL     1       4.412  -5.093   2.887  0.00  0.00    +0.008 A 
ATOM      7  C   UNL     1       3.468  -4.110   3.092  0.00  0.00    +0.011 A 
ATOM      8  C   UNL     1       3.517  -2.833   3.867  0.00  0.00    +0.174 C 
ATOM      9  C   UNL     1       2.145  -2.224   3.681  0.00  0.00    +0.253 C 
ATOM     10  O   UNL     1       1.752  -1.175   4.144  0.00  0.00    -0.272 OA
ATOM     11  C   UNL     1       3.835  -3.046   5.306  0.00  0.00    +0.084 A 
ATOM     12  C   UNL     1       3.171  -3.845   6.341  0.00  0.00    +0.199 A 
ATOM     13  O   UNL     1       2.278  -4.638   6.101  0.00  0.00    -0.287 OA
ATOM     14  C   UNL     1       3.690  -3.596   7.710  0.00  0.00    +0.066 A 
ATOM     15  C   UNL     1       3.035  -4.128   8.821  0.00  0.00    +0.035 A 
ATOM     16  C   UNL     1       3.527  -3.882  10.084  0.00  0.00    +0.042 A 
ATOM     17  C   UNL     1       4.668  -3.106  10.247  0.00  0.00    +0.023 A 
ATOM     18  C   UNL     1       5.322  -2.577   9.158  0.00  0.00    +0.048 A 
ATOM     19  C   UNL     1       4.847  -2.816   7.869  0.00  0.00    +0.140 A 
ATOM     20  O   UNL     1       5.518  -2.296   6.816  0.00  0.00    -0.450 OA
ATOM     21  C   UNL     1       4.958  -2.320   5.591  0.00  0.00    +0.200 A 
ATOM     22  C   UNL     1       5.386  -1.629   4.361  0.00  0.00    +0.284 C 
ATOM     23  O   UNL     1       6.352  -0.897   4.274  0.00  0.00    -0.267 OA
ATOM     24  N   UNL     1       4.547  -1.927   3.346  0.00  0.00    -0.273 N 
ATOM     25 CL   UNL     1       2.720  -4.541  11.473  0.00  0.00    -0.084 Cl
ENDROOT
BRANCH   1  26
ATOM     26  C   UNL     1       0.054  -2.845   2.489  0.00  0.00    +0.148 C 
BRANCH  26  32
ATOM     27  C   UNL     1      -0.018   1.503   0.010  0.00  0.00    +0.044 C 
ATOM     28  C   UNL     1       0.002  -0.004   0.002  0.00  0.00    -0.050 A 
ATOM     29  C   UNL     1       0.006  -0.689  -1.199  0.00  0.00    +0.003 A 
ATOM     30  C   UNL     1       0.025  -2.071  -1.207  0.00  0.00    +0.001 A 
ATOM     31  C   UNL     1       0.040  -2.768  -0.013  0.00  0.00    +0.005 A 
ATOM     32  C   UNL     1       0.037  -2.084   1.188  0.00  0.00    -0.029 A 
ATOM     33  C   UNL     1       0.023  -0.702   1.195  0.00  0.00    +0.008 A 
ENDBRANCH  26  32
ENDBRANCH   1  26
BRANCH  24  34
ATOM     34  C   UNL     1       4.648  -1.435   1.970  0.00  0.00    +0.112 C 
BRANCH  34  35
ATOM     35  C   UNL     1       3.860  -0.130   1.836  0.00  0.00    +0.047 C 
BRANCH  35  36
ATOM     36  C   UNL     1       3.965   0.384   0.399  0.00  0.00    +0.157 C 
BRANCH  36  37
ATOM     37  O   UNL     1       3.230   1.603   0.274  0.00  0.00    -0.395 OA
ATOM     38  H   UNL     1       3.252   1.986  -0.614  0.00  0.00    +0.209 HD
ENDBRANCH  36  37
ENDBRANCH  35  36
ENDBRANCH  34  35
ENDBRANCH  24  34
TORSDOF 6
