REMARK  Name = ZINC04515691
REMARK  9 active torsions:
REMARK  status: ('A' for Active; 'I' for Inactive)
REMARK    1  A    between atoms: C_1  and  C_2
REMARK    2  A    between atoms: C_2  and  C_3
REMARK    3  A    between atoms: C_3  and  C_4
REMARK    4  A    between atoms: C_4  and  C_5
REMARK    5  A    between atoms: C_8  and  C_11
REMARK    6  A    between atoms: N_13  and  C_14
REMARK    7  A    between atoms: C_14  and  C_16
REMARK    8  A    between atoms: C_14  and  C_17
REMARK    9  A    between atoms: C_23  and  C_25
REMARK                            x       y       z     vdW  Elec       q    Type
REMARK                         _______ _______ _______ _____ _____    ______ ____
ROOT
ATOM      1  C   UNL     1       1.248   1.716  -0.001  0.00  0.00    +0.156 C 
ATOM      2  C   UNL     1       1.635   2.077   1.435  0.00  0.00    +0.038 C 
ENDROOT
BRANCH   1   3
ATOM      3  C   UNL     1       2.332   0.870  -0.616  0.00  0.00    +0.239 C 
ATOM      4  O   UNL     1       2.079  -0.249  -1.009  0.00  0.00    -0.273 OA
ATOM      5  N   UNL     1       3.584   1.356  -0.730  0.00  0.00    -0.262 N 
ATOM      6  C   UNL     1       4.584   0.576  -1.297  0.00  0.00    +0.188 A 
ATOM      7  N   UNL     1       4.521  -0.655  -1.777  0.00  0.00    -0.125 NA
ATOM      8  N   UNL     1       5.530  -1.233  -2.269  0.00  0.00    -0.140 NA
ATOM      9  C   UNL     1       6.703  -0.615  -2.310  0.00  0.00    +0.134 A 
ATOM     10  S   UNL     1       6.262   0.950  -1.563  0.00  0.00    -0.030 S 
ATOM     11  H   UNL     1       3.787   2.251  -0.415  0.00  0.00    +0.157 HD
BRANCH   9  12
ATOM     12  C   UNL     1       8.006  -1.085  -2.826  0.00  0.00    +0.009 A 
ATOM     13  C   UNL     1       9.124  -0.251  -2.772  0.00  0.00    +0.010 A 
ATOM     14  C   UNL     1      10.339  -0.699  -3.250  0.00  0.00    +0.001 A 
ATOM     15  C   UNL     1      10.447  -1.966  -3.793  0.00  0.00    +0.000 A 
ATOM     16  C   UNL     1       9.341  -2.796  -3.856  0.00  0.00    +0.001 A 
ATOM     17  C   UNL     1       8.122  -2.363  -3.376  0.00  0.00    +0.010 A 
ENDBRANCH   9  12
ENDBRANCH   1   3
BRANCH   1  20
ATOM     18  C   UNL     1      -1.187   1.624   0.017  0.00  0.00    +0.245 C 
ATOM     19  O   UNL     1      -1.204   2.839   0.023  0.00  0.00    -0.270 OA
ATOM     20  N   UNL     1      -0.011   0.966   0.007  0.00  0.00    -0.300 N 
ATOM     21  H   UNL     1       0.002  -0.004   0.002  0.00  0.00    +0.150 HD
BRANCH  18  25
ATOM     22  C   UNL     1      -4.837  -0.550   0.021  0.00  0.00    -0.047 A 
ATOM     23  C   UNL     1      -4.859   0.834   0.029  0.00  0.00    +0.004 A 
ATOM     24  C   UNL     1      -3.677   1.546   0.028  0.00  0.00    +0.013 A 
ATOM     25  C   UNL     1      -2.458   0.867   0.018  0.00  0.00    +0.037 A 
ATOM     26  C   UNL     1      -2.442  -0.528   0.005  0.00  0.00    +0.013 A 
ATOM     27  C   UNL     1      -3.631  -1.228   0.012  0.00  0.00    +0.004 A 
BRANCH  22  28
ATOM     28  C   UNL     1      -6.131  -1.321   0.024  0.00  0.00    +0.035 C 
BRANCH  28  29
ATOM     29  C   UNL     1      -6.577  -1.574  -1.418  0.00  0.00    +0.004 C 
BRANCH  29  31
ATOM     30  C   UNL     1      -8.337  -2.610  -2.857  0.00  0.00    +0.004 C 
ATOM     31  C   UNL     1      -7.891  -2.357  -1.415  0.00  0.00    -0.003 C 
ENDBRANCH  29  31
ENDBRANCH  28  29
ENDBRANCH  22  28
ENDBRANCH  18  25
ENDBRANCH   1  20
TORSDOF 7
