REMARK  Name = ZINC18063689
REMARK  9 active torsions:
REMARK  status: ('A' for Active; 'I' for Inactive)
REMARK    1  A    between atoms: C_1  and  C_2
REMARK    2  A    between atoms: C_4  and  C_33
REMARK    3  A    between atoms: C_14  and  C_22
REMARK    4  A    between atoms: C_15  and  C_21
REMARK    5  A    between atoms: C_22  and  C_23
REMARK    6  A    between atoms: C_26  and  C_29
REMARK    7  A    between atoms: C_29  and  C_30
REMARK    8  A    between atoms: C_29  and  C_31
REMARK    9  A    between atoms: C_29  and  C_32
REMARK                            x       y       z     vdW  Elec       q    Type
REMARK                         _______ _______ _______ _____ _____    ______ ____
ROOT
ATOM      1  C   UNL     1       0.933   1.459   0.014  0.00  0.00    +0.066 C 
ATOM      2  C   UNL     1       0.913  -0.048   0.019  0.00  0.00    +0.044 A 
ATOM      3  C   UNL     1       1.077  -0.756  -1.161  0.00  0.00    +0.046 A 
ATOM      4  C   UNL     1       1.051  -2.141  -1.111  0.00  0.00    +0.044 A 
ATOM      5  N   UNL     1       0.872  -2.742   0.053  0.00  0.00    -0.216 NA
ATOM      6  C   UNL     1       0.719  -2.035   1.163  0.00  0.00    +0.253 A 
ATOM      7  N   UNL     1       0.743  -0.711   1.151  0.00  0.00    -0.216 NA
ATOM      8  N   UNL     1       0.533  -2.699   2.368  0.00  0.00    -0.182 N 
ATOM      9  C   UNL     1       0.358  -2.108   3.569  0.00  0.00    +0.287 A 
ATOM     10  O   UNL     1       0.335  -0.912   3.793  0.00  0.00    -0.265 OA
ATOM     11  C   UNL     1       0.203  -3.183   4.549  0.00  0.00    +0.130 A 
ATOM     12  C   UNL     1      -0.013  -3.219   5.994  0.00  0.00    +0.200 A 
ATOM     13  O   UNL     1      -0.102  -2.189   6.645  0.00  0.00    -0.287 OA
ATOM     14  C   UNL     1      -0.117  -4.492   6.615  0.00  0.00    +0.023 A 
ATOM     15  C   UNL     1      -0.015  -5.606   5.866  0.00  0.00    +0.022 A 
ATOM     16  N   UNL     1       0.186  -5.563   4.523  0.00  0.00    -0.343 N 
ATOM     17  H   UNL     1       0.252  -6.396   4.030  0.00  0.00    +0.167 HD
ATOM     18  C   UNL     1       0.296  -4.389   3.850  0.00  0.00    +0.140 A 
ATOM     19  N   UNL     1       0.490  -4.087   2.533  0.00  0.00    -0.272 N 
ATOM     20  H   UNL     1       0.585  -4.737   1.819  0.00  0.00    +0.189 HD
ATOM     21  C   UNL     1      -0.128  -6.949   6.542  0.00  0.00    +0.064 C 
ATOM     22  C   UNL     1       1.225  -2.953  -2.369  0.00  0.00    +0.066 C 
ENDROOT
BRANCH  14  23
ATOM     23  C   UNL     1      -0.340  -4.595   8.102  0.00  0.00    +0.075 C 
BRANCH  23  24
ATOM     24  C   UNL     1      -1.816  -4.525   8.395  0.00  0.00    -0.043 A 
ATOM     25  C   UNL     1      -2.442  -3.298   8.509  0.00  0.00    +0.004 A 
ATOM     26  C   UNL     1      -3.796  -3.234   8.777  0.00  0.00    +0.004 A 
ATOM     27  C   UNL     1      -4.525  -4.398   8.932  0.00  0.00    -0.042 A 
ATOM     28  C   UNL     1      -3.901  -5.626   8.817  0.00  0.00    +0.004 A 
ATOM     29  C   UNL     1      -2.547  -5.689   8.544  0.00  0.00    +0.004 A 
BRANCH  27  30
ATOM     30  C   UNL     1      -6.002  -4.329   9.226  0.00  0.00    -0.013 C 
ATOM     31  C   UNL     1      -6.714  -3.594   8.088  0.00  0.00    +0.015 C 
ATOM     32  C   UNL     1      -6.564  -5.746   9.349  0.00  0.00    +0.015 C 
ATOM     33  C   UNL     1      -6.226  -3.576  10.539  0.00  0.00    +0.015 C 
ENDBRANCH  27  30
ENDBRANCH  23  24
ENDBRANCH  14  23
TORSDOF 3
