REMARK  Name = ZINC26895782
REMARK  4 active torsions:
REMARK  status: ('A' for Active; 'I' for Inactive)
REMARK    1  A    between atoms: C_4  and  C_7
REMARK    2  A    between atoms: C_7  and  S_8
REMARK    3  A    between atoms: S_8  and  C_9
REMARK    4  A    between atoms: C_13  and  N_16
REMARK                            x       y       z     vdW  Elec       q    Type
REMARK                         _______ _______ _______ _____ _____    ______ ____
ROOT
ATOM      1  C   UNL     1       0.173  -0.107   0.018  0.00  0.00    +0.134 C 
ATOM      2  N   UNL     1       1.258  -0.849   0.009  0.00  0.00    -0.338 N 
ATOM      3  C   UNL     1       1.181  -2.210  -0.030  0.00  0.00    +0.051 C 
ATOM      4  C   UNL     1       0.037  -2.845   0.283  0.00  0.00    -0.005 C 
ATOM      5  C   UNL     1      -1.175  -2.033   0.673  0.00  0.00    +0.173 C 
ATOM      6  N   UNL     1      -1.063  -0.720   0.013  0.00  0.00    -0.306 N 
ATOM      7  C   UNL     1      -0.037  -4.345   0.240  0.00  0.00    +0.001 C 
ATOM      8  C   UNL     1      -1.504  -4.790   0.089  0.00  0.00    +0.012 C 
ATOM      9  C   UNL     1      -1.605  -6.066   0.963  0.00  0.00    +0.001 C 
ATOM     10  C   UNL     1      -0.708  -5.719   2.178  0.00  0.00    +0.001 C 
ATOM     11  C   UNL     1       0.471  -4.933   1.566  0.00  0.00    +0.012 C 
ATOM     12  C   UNL     1       0.789  -4.896  -0.920  0.00  0.00    +0.047 C 
ATOM     13  C   UNL     1       2.182  -4.324  -0.863  0.00  0.00    -0.037 A 
ATOM     14  C   UNL     1       2.367  -3.016  -0.416  0.00  0.00    +0.002 A 
ATOM     15  C   UNL     1       3.647  -2.479  -0.347  0.00  0.00    +0.010 A 
ATOM     16  C   UNL     1       4.731  -3.246  -0.729  0.00  0.00    +0.001 A 
ATOM     17  C   UNL     1       4.542  -4.541  -1.177  0.00  0.00    +0.000 A 
ATOM     18  C   UNL     1       3.269  -5.080  -1.244  0.00  0.00    +0.004 A 
ATOM     19  H   UNL     1      -1.946  -0.266  -0.461  0.00  0.00    +0.150 HD
ATOM     20  H   UNL     1       2.250  -0.372   0.031  0.00  0.00    +0.168 HD
ENDROOT
BRANCH   5  21
ATOM     21  N   UNL     1      -1.209  -1.856   2.131  0.00  0.00    -0.277 NA
ATOM     22  C   UNL     1      -2.475  -1.243   2.558  0.00  0.00    +0.114 C 
ATOM     23  C   UNL     1      -2.492  -1.133   4.085  0.00  0.00    +0.175 C 
ATOM     24  O   UNL     1      -1.355  -0.381   4.516  0.00  0.00    -0.377 OA
ATOM     25  C   UNL     1      -0.104  -0.949   4.118  0.00  0.00    +0.175 C 
ATOM     26  C   UNL     1      -0.063  -1.058   2.591  0.00  0.00    +0.114 C 
ENDBRANCH   5  21
BRANCH   1  27
ATOM     27  S   UNL     1       0.294   1.650   0.032  0.00  0.00    -0.088 S 
BRANCH  27  28
ATOM     28  C   UNL     1       2.094   1.841   0.035  0.00  0.00    +0.112 C 
BRANCH  28  32
ATOM     29  C   UNL     1       3.087   5.995   0.068  0.00  0.00    +0.000 A 
ATOM     30  C   UNL     1       2.925   5.314   1.260  0.00  0.00    +0.000 A 
ATOM     31  C   UNL     1       2.604   3.969   1.249  0.00  0.00    +0.004 A 
ATOM     32  C   UNL     1       2.445   3.306   0.047  0.00  0.00    -0.037 A 
ATOM     33  C   UNL     1       2.612   3.986  -1.145  0.00  0.00    +0.004 A 
ATOM     34  C   UNL     1       2.928   5.332  -1.134  0.00  0.00    +0.000 A 
ENDBRANCH  28  32
ENDBRANCH  27  28
ENDBRANCH   1  27
TORSDOF 4
