REMARK  Name = ZINC39539861
REMARK  5 active torsions:
REMARK  status: ('A' for Active; 'I' for Inactive)
REMARK    1  A    between atoms: C_3  and  C_9
REMARK    2  A    between atoms: N_11  and  C_12
REMARK    3  A    between atoms: C_12  and  C_13
REMARK    4  A    between atoms: N_15  and  C_16
REMARK    5  A    between atoms: C_16  and  C_17
REMARK                            x       y       z     vdW  Elec       q    Type
REMARK                         _______ _______ _______ _____ _____    ______ ____
ROOT
ATOM      1  C   UNL     1       4.606   5.737  -0.013  0.00  0.00    +0.231 C 
ATOM      2  O   UNL     1       3.458   6.127   0.000  0.00  0.00    -0.274 OA
ATOM      3  N   UNL     1       5.620   6.625  -0.018  0.00  0.00    -0.305 N 
ATOM      4  H   UNL     1       6.538   6.312  -0.029  0.00  0.00    +0.149 HD
ENDROOT
BRANCH   1   5
ATOM      5  C   UNL     1       4.899   4.259  -0.023  0.00  0.00    +0.200 C 
BRANCH   5   8
ATOM      6  C   UNL     1       3.655   2.163  -0.022  0.00  0.00    +0.246 C 
ATOM      7  O   UNL     1       4.715   1.568  -0.035  0.00  0.00    -0.270 OA
ATOM      8  N   UNL     1       3.639   3.511  -0.015  0.00  0.00    -0.303 N 
ATOM      9  H   UNL     1       2.793   3.986  -0.004  0.00  0.00    +0.150 HD
BRANCH   6  12
ATOM     10  C   UNL     1      -0.017   1.381   0.010  0.00  0.00    +0.021 A 
ATOM     11  C   UNL     1       1.166   2.090   0.002  0.00  0.00    +0.016 A 
ATOM     12  C   UNL     1       2.385   1.410  -0.013  0.00  0.00    +0.055 A 
ATOM     13  C   UNL     1       2.398   0.012  -0.021  0.00  0.00    +0.054 A 
ATOM     14  C   UNL     1       1.207  -0.686  -0.013  0.00  0.00    +0.040 A 
ATOM     15  C   UNL     1       0.002  -0.004   0.002  0.00  0.00    +0.042 A 
ATOM     16 CL   UNL     1      -1.492  -0.889   0.011  0.00  0.00    -0.083 Cl
ATOM     17 CL   UNL     1       3.908  -0.844  -0.040  0.00  0.00    -0.083 Cl
ENDBRANCH   6  12
ENDBRANCH   5   8
ENDBRANCH   1   5
BRANCH   3  18
ATOM     18  C   UNL     1       5.335   8.062  -0.009  0.00  0.00    +0.200 C 
BRANCH  18  19
ATOM     19  C   UNL     1       6.631   8.831  -0.017  0.00  0.00    +0.236 C 
ATOM     20  O   UNL     1       7.688   8.237  -0.030  0.00  0.00    -0.274 OA
ATOM     21  N   UNL     1       6.615  10.179  -0.010  0.00  0.00    -0.263 N 
ATOM     22  C   UNL     1       7.810  10.888  -0.018  0.00  0.00    +0.165 A 
ATOM     23  N   UNL     1       9.039  10.420  -0.038  0.00  0.00    -0.229 NA
ATOM     24  C   UNL     1      10.101  11.228  -0.045  0.00  0.00    +0.054 A 
ATOM     25  C   UNL     1       9.806  12.541  -0.048  0.00  0.00    +0.014 A 
ATOM     26  S   UNL     1       8.038  12.559  -0.012  0.00  0.00    -0.057 S 
ATOM     27  C   UNL     1      10.775  13.693  -0.115  0.00  0.00    +0.044 C 
ATOM     28  C   UNL     1      11.544  13.708   1.221  0.00  0.00    +0.005 C 
ATOM     29  C   UNL     1      12.618  12.646   1.214  0.00  0.00    +0.001 C 
ATOM     30  C   UNL     1      12.157  11.215   1.312  0.00  0.00    +0.006 C 
ATOM     31  C   UNL     1      11.543  10.720  -0.001  0.00  0.00    +0.056 C 
ATOM     32  H   UNL     1       5.769  10.653   0.000  0.00  0.00    +0.157 HD
ENDBRANCH  18  19
ENDBRANCH   3  18
TORSDOF 5
