REMARK  Name = ZINC38653280
REMARK  10 active torsions:
REMARK  status: ('A' for Active; 'I' for Inactive)
REMARK    1  A    between atoms: C_1  and  C_2
REMARK    2  A    between atoms: C_2  and  N_3
REMARK    3  A    between atoms: C_7  and  S_29
REMARK    4  A    between atoms: C_11  and  S_12
REMARK    5  A    between atoms: S_12  and  C_13
REMARK    6  A    between atoms: C_13  and  C_15
REMARK    7  A    between atoms: C_13  and  C_16
REMARK    8  A    between atoms: C_16  and  C_18
REMARK    9  A    between atoms: C_26  and  C_28
REMARK   10  A    between atoms: S_29  and  N_32
REMARK                            x       y       z     vdW  Elec       q    Type
REMARK                         _______ _______ _______ _____ _____    ______ ____
ROOT
ATOM      1  N   UNL     1       0.712  -0.291  -1.209  0.00  0.00    -0.319 N 
ATOM      2  C   UNL     1       0.101  -0.613  -2.410  0.00  0.00    +0.070 A 
ATOM      3  C   UNL     1      -1.196  -0.506  -2.888  0.00  0.00    +0.030 A 
ATOM      4  C   UNL     1      -1.494  -0.927  -4.168  0.00  0.00    +0.030 A 
ATOM      5  C   UNL     1      -0.504  -1.459  -4.980  0.00  0.00    +0.107 A 
ATOM      6  C   UNL     1       0.790  -1.573  -4.522  0.00  0.00    +0.058 A 
ATOM      7  C   UNL     1       1.108  -1.150  -3.229  0.00  0.00    +0.092 A 
ATOM      8  N   UNL     1       2.260  -1.133  -2.510  0.00  0.00    -0.222 NA
ATOM      9  C   UNL     1       2.032  -0.623  -1.324  0.00  0.00    +0.171 A 
ENDROOT
BRANCH   5  10
ATOM     10  S   UNL     1      -0.904  -1.992  -6.611  0.00  0.00    +0.056 S 
ATOM     11  O   UNL     1       0.077  -2.953  -6.977  0.00  0.00    -0.153 OA
ATOM     12  O   UNL     1      -2.294  -2.284  -6.613  0.00  0.00    -0.153 OA
BRANCH  10  13
ATOM     13  N   UNL     1      -0.692  -0.693  -7.617  0.00  0.00    -0.204 NA
ATOM     14  H   UNL     1      -0.397   0.157  -7.255  0.00  0.00    +0.144 HD
ATOM     15  H   UNL     1      -0.863  -0.783  -8.568  0.00  0.00    +0.144 HD
ENDBRANCH  10  13
ENDBRANCH   5  10
BRANCH   1  17
ATOM     16  C   UNL     1       0.126   1.826  -0.134  0.00  0.00    +0.027 C 
ATOM     17  C   UNL     1       0.064   0.300  -0.036  0.00  0.00    +0.121 C 
ENDBRANCH   1  17
BRANCH   9  18
ATOM     18  S   UNL     1       3.245  -0.404  -0.065  0.00  0.00    -0.077 S 
BRANCH  18  19
ATOM     19  C   UNL     1       4.775  -1.026  -0.817  0.00  0.00    +0.122 C 
ATOM     20  C   UNL     1       5.161  -0.135  -1.999  0.00  0.00    +0.028 C 
BRANCH  19  21
ATOM     21  C   UNL     1       5.880  -1.009   0.207  0.00  0.00    +0.175 C 
ATOM     22  O   UNL     1       5.831  -0.235   1.141  0.00  0.00    -0.291 OA
BRANCH  21  23
ATOM     23  C   UNL     1       6.973  -1.893   0.081  0.00  0.00    +0.027 C 
ATOM     24  C   UNL     1       7.236  -2.753  -0.971  0.00  0.00    +0.006 A 
ATOM     25  C   UNL     1       6.560  -3.025  -2.183  0.00  0.00    +0.010 A 
ATOM     26  C   UNL     1       7.054  -3.938  -3.049  0.00  0.00    +0.001 A 
ATOM     27  C   UNL     1       8.238  -4.650  -2.799  0.00  0.00    +0.002 A 
ATOM     28  C   UNL     1       8.959  -4.465  -1.672  0.00  0.00    +0.026 A 
ATOM     29  C   UNL     1       8.490  -3.488  -0.675  0.00  0.00    +0.043 A 
ATOM     30  N   UNL     1       8.977  -3.116   0.474  0.00  0.00    -0.377 N 
ATOM     31  C   UNL     1       8.105  -2.095   1.063  0.00  0.00    +0.111 C 
ATOM     32  C   UNL     1       8.877  -0.787   1.253  0.00  0.00    +0.035 C 
ATOM     33  H   UNL     1       9.790  -3.459   0.877  0.00  0.00    +0.160 HD
ENDBRANCH  21  23
ENDBRANCH  19  21
ENDBRANCH  18  19
ENDBRANCH   9  18
TORSDOF 7
