REMARK  Name = ZINC44977895
REMARK  5 active torsions:
REMARK  status: ('A' for Active; 'I' for Inactive)
REMARK    1  A    between atoms: C_3  and  C_7
REMARK    2  A    between atoms: N_12  and  C_13
REMARK    3  A    between atoms: C_13  and  C_14
REMARK    4  A    between atoms: C_17  and  S_19
REMARK    5  A    between atoms: S_19  and  N_22
REMARK                            x       y       z     vdW  Elec       q    Type
REMARK                         _______ _______ _______ _____ _____    ______ ____
ROOT
ATOM      1  C   UNL     1       4.981  -0.301   1.690  0.00  0.00    -0.002 C 
ENDROOT
BRANCH   1   6
ATOM      2  C   UNL     1       3.614   0.681  -0.029  0.00  0.00    -0.020 C 
ATOM      3  C   UNL     1       4.125   0.768  -1.483  0.00  0.00    -0.011 C 
ATOM      4  C   UNL     1       5.355  -0.177  -1.478  0.00  0.00    -0.020 C 
ATOM      5  C   UNL     1       4.889  -1.292  -0.509  0.00  0.00    -0.077 C 
ATOM      6  N   UNL     1       4.115  -0.585   0.538  0.00  0.00    +0.390 N 
ATOM      7  H   UNL     1       3.338  -1.157   0.832  0.00  0.00    -0.080 HD
BRANCH   2  10
ATOM      8  C   UNL     1      -0.016   1.344   0.009  0.00  0.00    +0.019 A 
ATOM      9  C   UNL     1       1.322   1.784  -0.001  0.00  0.00    +0.021 A 
ATOM     10  C   UNL     1       2.107   0.688  -0.014  0.00  0.00    +0.002 A 
ATOM     11  N   UNL     1       1.303  -0.413  -0.013  0.00  0.00    -0.366 N 
ATOM     12  H   UNL     1       1.606  -1.334  -0.021  0.00  0.00    +0.165 HD
ATOM     13  C   UNL     1       0.002  -0.004   0.002  0.00  0.00    +0.082 A 
ENDBRANCH   2  10
ENDBRANCH   1   6
BRANCH   1  14
ATOM     14  C   UNL     1       5.392  -1.597   2.341  0.00  0.00    +0.091 A 
ATOM     15  C   UNL     1       6.486  -2.318   2.037  0.00  0.00    +0.045 A 
ATOM     16  C   UNL     1       6.480  -3.449   2.885  0.00  0.00    +0.071 A 
ATOM     17  C   UNL     1       5.383  -3.351   3.657  0.00  0.00    +0.258 A 
ATOM     18  O   UNL     1       4.731  -2.225   3.327  0.00  0.00    -0.444 OA
BRANCH  17  19
ATOM     19  S   UNL     1       4.888  -4.503   4.895  0.00  0.00    +0.094 S 
ATOM     20  O   UNL     1       3.485  -4.351   5.055  0.00  0.00    -0.150 OA
ATOM     21  O   UNL     1       5.486  -5.747   4.555  0.00  0.00    -0.150 OA
BRANCH  19  22
ATOM     22  N   UNL     1       5.582  -4.019   6.319  0.00  0.00    -0.174 NA
ATOM     23  C   UNL     1       6.903  -4.433   6.813  0.00  0.00    +0.109 C 
ATOM     24  C   UNL     1       7.114  -3.755   8.183  0.00  0.00    +0.018 C 
ATOM     25  C   UNL     1       5.664  -3.448   8.645  0.00  0.00    +0.018 C 
ATOM     26  C   UNL     1       4.979  -3.096   7.298  0.00  0.00    +0.109 C 
ENDBRANCH  19  22
ENDBRANCH  17  19
ENDBRANCH   1  14
TORSDOF 5
