REMARK  Name = ZINC01873257
REMARK  10 active torsions:
REMARK  status: ('A' for Active; 'I' for Inactive)
REMARK    1  A    between atoms: C_1  and  C_2
REMARK    2  A    between atoms: C_7  and  O_8
REMARK    3  A    between atoms: O_8  and  C_9
REMARK    4  A    between atoms: C_9  and  C_10
REMARK    5  A    between atoms: N_12  and  N_13
REMARK    6  A    between atoms: N_21  and  C_24
REMARK    7  A    between atoms: C_24  and  N_25
REMARK    8  A    between atoms: C_27  and  C_36
REMARK    9  A    between atoms: C_32  and  C_34
REMARK   10  A    between atoms: C_32  and  C_35
REMARK                            x       y       z     vdW  Elec       q    Type
REMARK                         _______ _______ _______ _____ _____    ______ ____
ROOT
ATOM      1  N   UNL     1       0.066   0.412   7.134  0.00  0.00    -0.174 NA
ATOM      2  C   UNL     1       0.084  -0.097   8.341  0.00  0.00    +0.153 C 
ATOM      3  C   UNL     1       0.081   0.635   9.629  0.00  0.00    +0.029 A 
ATOM      4  C   UNL     1       0.059   1.986   9.956  0.00  0.00    +0.027 A 
ATOM      5  C   UNL     1       0.062   2.370  11.283  0.00  0.00    +0.019 A 
ATOM      6  C   UNL     1       0.087   1.411  12.283  0.00  0.00    +0.017 A 
ATOM      7  C   UNL     1       0.110   0.068  11.967  0.00  0.00    +0.025 A 
ATOM      8  C   UNL     1       0.106  -0.337  10.637  0.00  0.00    +0.047 A 
ATOM      9  N   UNL     1       0.124  -1.601  10.056  0.00  0.00    -0.252 N 
ATOM     10  C   UNL     1       0.106  -1.526   8.715  0.00  0.00    +0.272 C 
ATOM     11  O   UNL     1       0.111  -2.468   7.944  0.00  0.00    -0.268 OA
ATOM     12 BR   UNL     1       0.034   4.206  11.735  0.00  0.00    -0.050 Br
ENDROOT
BRANCH   1  15
ATOM     13  C   UNL     1       0.047   0.090   4.775  0.00  0.00    +0.270 C 
ATOM     14  O   UNL     1       0.030   1.293   4.625  0.00  0.00    -0.270 OA
ATOM     15  N   UNL     1       0.066  -0.433   6.017  0.00  0.00    -0.203 N 
ATOM     16  H   UNL     1       0.080  -1.396   6.137  0.00  0.00    +0.177 HD
BRANCH  13  17
ATOM     17  C   UNL     1       0.048  -0.820   3.574  0.00  0.00    +0.326 C 
BRANCH  17  18
ATOM     18  O   UNL     1       0.025  -0.033   2.381  0.00  0.00    -0.482 OA
BRANCH  18  25
ATOM     19  C   UNL     1      -0.018   1.503   0.010  0.00  0.00    +0.047 C 
ATOM     20  C   UNL     1       0.002  -0.004   0.002  0.00  0.00    -0.009 A 
ATOM     21  C   UNL     1       0.006  -0.689  -1.198  0.00  0.00    +0.007 A 
ATOM     22  C   UNL     1       0.024  -2.071  -1.206  0.00  0.00    +0.000 A 
ATOM     23  C   UNL     1       0.039  -2.772  -0.014  0.00  0.00    +0.004 A 
ATOM     24  C   UNL     1       0.036  -2.092   1.188  0.00  0.00    +0.046 A 
ATOM     25  C   UNL     1       0.023  -0.705   1.199  0.00  0.00    +0.124 A 
ENDBRANCH  18  25
ENDBRANCH  17  18
ENDBRANCH  13  17
ENDBRANCH   1  15
BRANCH   9  26
ATOM     26  C   UNL     1       0.153  -2.856  10.812  0.00  0.00    +0.201 C 
BRANCH  26  27
ATOM     27  N   UNL     1      -1.206  -3.295  11.073  0.00  0.00    -0.283 NA
ATOM     28  C   UNL     1      -1.852  -3.956   9.930  0.00  0.00    +0.093 C 
ATOM     29  C   UNL     1      -2.679  -5.126  10.516  0.00  0.00    -0.017 C 
ATOM     30  C   UNL     1      -2.791  -4.774  12.024  0.00  0.00    +0.027 C 
ATOM     31  C   UNL     1      -1.380  -4.163  12.250  0.00  0.00    +0.059 C 
ATOM     32  C   UNL     1      -0.381  -5.305  12.264  0.00  0.00    +0.025 C 
ATOM     33  C   UNL     1      -0.548  -6.371  11.203  0.00  0.00    -0.033 C 
ATOM     34  C   UNL     1      -1.842  -6.399  10.417  0.00  0.00    +0.014 C 
ATOM     35  C   UNL     1       0.633  -6.287  10.215  0.00  0.00    +0.011 C 
ATOM     36  C   UNL     1      -0.414  -7.745  11.911  0.00  0.00    +0.011 C 
ATOM     37  C   UNL     1      -4.052  -5.263   9.842  0.00  0.00    +0.012 C 
ENDBRANCH  26  27
ENDBRANCH   9  26
TORSDOF 6
