REMARK  Name = ZINC08226791
REMARK  11 active torsions:
REMARK  status: ('A' for Active; 'I' for Inactive)
REMARK    1  A    between atoms: C_1  and  C_2
REMARK    2  A    between atoms: C_7  and  N_56
REMARK    3  A    between atoms: C_9  and  C_11
REMARK    4  A    between atoms: C_12  and  C_14
REMARK    5  A    between atoms: C_12  and  C_15
REMARK    6  A    between atoms: C_12  and  N_56
REMARK    7  A    between atoms: N_17  and  C_18
REMARK    8  A    between atoms: C_22  and  S_24
REMARK    9  A    between atoms: S_24  and  N_27
REMARK   10  A    between atoms: N_27  and  C_28
REMARK   11  A    between atoms: N_27  and  C_29
REMARK                            x       y       z     vdW  Elec       q    Type
REMARK                         _______ _______ _______ _____ _____    ______ ____
ROOT
ATOM      1  C   UNL     1      -0.857   3.214  -1.534  0.00  0.00    +0.203 C 
ATOM      2  O   UNL     1       0.327   3.474  -1.481  0.00  0.00    -0.277 OA
ATOM      3  N   UNL     1      -1.716   4.091  -2.088  0.00  0.00    -0.287 N 
ATOM      4  H   UNL     1      -2.669   3.915  -2.070  0.00  0.00    +0.155 HD
ENDROOT
BRANCH   3   5
ATOM      5  C   UNL     1      -1.232   5.258  -2.692  0.00  0.00    +0.035 A 
ATOM      6  C   UNL     1      -0.136   5.917  -2.151  0.00  0.00    +0.023 A 
ATOM      7  C   UNL     1       0.343   7.065  -2.752  0.00  0.00    +0.004 A 
ATOM      8  C   UNL     1      -0.276   7.564  -3.884  0.00  0.00    +0.028 A 
ATOM      9  C   UNL     1      -1.371   6.913  -4.421  0.00  0.00    +0.107 A 
ATOM     10  C   UNL     1      -1.851   5.761  -3.828  0.00  0.00    +0.051 A 
BRANCH   9  11
ATOM     11  S   UNL     1      -2.155   7.552  -5.864  0.00  0.00    +0.060 S 
ATOM     12  O   UNL     1      -1.182   8.335  -6.542  0.00  0.00    -0.153 OA
ATOM     13  O   UNL     1      -2.820   6.460  -6.483  0.00  0.00    -0.153 OA
BRANCH  11  14
ATOM     14  N   UNL     1      -3.334   8.598  -5.357  0.00  0.00    -0.183 NA
ATOM     15  C   UNL     1      -3.022  10.016  -5.162  0.00  0.00    +0.131 C 
ATOM     16  C   UNL     1      -4.691   8.106  -5.102  0.00  0.00    +0.131 C 
ENDBRANCH  11  14
ENDBRANCH   9  11
ENDBRANCH   3   5
BRANCH   1  17
ATOM     17  C   UNL     1      -1.366   1.909  -0.978  0.00  0.00    +0.014 C 
ATOM     18  C   UNL     1      -2.379   2.189   0.134  0.00  0.00    -0.004 C 
BRANCH  17  19
ATOM     19  N   UNL     1      -0.233   1.140  -0.431  0.00  0.00    +0.388 N 
ATOM     20  H   UNL     1       0.590   1.276  -1.030  0.00  0.00    -0.084 HD
ATOM     21  H   UNL     1      -0.024   1.472   0.517  0.00  0.00    -0.084 HD
BRANCH  19  27
ATOM     22  C   UNL     1      -1.694  -2.704  -1.612  0.00  0.00    +0.008 C 
ATOM     23  C   UNL     1      -0.183  -2.516  -1.463  0.00  0.00    -0.013 C 
ATOM     24  C   UNL     1       0.273  -3.092  -0.121  0.00  0.00    +0.003 C 
ATOM     25  C   UNL     1      -0.445  -2.364   1.017  0.00  0.00    -0.001 C 
ATOM     26  C   UNL     1      -0.109  -0.873   0.961  0.00  0.00    -0.015 C 
ATOM     27  C   UNL     1      -0.565  -0.297  -0.381  0.00  0.00    -0.068 C 
ATOM     28  C   UNL     1       0.153  -1.024  -1.519  0.00  0.00    -0.025 C 
ATOM     29  C   UNL     1      -0.303  -0.448  -2.861  0.00  0.00    +0.006 C 
ENDBRANCH  19  27
ENDBRANCH  17  19
ENDBRANCH   1  17
TORSDOF 6
