REMARK  Name = ZINC01598165
REMARK  2 active torsions:
REMARK  status: ('A' for Active; 'I' for Inactive)
REMARK    1  A    between atoms: C_1  and  C_2
REMARK    2  A    between atoms: C_2  and  C_12
REMARK                            x       y       z     vdW  Elec       q    Type
REMARK                         _______ _______ _______ _____ _____    ______ ____
ROOT
ATOM      1  C   UNL     1       3.595  -0.571   1.194  0.00  0.00    +0.021 C 
ATOM      2  C   UNL     1       2.146  -0.081   1.226  0.00  0.00    +0.051 C 
ATOM      3  C   UNL     1       2.125   1.450   1.234  0.00  0.00    +0.024 C 
ATOM      4  C   UNL     1       1.369   1.958  -0.001  0.00  0.00    +0.012 C 
ATOM      5  C   UNL     1       2.095   1.450  -1.280  0.00  0.00    +0.008 C 
ATOM      6  C   UNL     1       2.116  -0.081  -1.272  0.00  0.00    +0.009 C 
ATOM      7  C   UNL     1       1.404  -0.596  -0.015  0.00  0.00    +0.026 C 
ATOM      8  C   UNL     1       0.002  -0.004   0.002  0.00  0.00    -0.026 C 
ATOM      9  C   UNL     1      -0.016   1.328   0.009  0.00  0.00    -0.027 C 
ENDROOT
BRANCH   2  10
ATOM     10  C   UNL     1       1.467  -0.599   2.468  0.00  0.00    +0.217 C 
ATOM     11  O   UNL     1       0.489  -1.310   2.373  0.00  0.00    -0.275 OA
ATOM     12  N   UNL     1       1.948  -0.274   3.684  0.00  0.00    -0.329 N 
ATOM     13  H   UNL     1       2.731   0.295   3.760  0.00  0.00    +0.145 HD
ATOM     14  H   UNL     1       1.512  -0.607   4.484  0.00  0.00    +0.145 HD
ENDBRANCH   2  10
TORSDOF 1
