REMARK  Name = ZINC41569994
REMARK  7 active torsions:
REMARK  status: ('A' for Active; 'I' for Inactive)
REMARK    1  A    between atoms: C_1  and  C_2
REMARK    2  A    between atoms: C_2  and  C_3
REMARK    3  A    between atoms: C_2  and  C_4
REMARK    4  A    between atoms: C_6  and  N_22
REMARK    5  A    between atoms: C_11  and  C_13
REMARK    6  A    between atoms: C_13  and  C_14
REMARK    7  A    between atoms: C_14  and  C_15
REMARK                            x       y       z     vdW  Elec       q    Type
REMARK                         _______ _______ _______ _____ _____    ______ ____
ROOT
ATOM      1  C   UNL     1      -1.412  -0.526   0.013  0.00  0.00    -0.041 A 
ATOM      2  C   UNL     1      -2.257  -0.200   1.062  0.00  0.00    +0.030 A 
ATOM      3  C   UNL     1      -3.559  -0.672   1.085  0.00  0.00    +0.070 A 
ATOM      4  C   UNL     1      -4.021  -1.479   0.047  0.00  0.00    +0.176 A 
ATOM      5  C   UNL     1      -3.165  -1.806  -1.012  0.00  0.00    +0.112 A 
ATOM      6  C   UNL     1      -1.856  -1.317  -1.022  0.00  0.00    +0.035 A 
ATOM      7  N   UNL     1      -3.882  -2.592  -1.861  0.00  0.00    -0.213 NA
ATOM      8  C   UNL     1      -5.079  -2.745  -1.379  0.00  0.00    +0.197 A 
ATOM      9  O   UNL     1      -5.201  -2.082  -0.218  0.00  0.00    -0.438 OA
ENDROOT
BRANCH   1  11
ATOM     10  C   UNL     1      -0.019   1.526   0.010  0.00  0.00    +0.012 C 
ATOM     11  C   UNL     1       0.002  -0.004   0.002  0.00  0.00    +0.013 C 
ATOM     12  C   UNL     1       0.742  -0.511   1.242  0.00  0.00    +0.012 C 
ENDBRANCH   1  11
BRANCH   3  13
ATOM     13  N   UNL     1      -4.407  -0.342   2.147  0.00  0.00    -0.355 N 
ATOM     14  H   UNL     1      -4.084   0.220   2.869  0.00  0.00    +0.142 HD
ATOM     15  H   UNL     1      -5.319  -0.673   2.161  0.00  0.00    +0.142 HD
ENDBRANCH   3  13
BRANCH   8  16
ATOM     16  C   UNL     1      -6.174  -3.551  -2.030  0.00  0.00    +0.101 C 
BRANCH  16  17
ATOM     17  C   UNL     1      -6.106  -4.997  -1.534  0.00  0.00    +0.044 C 
BRANCH  17  18
ATOM     18  C   UNL     1      -7.201  -5.802  -2.184  0.00  0.00    -0.047 A 
ATOM     19  C   UNL     1      -8.443  -5.892  -1.584  0.00  0.00    +0.005 A 
ATOM     20  C   UNL     1      -9.447  -6.631  -2.181  0.00  0.00    +0.020 A 
ATOM     21  C   UNL     1      -9.209  -7.281  -3.379  0.00  0.00    +0.041 A 
ATOM     22  C   UNL     1      -7.966  -7.191  -3.979  0.00  0.00    +0.020 A 
ATOM     23  C   UNL     1      -6.964  -6.447  -3.384  0.00  0.00    +0.005 A 
ATOM     24 CL   UNL     1     -10.470  -8.210  -4.128  0.00  0.00    -0.084 Cl
ENDBRANCH  17  18
ENDBRANCH  16  17
ENDBRANCH   8  16
TORSDOF 5
