REMARK  Name = ZINC00648976
REMARK  14 active torsions:
REMARK  status: ('A' for Active; 'I' for Inactive)
REMARK    1  A    between atoms: C_1  and  C_2
REMARK    2  A    between atoms: C_2  and  O_3
REMARK    3  A    between atoms: O_3  and  C_4
REMARK    4  A    between atoms: C_4  and  C_6
REMARK    5  A    between atoms: C_7  and  C_39
REMARK    6  A    between atoms: C_11  and  C_13
REMARK    7  A    between atoms: C_15  and  O_21
REMARK    8  A    between atoms: C_16  and  O_20
REMARK    9  A    between atoms: O_21  and  C_22
REMARK   10  A    between atoms: C_26  and  C_29
REMARK   11  A    between atoms: C_32  and  O_37
REMARK   12  A    between atoms: C_33  and  O_35
REMARK   13  A    between atoms: O_35  and  C_36
REMARK   14  A    between atoms: O_37  and  C_38
REMARK                            x       y       z     vdW  Elec       q    Type
REMARK                         _______ _______ _______ _____ _____    ______ ____
ROOT
ATOM      1  C   UNL     1       1.236  -2.363  -2.589  0.00  0.00    +0.065 C 
ATOM      2  C   UNL     1       1.608  -3.654  -2.578  0.00  0.00    +0.016 C 
ATOM      3  N   UNL     1       2.421  -4.149  -3.559  0.00  0.00    -0.321 N 
ATOM      4  C   UNL     1       2.552  -3.493  -4.754  0.00  0.00    +0.016 C 
ATOM      5  C   UNL     1       2.215  -2.191  -4.861  0.00  0.00    +0.024 C 
ATOM      6  C   UNL     1       1.696  -1.429  -3.670  0.00  0.00    +0.092 C 
ATOM      7  C   UNL     1       2.329  -1.510  -6.086  0.00  0.00    +0.162 C 
ATOM      8  O   UNL     1       2.025  -0.336  -6.146  0.00  0.00    -0.292 OA
ATOM      9  C   UNL     1       2.823  -2.210  -7.323  0.00  0.00    +0.088 C 
ATOM     10  C   UNL     1       2.474  -3.699  -7.227  0.00  0.00    +0.032 C 
ATOM     11  C   UNL     1       3.084  -4.258  -5.940  0.00  0.00    +0.059 C 
ATOM     12  C   UNL     1       1.127  -4.562  -1.476  0.00  0.00    +0.061 C 
ATOM     13  H   UNL     1       2.910  -4.973  -3.407  0.00  0.00    +0.152 HD
ENDROOT
BRANCH   6  14
ATOM     14  C   UNL     1       2.799  -0.554  -3.130  0.00  0.00    -0.030 A 
ATOM     15  C   UNL     1       2.639   0.820  -3.105  0.00  0.00    +0.054 A 
ATOM     16  C   UNL     1       3.651   1.626  -2.610  0.00  0.00    +0.163 A 
ATOM     17  C   UNL     1       4.827   1.050  -2.138  0.00  0.00    +0.173 A 
ATOM     18  C   UNL     1       4.981  -0.327  -2.165  0.00  0.00    +0.063 A 
ATOM     19  C   UNL     1       3.964  -1.126  -2.656  0.00  0.00    +0.023 A 
ATOM     20 BR   UNL     1       6.576  -1.114  -1.524  0.00  0.00    -0.046 Br
BRANCH  17  21
ATOM     21  O   UNL     1       5.824   1.838  -1.651  0.00  0.00    -0.503 OA
ATOM     22  H   UNL     1       5.760   2.010  -0.701  0.00  0.00    +0.292 HD
ENDBRANCH  17  21
BRANCH  16  23
ATOM     23  O   UNL     1       3.496   2.977  -2.585  0.00  0.00    -0.491 OA
ATOM     24  C   UNL     1       2.263   3.497  -3.087  0.00  0.00    +0.277 C 
ENDBRANCH  16  23
ENDBRANCH   6  14
BRANCH  10  25
ATOM     25  C   UNL     1       3.039  -4.428  -8.419  0.00  0.00    -0.040 A 
ATOM     26  C   UNL     1       4.402  -4.425  -8.647  0.00  0.00    +0.008 A 
ATOM     27  C   UNL     1       4.925  -5.093  -9.739  0.00  0.00    +0.049 A 
ATOM     28  C   UNL     1       4.082  -5.768 -10.607  0.00  0.00    +0.161 A 
ATOM     29  C   UNL     1       2.710  -5.772 -10.376  0.00  0.00    +0.162 A 
ATOM     30  C   UNL     1       2.193  -5.105  -9.278  0.00  0.00    +0.053 A 
BRANCH  29  31
ATOM     31  O   UNL     1       1.878  -6.434 -11.225  0.00  0.00    -0.491 OA
ATOM     32  C   UNL     1       0.481  -6.395 -10.926  0.00  0.00    +0.277 C 
ENDBRANCH  29  31
BRANCH  28  33
ATOM     33  O   UNL     1       4.595  -6.425 -11.681  0.00  0.00    -0.491 OA
ATOM     34  C   UNL     1       6.012  -6.378 -11.855  0.00  0.00    +0.277 C 
ENDBRANCH  28  33
ENDBRANCH  10  25
BRANCH   1  35
ATOM     35  C   UNL     1       0.388  -1.876  -1.567  0.00  0.00    +0.338 C 
ATOM     36  O   UNL     1      -0.095  -2.647  -0.759  0.00  0.00    -0.245 OA
BRANCH  35  37
ATOM     37  O   UNL     1       0.115  -0.557  -1.487  0.00  0.00    -0.462 OA
BRANCH  37  39
ATOM     38  C   UNL     1      -0.940   1.381  -0.501  0.00  0.00    +0.048 C 
ATOM     39  C   UNL     1      -0.749  -0.136  -0.429  0.00  0.00    +0.229 C 
ENDBRANCH  37  39
ENDBRANCH  35  37
ENDBRANCH   1  35
TORSDOF 9
