REMARK  Name = ZINC49509182
REMARK  9 active torsions:
REMARK  status: ('A' for Active; 'I' for Inactive)
REMARK    1  A    between atoms: C_1  and  C_2
REMARK    2  A    between atoms: C_2  and  C_3
REMARK    3  A    between atoms: C_2  and  N_4
REMARK    4  A    between atoms: C_7  and  C_10
REMARK    5  A    between atoms: C_10  and  N_11
REMARK    6  A    between atoms: C_12  and  C_14
REMARK    7  A    between atoms: N_16  and  C_17
REMARK    8  A    between atoms: N_23  and  S_27
REMARK    9  A    between atoms: S_27  and  C_30
REMARK                            x       y       z     vdW  Elec       q    Type
REMARK                         _______ _______ _______ _____ _____    ______ ____
ROOT
ATOM      1  C   UNL     1      -6.106  -5.994  -2.371  0.00  0.00    +0.303 C 
ATOM      2  O   UNL     1      -5.124  -6.687  -2.539  0.00  0.00    -0.265 OA
ATOM      3  N   UNL     1      -7.279  -6.559  -2.027  0.00  0.00    -0.278 N 
ATOM      4  H   UNL     1      -8.047  -6.001  -1.828  0.00  0.00    +0.155 HD
ENDROOT
BRANCH   3   5
ATOM      5  C   UNL     1      -7.391  -7.950  -1.957  0.00  0.00    +0.036 A 
ATOM      6  C   UNL     1      -6.318  -8.714  -1.511  0.00  0.00    +0.024 A 
ATOM      7  C   UNL     1      -6.429 -10.088  -1.444  0.00  0.00    +0.007 A 
ATOM      8  C   UNL     1      -7.605 -10.717  -1.819  0.00  0.00    -0.025 A 
ATOM      9  C   UNL     1      -8.678  -9.957  -2.261  0.00  0.00    +0.056 A 
ATOM     10  C   UNL     1      -8.573  -8.574  -2.328  0.00  0.00    +0.048 A 
ATOM     11  N   UNL     1      -9.881 -10.566  -2.637  0.00  0.00    -0.202 N 
ATOM     12  C   UNL     1      -9.906 -12.020  -2.849  0.00  0.00    +0.132 C 
ATOM     13  C   UNL     1      -9.143 -12.675  -1.690  0.00  0.00    +0.025 C 
ATOM     14  C   UNL     1      -7.685 -12.219  -1.737  0.00  0.00    +0.038 C 
BRANCH  11  15
ATOM     15  S   UNL     1     -11.254  -9.663  -2.840  0.00  0.00    +0.081 S 
ATOM     16  O   UNL     1     -12.344 -10.575  -2.838  0.00  0.00    -0.149 OA
ATOM     17  O   UNL     1     -11.166  -8.579  -1.926  0.00  0.00    -0.149 OA
BRANCH  15  18
ATOM     18  C   UNL     1     -11.184  -8.965  -4.457  0.00  0.00    +0.146 A 
ATOM     19  C   UNL     1     -11.653  -9.468  -5.625  0.00  0.00    +0.036 A 
ATOM     20  C   UNL     1     -11.485  -8.736  -6.785  0.00  0.00    +0.010 A 
ATOM     21  C   UNL     1     -10.856  -7.537  -6.721  0.00  0.00    +0.047 A 
ATOM     22  S   UNL     1     -10.484  -7.408  -4.979  0.00  0.00    -0.077 S 
ENDBRANCH  15  18
ENDBRANCH  11  15
ENDBRANCH   3   5
BRANCH   1  24
ATOM     23  N   UNL     1      -4.839  -3.947  -2.890  0.00  0.00    -0.307 N 
ATOM     24  C   UNL     1      -6.013  -4.513  -2.546  0.00  0.00    +0.299 C 
ATOM     25  O   UNL     1      -6.995  -3.820  -2.378  0.00  0.00    -0.265 OA
ATOM     26  H   UNL     1      -4.054  -4.502  -3.024  0.00  0.00    +0.149 HD
BRANCH  23  27
ATOM     27  C   UNL     1      -4.748  -2.495  -3.062  0.00  0.00    +0.108 C 
BRANCH  27  31
ATOM     28  N   UNL     1      -0.951  -0.536  -2.904  0.00  0.00    +0.381 N 
ATOM     29  C   UNL     1      -1.802  -0.229  -4.060  0.00  0.00    -0.078 C 
ATOM     30  C   UNL     1      -3.249  -0.616  -3.751  0.00  0.00    -0.014 C 
ATOM     31  C   UNL     1      -3.318  -2.116  -3.450  0.00  0.00    +0.003 C 
ATOM     32  C   UNL     1      -2.371  -2.437  -2.290  0.00  0.00    -0.014 C 
ATOM     33  C   UNL     1      -0.956  -1.983  -2.653  0.00  0.00    -0.078 C 
ATOM     34  H   UNL     1      -1.305  -0.054  -2.091  0.00  0.00    -0.081 HD
BRANCH  28  36
ATOM     35  C   UNL     1       0.428   1.415  -3.437  0.00  0.00    -0.014 C 
ATOM     36  C   UNL     1       0.422  -0.092  -3.176  0.00  0.00    -0.075 C 
ATOM     37  C   UNL     1       1.308  -0.404  -1.968  0.00  0.00    -0.014 C 
ENDBRANCH  28  36
ENDBRANCH  27  31
ENDBRANCH  23  27
ENDBRANCH   1  24
TORSDOF 7
