REMARK  Name = ZINC36573891
REMARK  13 active torsions:
REMARK  status: ('A' for Active; 'I' for Inactive)
REMARK    1  A    between atoms: C_1  and  C_2
REMARK    2  A    between atoms: C_2  and  C_3
REMARK    3  A    between atoms: C_3  and  C_4
REMARK    4  A    between atoms: N_6  and  C_7
REMARK    5  A    between atoms: N_6  and  C_10
REMARK    6  A    between atoms: C_7  and  C_8
REMARK    7  A    between atoms: C_8  and  C_9
REMARK    8  A    between atoms: C_10  and  C_12
REMARK    9  A    between atoms: C_10  and  C_21
REMARK   10  A    between atoms: C_13  and  O_20
REMARK   11  A    between atoms: C_15  and  O_19
REMARK   12  A    between atoms: C_17  and  O_18
REMARK   13  A    between atoms: N_23  and  C_24
REMARK                            x       y       z     vdW  Elec       q    Type
REMARK                         _______ _______ _______ _____ _____    ______ ____
ROOT
ATOM      1  C   UNL     1       1.397  -4.156   2.126  0.00  0.00    +0.199 C 
ENDROOT
BRANCH   1   2
ATOM      2  C   UNL     1       0.785  -4.296   3.496  0.00  0.00    +0.065 A 
ATOM      3  C   UNL     1       1.397  -5.096   4.450  0.00  0.00    +0.129 A 
ATOM      4  C   UNL     1       0.835  -5.224   5.711  0.00  0.00    +0.091 A 
ATOM      5  C   UNL     1      -0.339  -4.552   6.018  0.00  0.00    +0.124 A 
ATOM      6  C   UNL     1      -0.950  -3.752   5.065  0.00  0.00    +0.091 A 
ATOM      7  C   UNL     1      -0.385  -3.620   3.805  0.00  0.00    +0.129 A 
BRANCH   7   8
ATOM      8  O   UNL     1      -0.981  -2.832   2.873  0.00  0.00    -0.506 OA
ATOM      9  H   UNL     1      -1.627  -3.294   2.321  0.00  0.00    +0.292 HD
ENDBRANCH   7   8
BRANCH   5  10
ATOM     10  O   UNL     1      -0.890  -4.679   7.254  0.00  0.00    -0.507 OA
ATOM     11  H   UNL     1      -0.580  -4.022   7.892  0.00  0.00    +0.292 HD
ENDBRANCH   5  10
BRANCH   3  12
ATOM     12  O   UNL     1       2.547  -5.754   4.148  0.00  0.00    -0.506 OA
ATOM     13  H   UNL     1       3.350  -5.288   4.420  0.00  0.00    +0.292 HD
ENDBRANCH   3  12
ENDBRANCH   1   2
BRANCH   1  14
ATOM     14  C   UNL     1       2.789  -4.731   2.136  0.00  0.00    +0.239 C 
ATOM     15  O   UNL     1       3.737  -4.021   2.397  0.00  0.00    -0.273 OA
ATOM     16  N   UNL     1       2.982  -6.035   1.854  0.00  0.00    -0.311 N 
ATOM     17  H   UNL     1       2.233  -6.589   1.584  0.00  0.00    +0.149 HD
BRANCH  16  18
ATOM     18  C   UNL     1       4.323  -6.616   1.956  0.00  0.00    +0.073 C 
ATOM     19  C   UNL     1       5.085  -6.373   0.651  0.00  0.00    +0.022 C 
ATOM     20  C   UNL     1       6.486  -6.979   0.758  0.00  0.00    +0.002 C 
ATOM     21  C   UNL     1       6.372  -8.484   1.009  0.00  0.00    +0.000 C 
ATOM     22  C   UNL     1       5.610  -8.728   2.313  0.00  0.00    +0.002 C 
ATOM     23  C   UNL     1       4.209  -8.121   2.207  0.00  0.00    +0.022 C 
ENDBRANCH  16  18
ENDBRANCH   1  14
BRANCH   1  26
ATOM     24  C   UNL     1       0.832  -2.304   0.647  0.00  0.00    +0.216 C 
ATOM     25  O   UNL     1       0.222  -3.085  -0.051  0.00  0.00    -0.276 OA
ATOM     26  N   UNL     1       1.456  -2.739   1.759  0.00  0.00    -0.286 N 
BRANCH  24  27
ATOM     27  C   UNL     1       0.893  -0.846   0.270  0.00  0.00    +0.096 C 
BRANCH  27  29
ATOM     28  C   UNL     1       0.171   0.860  -1.407  0.00  0.00    +0.004 C 
ATOM     29  C   UNL     1       0.109  -0.620  -1.024  0.00  0.00    +0.006 C 
ENDBRANCH  27  29
ENDBRANCH  24  27
BRANCH  26  30
ATOM     30  C   UNL     1       2.194  -1.795   2.603  0.00  0.00    +0.108 C 
BRANCH  30  31
ATOM     31  C   UNL     1       1.224  -1.103   3.562  0.00  0.00    +0.016 C 
ATOM     32  C   UNL     1       1.967  -0.018   4.345  0.00  0.00    +0.005 C 
ENDBRANCH  30  31
ENDBRANCH  26  30
ENDBRANCH   1  26
TORSDOF 11
