REMARK  Name = ZINC66404105
REMARK  6 active torsions:
REMARK  status: ('A' for Active; 'I' for Inactive)
REMARK    1  A    between atoms: C_1  and  C_2
REMARK    2  A    between atoms: C_7  and  C_8
REMARK    3  A    between atoms: C_8  and  C_10
REMARK    4  A    between atoms: C_8  and  N_12
REMARK    5  A    between atoms: C_13  and  C_15
REMARK    6  A    between atoms: C_18  and  C_21
REMARK                            x       y       z     vdW  Elec       q    Type
REMARK                         _______ _______ _______ _____ _____    ______ ____
ROOT
ATOM      1  N   UNL     1      -0.537  -0.808   3.554  0.00  0.00    -0.291 N 
ATOM      2  C   UNL     1      -1.190  -0.255   4.595  0.00  0.00    +0.263 C 
ATOM      3  O   UNL     1      -1.312   0.953   4.663  0.00  0.00    -0.269 OA
ATOM      4  H   UNL     1      -0.440  -1.772   3.500  0.00  0.00    +0.151 HD
ENDROOT
BRANCH   2   5
ATOM      5  C   UNL     1      -1.756  -1.115   5.653  0.00  0.00    +0.145 C 
ATOM      6  N   UNL     1      -1.688  -2.402   5.697  0.00  0.00    -0.084 NA
ATOM      7  O   UNL     1      -2.332  -2.948   6.831  0.00  0.00    -0.385 OA
ATOM      8  C   UNL     1      -2.504  -1.884   7.789  0.00  0.00    +0.240 C 
ATOM      9  C   UNL     1      -2.512  -0.635   6.877  0.00  0.00    +0.116 C 
BRANCH   8  10
ATOM     10  C   UNL     1      -3.811  -2.027   8.526  0.00  0.00    -0.004 A 
ATOM     11  C   UNL     1      -4.913  -2.557   7.882  0.00  0.00    +0.007 A 
ATOM     12  C   UNL     1      -6.111  -2.689   8.559  0.00  0.00    +0.000 A 
ATOM     13  C   UNL     1      -6.207  -2.291   9.879  0.00  0.00    +0.000 A 
ATOM     14  C   UNL     1      -5.104  -1.762  10.524  0.00  0.00    +0.000 A 
ATOM     15  C   UNL     1      -3.905  -1.635   9.848  0.00  0.00    +0.007 A 
ENDBRANCH   8  10
ENDBRANCH   2   5
BRANCH   1  16
ATOM     16  C   UNL     1       0.025   0.045   2.504  0.00  0.00    +0.207 C 
BRANCH  16  23
ATOM     17  C   UNL     1      -0.096   1.486   0.003  0.00  0.00    +0.044 C 
ATOM     18  C   UNL     1      -0.017  -0.019   0.003  0.00  0.00    -0.045 A 
ATOM     19  C   UNL     1       0.003  -0.710  -1.195  0.00  0.00    +0.004 A 
ATOM     20  C   UNL     1       0.076  -2.090  -1.195  0.00  0.00    +0.000 A 
ATOM     21  C   UNL     1       0.129  -2.780   0.002  0.00  0.00    +0.000 A 
ATOM     22  C   UNL     1       0.110  -2.089   1.199  0.00  0.00    +0.007 A 
ATOM     23  C   UNL     1       0.041  -0.709   1.199  0.00  0.00    -0.010 A 
ENDBRANCH  16  23
BRANCH  16  24
ATOM     24  C   UNL     1       1.400   0.428   2.867  0.00  0.00    +0.090 C 
ATOM     25  N   UNL     1       2.460   0.723   3.147  0.00  0.00    -0.194 NA
ENDBRANCH  16  24
ENDBRANCH   1  16
TORSDOF 5
