REMARK  Name = ZINC39711063
REMARK  13 active torsions:
REMARK  status: ('A' for Active; 'I' for Inactive)
REMARK    1  A    between atoms: C_1  and  C_2
REMARK    2  A    between atoms: C_4  and  C_41
REMARK    3  A    between atoms: C_9  and  C_14
REMARK    4  A    between atoms: C_14  and  C_16
REMARK    5  A    between atoms: C_14  and  N_26
REMARK    6  A    between atoms: N_21  and  C_22
REMARK    7  A    between atoms: C_22  and  C_23
REMARK    8  A    between atoms: C_22  and  C_24
REMARK    9  A    between atoms: C_22  and  C_25
REMARK   10  A    between atoms: N_26  and  C_27
REMARK   11  A    between atoms: N_26  and  C_35
REMARK   12  A    between atoms: C_27  and  C_28
REMARK   13  A    between atoms: C_35  and  C_36
REMARK                            x       y       z     vdW  Elec       q    Type
REMARK                         _______ _______ _______ _____ _____    ______ ____
ROOT
ATOM      1  C   UNL     1      -1.009  -4.285   3.231  0.00  0.00    -0.010 C 
ENDROOT
BRANCH   1  10
ATOM      2  C   UNL     1       3.253  -0.452   7.491  0.00  0.00    +0.044 C 
ATOM      3  C   UNL     1       1.972  -0.698   6.737  0.00  0.00    -0.050 A 
ATOM      4  C   UNL     1       0.805  -0.049   7.144  0.00  0.00    +0.008 A 
ATOM      5  C   UNL     1      -0.386  -0.220   6.514  0.00  0.00    -0.028 A 
ATOM      6  C   UNL     1      -0.490  -1.077   5.404  0.00  0.00    +0.043 A 
ATOM      7  N   UNL     1      -1.665  -1.237   4.793  0.00  0.00    -0.284 N 
ATOM      8  C   UNL     1      -1.833  -2.026   3.746  0.00  0.00    +0.223 C 
ATOM      9  O   UNL     1      -2.929  -2.132   3.230  0.00  0.00    -0.275 OA
ATOM     10  C   UNL     1      -0.656  -2.797   3.191  0.00  0.00    +0.088 C 
ATOM     11  C   UNL     1       0.682  -2.618   3.881  0.00  0.00    -0.006 C 
ATOM     12  C   UNL     1       0.725  -1.776   4.952  0.00  0.00    -0.007 A 
ATOM     13  C   UNL     1       1.977  -1.541   5.673  0.00  0.00    +0.012 A 
ATOM     14  C   UNL     1      -1.606   0.514   7.010  0.00  0.00    +0.046 C 
ATOM     15  H   UNL     1      -2.432  -0.751   5.134  0.00  0.00    +0.155 HD
ENDBRANCH   1  10
BRANCH   1  16
ATOM     16  C   UNL     1      -1.078  -4.755   4.686  0.00  0.00    +0.183 C 
ATOM     17  N   UNL     1       0.254  -5.172   5.163  0.00  0.00    -0.229 N 
ATOM     18  N   UNL     1       0.136  -6.527   5.492  0.00  0.00    -0.064 NA
ATOM     19  N   UNL     1      -0.995  -6.965   5.298  0.00  0.00    -0.061 NA
ATOM     20  N   UNL     1      -1.875  -5.991   4.798  0.00  0.00    -0.211 N 
ATOM     21  H   UNL     1       1.049  -4.620   5.234  0.00  0.00    +0.172 HD
BRANCH  20  22
ATOM     22  C   UNL     1      -3.289  -6.163   4.459  0.00  0.00    +0.047 C 
ATOM     23  C   UNL     1      -3.433  -6.337   2.945  0.00  0.00    +0.033 C 
ATOM     24  C   UNL     1      -3.837  -7.403   5.168  0.00  0.00    +0.033 C 
ATOM     25  C   UNL     1      -4.075  -4.930   4.907  0.00  0.00    +0.033 C 
ENDBRANCH  20  22
ENDBRANCH   1  16
BRANCH   1  26
ATOM     26  N   UNL     1       0.021  -5.052   2.518  0.00  0.00    +0.392 N 
ATOM     27  H   UNL     1       0.919  -4.894   2.951  0.00  0.00    -0.080 HD
BRANCH  26  28
ATOM     28  C   UNL     1      -0.305  -6.483   2.575  0.00  0.00    -0.040 C 
BRANCH  28  29
ATOM     29  C   UNL     1       0.713  -7.263   1.785  0.00  0.00    -0.046 A 
ATOM     30  C   UNL     1       0.370  -7.805   0.560  0.00  0.00    +0.003 A 
ATOM     31  C   UNL     1       1.304  -8.520  -0.166  0.00  0.00    +0.000 A 
ATOM     32  C   UNL     1       2.582  -8.695   0.333  0.00  0.00    +0.001 A 
ATOM     33  C   UNL     1       2.926  -8.154   1.557  0.00  0.00    +0.020 A 
ATOM     34  C   UNL     1       1.993  -7.433   2.281  0.00  0.00    +0.042 A 
ATOM     35 CL   UNL     1       2.426  -6.747   3.816  0.00  0.00    -0.083 Cl
ENDBRANCH  28  29
ENDBRANCH  26  28
BRANCH  26  36
ATOM     36  C   UNL     1       0.072  -4.618   1.115  0.00  0.00    -0.002 C 
BRANCH  36  37
ATOM     37  C   UNL     1       1.114  -3.540   0.960  0.00  0.00    +0.089 A 
ATOM     38  C   UNL     1       2.440  -3.737   0.853  0.00  0.00    +0.042 A 
ATOM     39  C   UNL     1       3.035  -2.461   0.727  0.00  0.00    +0.041 A 
ATOM     40  C   UNL     1       2.037  -1.560   0.764  0.00  0.00    +0.195 A 
ATOM     41  O   UNL     1       0.875  -2.220   0.900  0.00  0.00    -0.470 OA
ENDBRANCH  36  37
ENDBRANCH  26  36
ENDBRANCH   1  26
TORSDOF 8
