REMARK  Name = ZINC07597692
REMARK  8 active torsions:
REMARK  status: ('A' for Active; 'I' for Inactive)
REMARK    1  A    between atoms: C_1  and  C_2
REMARK    2  A    between atoms: C_5  and  N_16
REMARK    3  A    between atoms: C_6  and  C_8
REMARK    4  A    between atoms: C_8  and  C_10
REMARK    5  A    between atoms: C_17  and  C_19
REMARK    6  A    between atoms: C_19  and  C_20
REMARK    7  A    between atoms: C_23  and  S_26
REMARK    8  A    between atoms: S_26  and  C_27
REMARK                            x       y       z     vdW  Elec       q    Type
REMARK                         _______ _______ _______ _____ _____    ______ ____
ROOT
ATOM      1  C   UNL     1       3.607  -1.020   0.314  0.00  0.00    +0.044 C 
ATOM      2  C   UNL     1       2.370  -0.173   0.162  0.00  0.00    -0.050 A 
ATOM      3  C   UNL     1       2.484   1.206   0.077  0.00  0.00    +0.005 A 
ATOM      4  C   UNL     1       1.359   1.993  -0.062  0.00  0.00    +0.024 A 
ATOM      5  C   UNL     1       0.101   1.406  -0.117  0.00  0.00    +0.044 A 
ATOM      6  C   UNL     1      -0.018   0.010  -0.032  0.00  0.00    +0.044 A 
ATOM      7  C   UNL     1       1.131  -0.773   0.109  0.00  0.00    +0.017 A 
ENDROOT
BRANCH   5   8
ATOM      8  N   UNL     1      -1.034   2.198  -0.264  0.00  0.00    -0.285 N 
ATOM      9  C   UNL     1      -0.944   3.402  -0.862  0.00  0.00    +0.222 C 
ATOM     10  O   UNL     1       0.138   3.831  -1.202  0.00  0.00    -0.275 OA
ATOM     11  H   UNL     1      -1.891   1.883   0.066  0.00  0.00    +0.155 HD
BRANCH   9  12
ATOM     12  C   UNL     1      -2.188   4.216  -1.109  0.00  0.00    +0.131 C 
BRANCH  12  13
ATOM     13  C   UNL     1      -1.816   5.510  -1.786  0.00  0.00    -0.039 A 
ATOM     14  C   UNL     1      -1.521   6.627  -1.025  0.00  0.00    +0.005 A 
ATOM     15  C   UNL     1      -1.174   7.813  -1.641  0.00  0.00    +0.015 A 
ATOM     16  C   UNL     1      -1.132   7.886  -3.029  0.00  0.00    +0.008 A 
ATOM     17  C   UNL     1      -1.434   6.764  -3.790  0.00  0.00    +0.015 A 
ATOM     18  C   UNL     1      -1.775   5.580  -3.167  0.00  0.00    +0.005 A 
BRANCH  16  19
ATOM     19  S   UNL     1      -0.696   9.399  -3.820  0.00  0.00    -0.129 S 
ATOM     20  C   UNL     1      -0.397  10.544  -2.445  0.00  0.00    +0.090 C 
ENDBRANCH  16  19
ENDBRANCH  12  13
ENDBRANCH   9  12
ENDBRANCH   5   8
BRANCH   6  21
ATOM     21  C   UNL     1      -1.347  -0.625  -0.089  0.00  0.00    +0.195 C 
ATOM     22  O   UNL     1      -1.860  -1.055   0.926  0.00  0.00    -0.287 OA
BRANCH  21  23
ATOM     23  C   UNL     1      -2.056  -0.741  -1.381  0.00  0.00    +0.022 A 
ATOM     24  C   UNL     1      -1.429  -0.342  -2.563  0.00  0.00    +0.012 A 
ATOM     25  C   UNL     1      -2.094  -0.457  -3.766  0.00  0.00    +0.001 A 
ATOM     26  C   UNL     1      -3.385  -0.956  -3.801  0.00  0.00    +0.000 A 
ATOM     27  C   UNL     1      -4.014  -1.347  -2.632  0.00  0.00    +0.001 A 
ATOM     28  C   UNL     1      -3.358  -1.243  -1.424  0.00  0.00    +0.012 A 
ENDBRANCH  21  23
ENDBRANCH   6  21
TORSDOF 6
