REMARK  Name = ZINC07345932
REMARK  8 active torsions:
REMARK  status: ('A' for Active; 'I' for Inactive)
REMARK    1  A    between atoms: C_1  and  C_2
REMARK    2  A    between atoms: C_5  and  N_8
REMARK    3  A    between atoms: C_22  and  S_23
REMARK    4  A    between atoms: S_23  and  C_24
REMARK    5  A    between atoms: C_24  and  C_26
REMARK    6  A    between atoms: C_24  and  C_27
REMARK    7  A    between atoms: C_27  and  O_29
REMARK    8  A    between atoms: O_29  and  C_30
REMARK                            x       y       z     vdW  Elec       q    Type
REMARK                         _______ _______ _______ _____ _____    ______ ____
ROOT
ATOM      1  N   UNL     1       3.364   2.532  -0.015  0.00  0.00    -0.254 N 
ATOM      2  C   UNL     1       2.540   1.704   0.662  0.00  0.00    +0.283 A 
ATOM      3  O   UNL     1       2.983   0.740   1.264  0.00  0.00    -0.265 OA
ATOM      4  C   UNL     1       1.156   1.977   0.659  0.00  0.00    +0.132 A 
ATOM      5  C   UNL     1       0.700   3.091  -0.045  0.00  0.00    +0.104 A 
ATOM      6  C   UNL     1      -0.759   3.124   0.127  0.00  0.00    +0.026 A 
ATOM      7  C   UNL     1      -1.761   3.982  -0.328  0.00  0.00    +0.012 A 
ATOM      8  C   UNL     1      -3.064   3.746   0.007  0.00  0.00    +0.001 A 
ATOM      9  C   UNL     1      -3.400   2.657   0.799  0.00  0.00    +0.002 A 
ATOM     10  C   UNL     1      -2.428   1.797   1.259  0.00  0.00    +0.026 A 
ATOM     11  C   UNL     1      -1.093   2.017   0.925  0.00  0.00    +0.049 A 
ATOM     12  N   UNL     1       0.068   1.343   1.238  0.00  0.00    -0.349 N 
ATOM     13  H   UNL     1       0.117   0.541   1.782  0.00  0.00    +0.166 HD
ATOM     14  N   UNL     1       1.574   3.874  -0.699  0.00  0.00    -0.221 NA
ATOM     15  C   UNL     1       2.861   3.609  -0.687  0.00  0.00    +0.178 A 
ENDROOT
BRANCH   1  20
ATOM     16  C   UNL     1       8.950   1.530  -0.068  0.00  0.00    +0.044 C 
ATOM     17  C   UNL     1       7.466   1.796  -0.053  0.00  0.00    -0.050 A 
ATOM     18  C   UNL     1       6.657   1.246  -1.031  0.00  0.00    +0.005 A 
ATOM     19  C   UNL     1       5.298   1.488  -1.021  0.00  0.00    +0.026 A 
ATOM     20  C   UNL     1       4.743   2.285  -0.028  0.00  0.00    +0.052 A 
ATOM     21  C   UNL     1       5.559   2.840   0.949  0.00  0.00    +0.026 A 
ATOM     22  C   UNL     1       6.917   2.590   0.937  0.00  0.00    +0.005 A 
ENDBRANCH   1  20
BRANCH  15  23
ATOM     23  S   UNL     1       3.964   4.670  -1.562  0.00  0.00    -0.073 S 
BRANCH  23  24
ATOM     24  C   UNL     1       2.784   5.869  -2.229  0.00  0.00    +0.160 C 
ATOM     25  C   UNL     1       2.136   6.642  -1.078  0.00  0.00    +0.031 C 
BRANCH  24  26
ATOM     26  C   UNL     1       3.506   6.832  -3.136  0.00  0.00    +0.320 C 
ATOM     27  O   UNL     1       4.703   6.965  -3.047  0.00  0.00    -0.250 OA
BRANCH  26  28
ATOM     28  O   UNL     1       2.818   7.542  -4.044  0.00  0.00    -0.467 OA
ATOM     29  C   UNL     1       3.578   8.450  -4.885  0.00  0.00    +0.280 C 
ENDBRANCH  26  28
ENDBRANCH  24  26
ENDBRANCH  23  24
ENDBRANCH  15  23
TORSDOF 5
