REMARK  Name = ZINC57977133
REMARK  12 active torsions:
REMARK  status: ('A' for Active; 'I' for Inactive)
REMARK    1  A    between atoms: C_1  and  C_2
REMARK    2  A    between atoms: C_2  and  C_3
REMARK    3  A    between atoms: C_3  and  C_4
REMARK    4  A    between atoms: C_4  and  N_5
REMARK    5  A    between atoms: N_5  and  C_6
REMARK    6  A    between atoms: C_6  and  C_7
REMARK    7  A    between atoms: C_8  and  C_10
REMARK    8  A    between atoms: C_10  and  N_11
REMARK    9  A    between atoms: N_11  and  C_12
REMARK   10  A    between atoms: N_11  and  C_13
REMARK   11  A    between atoms: C_13  and  C_15
REMARK   12  A    between atoms: C_13  and  C_16
REMARK                            x       y       z     vdW  Elec       q    Type
REMARK                         _______ _______ _______ _____ _____    ______ ____
ROOT
ATOM      1  C   UNL     1       3.531  -3.232   3.594  0.00  0.00    +0.019 C 
ENDROOT
BRANCH   1   3
ATOM      2  N   UNL     1       1.471  -2.526   2.420  0.00  0.00    -0.303 N 
ATOM      3  C   UNL     1       2.802  -2.732   2.373  0.00  0.00    +0.199 C 
ATOM      4  O   UNL     1       3.414  -2.516   1.348  0.00  0.00    -0.278 OA
BRANCH   2   5
ATOM      5  C   UNL     1       0.733  -2.787   3.658  0.00  0.00    +0.104 C 
ATOM      6  C   UNL     1       0.250  -4.239   3.668  0.00  0.00    +0.024 C 
ENDBRANCH   2   5
BRANCH   2   7
ATOM      7  C   UNL     1       0.763  -2.041   1.233  0.00  0.00    +0.107 C 
BRANCH   7   8
ATOM      8  C   UNL     1       0.742  -0.511   1.242  0.00  0.00    +0.019 C 
BRANCH   8  10
ATOM      9  C   UNL     1      -0.019   1.526   0.010  0.00  0.00    +0.004 C 
ATOM     10  C   UNL     1       0.002  -0.004   0.002  0.00  0.00    -0.002 C 
ENDBRANCH   8  10
ENDBRANCH   7   8
ENDBRANCH   2   7
ENDBRANCH   1   3
BRANCH   1  11
ATOM     11  N   UNL     1       4.961  -3.374   3.287  0.00  0.00    +0.388 N 
ATOM     12  C   UNL     1       5.142  -4.420   2.271  0.00  0.00    -0.095 C 
ATOM     13  H   UNL     1       5.318  -2.498   2.935  0.00  0.00    -0.081 HD
BRANCH  11  14
ATOM     14  C   UNL     1       5.689  -3.745   4.507  0.00  0.00    -0.034 C 
ATOM     15  C   UNL     1       7.178  -3.893   4.187  0.00  0.00    -0.008 C 
BRANCH  14  16
ATOM     16  C   UNL     1       5.504  -2.672   5.549  0.00  0.00    -0.024 A 
ATOM     17  C   UNL     1       5.313  -2.803   6.884  0.00  0.00    +0.009 A 
ATOM     18  C   UNL     1       5.166  -1.665   7.655  0.00  0.00    +0.008 A 
ATOM     19  C   UNL     1       5.216  -0.452   7.052  0.00  0.00    +0.045 A 
ATOM     20  S   UNL     1       5.485  -0.898   5.345  0.00  0.00    -0.103 S 
ENDBRANCH  14  16
ENDBRANCH  11  14
ENDBRANCH   1  11
TORSDOF 8
