REMARK  Name = ZINC44713572
REMARK  4 active torsions:
REMARK  status: ('A' for Active; 'I' for Inactive)
REMARK    1  A    between atoms: C_8  and  C_11
REMARK    2  A    between atoms: C_11  and  N_12
REMARK    3  A    between atoms: C_13  and  C_15
REMARK    4  A    between atoms: C_26  and  C_28
REMARK                            x       y       z     vdW  Elec       q    Type
REMARK                         _______ _______ _______ _____ _____    ______ ____
ROOT
ATOM      1  C   UNL     1       5.221  -5.181  -3.196  0.00  0.00    +0.100 C 
ATOM      2  C   UNL     1       6.008  -4.004  -3.814  0.00  0.00    +0.121 C 
ATOM      3  N   UNL     1       7.432  -4.359  -3.614  0.00  0.00    -0.297 N 
ATOM      4  C   UNL     1       7.487  -5.819  -3.869  0.00  0.00    +0.115 C 
ATOM      5  C   UNL     1       6.194  -6.371  -3.237  0.00  0.00    -0.004 C 
ATOM      6  C   UNL     1       5.622  -7.492  -4.099  0.00  0.00    -0.010 C 
ATOM      7  C   UNL     1       6.580  -8.687  -4.077  0.00  0.00    -0.082 C 
ATOM      8  N   UNL     1       6.758  -9.148  -2.695  0.00  0.00    +0.379 N 
ATOM      9  C   UNL     1       7.395  -8.095  -1.894  0.00  0.00    -0.082 C 
ATOM     10  C   UNL     1       6.472  -6.876  -1.824  0.00  0.00    -0.010 C 
ATOM     11  C   UNL     1       8.448  -3.541  -3.277  0.00  0.00    +0.260 C 
ATOM     12  O   UNL     1       8.227  -2.380  -3.006  0.00  0.00    -0.271 OA
ATOM     13  H   UNL     1       5.858  -9.373  -2.298  0.00  0.00    -0.086 HD
ATOM     14  H   UNL     1       7.341  -9.972  -2.689  0.00  0.00    -0.086 HD
ENDROOT
BRANCH  11  15
ATOM     15  C   UNL     1       9.860  -4.068  -3.238  0.00  0.00    +0.296 C 
ATOM     16  C   UNL     1      10.334  -4.385  -4.662  0.00  0.00    +0.283 C 
ATOM     17  O   UNL     1      11.679  -4.869  -4.590  0.00  0.00    -0.484 OA
ATOM     18  C   UNL     1      12.541  -4.166  -3.805  0.00  0.00    +0.162 A 
ATOM     19  C   UNL     1      13.907  -4.345  -3.964  0.00  0.00    +0.049 A 
ATOM     20  C   UNL     1      14.794  -3.640  -3.173  0.00  0.00    +0.004 A 
ATOM     21  C   UNL     1      14.323  -2.755  -2.222  0.00  0.00    +0.004 A 
ATOM     22  C   UNL     1      12.963  -2.571  -2.059  0.00  0.00    +0.049 A 
ATOM     23  C   UNL     1      12.067  -3.274  -2.851  0.00  0.00    +0.163 A 
ATOM     24  O   UNL     1      10.731  -3.076  -2.684  0.00  0.00    -0.473 OA
ENDBRANCH  11  15
BRANCH   1  26
ATOM     25  N   UNL     1       3.712  -5.390  -1.247  0.00  0.00    -0.309 N 
ATOM     26  C   UNL     1       4.837  -4.866  -1.773  0.00  0.00    +0.219 C 
ATOM     27  O   UNL     1       5.540  -4.141  -1.102  0.00  0.00    -0.275 OA
ATOM     28  H   UNL     1       3.150  -5.970  -1.784  0.00  0.00    +0.149 HD
BRANCH  25  29
ATOM     29  C   UNL     1       3.339  -5.083   0.137  0.00  0.00    +0.157 C 
BRANCH  29  37
ATOM     30  C   UNL     1      -1.544  -8.347   1.729  0.00  0.00    +0.001 A 
ATOM     31  C   UNL     1      -2.228  -7.275   1.171  0.00  0.00    +0.002 A 
ATOM     32  C   UNL     1      -1.542  -6.207   0.636  0.00  0.00    +0.026 A 
ATOM     33  C   UNL     1      -0.151  -6.200   0.654  0.00  0.00    +0.047 A 
ATOM     34  C   UNL     1       0.537  -7.288   1.220  0.00  0.00    -0.000 A 
ATOM     35  C   UNL     1      -0.178  -8.361   1.757  0.00  0.00    +0.010 A 
ATOM     36  C   UNL     1       1.963  -6.981   1.085  0.00  0.00    +0.032 A 
ATOM     37  C   UNL     1       2.051  -5.788   0.477  0.00  0.00    +0.034 A 
ATOM     38  N   UNL     1       0.798  -5.306   0.212  0.00  0.00    -0.357 N 
ATOM     39  H   UNL     1       0.607  -4.460  -0.223  0.00  0.00    +0.166 HD
ENDBRANCH  29  37
ENDBRANCH  25  29
ENDBRANCH   1  26
TORSDOF 4
