REMARK  Name = ZINC21713662
REMARK  8 active torsions:
REMARK  status: ('A' for Active; 'I' for Inactive)
REMARK    1  A    between atoms: C_1  and  C_2
REMARK    2  A    between atoms: C_2  and  C_3
REMARK    3  A    between atoms: C_2  and  C_4
REMARK    4  A    between atoms: C_4  and  C_5
REMARK    5  A    between atoms: C_5  and  N_6
REMARK    6  A    between atoms: N_12  and  C_15
REMARK    7  A    between atoms: C_15  and  C_16
REMARK    8  A    between atoms: N_24  and  C_25
REMARK                            x       y       z     vdW  Elec       q    Type
REMARK                         _______ _______ _______ _____ _____    ______ ____
ROOT
ATOM      1  C   UNL     1      -1.470   3.600  -2.381  0.00  0.00    +0.159 C 
ENDROOT
BRANCH   1   8
ATOM      2  N   UNL     1      -1.599   1.180   3.336  0.00  0.00    -0.299 N 
ATOM      3  C   UNL     1      -1.054   0.710   2.197  0.00  0.00    +0.302 C 
ATOM      4  O   UNL     1      -0.872  -0.484   2.057  0.00  0.00    -0.253 OA
ATOM      5  N   UNL     1      -0.709   1.564   1.212  0.00  0.00    -0.283 N 
ATOM      6  C   UNL     1      -0.009   1.087   0.010  0.00  0.00    +0.124 C 
ATOM      7  C   UNL     1      -0.756   1.594  -1.228  0.00  0.00    +0.104 C 
ATOM      8  N   UNL     1      -0.913   3.052  -1.138  0.00  0.00    -0.292 NA
ATOM      9  C   UNL     1      -1.735   3.430   0.019  0.00  0.00    +0.104 C 
ATOM     10  C   UNL     1      -1.028   2.997   1.308  0.00  0.00    +0.124 C 
ATOM     11  H   UNL     1      -1.839   2.250   3.430  0.00  0.00    +0.150 HD
BRANCH   2  12
ATOM     12  C   UNL     1      -1.873   0.267   4.448  0.00  0.00    +0.106 C 
BRANCH  12  13
ATOM     13  C   UNL     1      -2.487   1.050   5.611  0.00  0.00    +0.022 C 
BRANCH  13  15
ATOM     14  C   UNL     1      -1.454  -0.461   7.312  0.00  0.00    +0.007 C 
ATOM     15  C   UNL     1      -2.773   0.096   6.772  0.00  0.00    -0.016 C 
ATOM     16  C   UNL     1      -3.501   0.852   7.886  0.00  0.00    +0.007 C 
ENDBRANCH  13  15
ENDBRANCH  12  13
ENDBRANCH   2  12
ENDBRANCH   1   8
BRANCH   1  17
ATOM     17  C   UNL     1      -1.388   5.104  -2.349  0.00  0.00    +0.131 A 
ATOM     18  N   UNL     1      -0.383   5.806  -2.785  0.00  0.00    -0.229 NA
ATOM     19  C   UNL     1      -0.639   7.126  -2.605  0.00  0.00    +0.109 A 
ATOM     20  C   UNL     1       0.073   8.297  -2.884  0.00  0.00    +0.033 A 
ATOM     21  C   UNL     1      -0.509   9.507  -2.557  0.00  0.00    +0.022 A 
ATOM     22  C   UNL     1      -1.765   9.526  -1.971  0.00  0.00    +0.113 A 
ATOM     23  N   UNL     1      -2.419   8.411  -1.717  0.00  0.00    -0.235 NA
ATOM     24  C   UNL     1      -1.908   7.226  -2.009  0.00  0.00    +0.165 A 
ATOM     25  N   UNL     1      -2.359   5.929  -1.864  0.00  0.00    -0.280 N 
BRANCH  25  26
ATOM     26  C   UNL     1      -3.587   5.534  -1.317  0.00  0.00    +0.050 A 
ATOM     27  C   UNL     1      -4.533   4.902  -2.113  0.00  0.00    +0.026 A 
ATOM     28  C   UNL     1      -5.740   4.508  -1.569  0.00  0.00    +0.002 A 
ATOM     29  C   UNL     1      -6.012   4.754  -0.236  0.00  0.00    +0.000 A 
ATOM     30  C   UNL     1      -5.075   5.389   0.558  0.00  0.00    +0.002 A 
ATOM     31  C   UNL     1      -3.863   5.779   0.022  0.00  0.00    +0.026 A 
ENDBRANCH  25  26
ENDBRANCH   1  17
TORSDOF 6
