REMARK  Name = ZINC40010936
REMARK  10 active torsions:
REMARK  status: ('A' for Active; 'I' for Inactive)
REMARK    1  A    between atoms: C_1  and  C_2
REMARK    2  A    between atoms: C_4  and  C_33
REMARK    3  A    between atoms: C_9  and  C_14
REMARK    4  A    between atoms: C_18  and  O_31
REMARK    5  A    between atoms: C_19  and  O_29
REMARK    6  A    between atoms: N_24  and  C_25
REMARK    7  A    between atoms: C_25  and  N_27
REMARK    8  A    between atoms: N_27  and  C_28
REMARK    9  A    between atoms: O_29  and  C_30
REMARK   10  A    between atoms: O_31  and  C_32
REMARK                            x       y       z     vdW  Elec       q    Type
REMARK                         _______ _______ _______ _____ _____    ______ ____
ROOT
ATOM      1  C   UNL     1      -1.140  -4.897   2.941  0.00  0.00    +0.121 C 
ATOM      2  C   UNL     1      -1.121  -6.404   2.892  0.00  0.00    -0.019 A 
ATOM      3  C   UNL     1      -1.378  -7.014   1.671  0.00  0.00    +0.055 A 
ATOM      4  C   UNL     1      -1.365  -8.392   1.558  0.00  0.00    +0.162 A 
ATOM      5  C   UNL     1      -1.091  -9.171   2.678  0.00  0.00    +0.162 A 
ATOM      6  C   UNL     1      -0.840  -8.559   3.892  0.00  0.00    +0.053 A 
ATOM      7  C   UNL     1      -0.859  -7.173   4.004  0.00  0.00    -0.037 A 
ATOM      8  C   UNL     1      -0.603  -6.581   5.365  0.00  0.00    +0.054 C 
ATOM      9  C   UNL     1      -0.183  -5.117   5.251  0.00  0.00    +0.112 C 
ATOM     10  N   UNL     1      -1.122  -4.447   4.337  0.00  0.00    -0.304 N 
ENDROOT
BRANCH   1  19
ATOM     11  C   UNL     1       5.718  -4.795   4.933  0.00  0.00    +0.044 C 
ATOM     12  C   UNL     1       4.468  -4.162   4.379  0.00  0.00    -0.050 A 
ATOM     13  C   UNL     1       4.321  -2.776   4.436  0.00  0.00    +0.008 A 
ATOM     14  C   UNL     1       3.223  -2.135   3.957  0.00  0.00    -0.028 A 
ATOM     15  C   UNL     1       2.170  -2.861   3.373  0.00  0.00    +0.043 A 
ATOM     16  N   UNL     1       1.098  -2.221   2.906  0.00  0.00    -0.284 N 
ATOM     17  C   UNL     1       0.073  -2.842   2.345  0.00  0.00    +0.226 C 
ATOM     18  O   UNL     1      -0.878  -2.204   1.937  0.00  0.00    -0.275 OA
ATOM     19  C   UNL     1       0.090  -4.348   2.214  0.00  0.00    +0.123 C 
ATOM     20  C   UNL     1       1.307  -5.081   2.743  0.00  0.00    -0.003 C 
ATOM     21  C   UNL     1       2.298  -4.327   3.299  0.00  0.00    -0.006 A 
ATOM     22  C   UNL     1       3.510  -4.952   3.829  0.00  0.00    +0.012 A 
ATOM     23  C   UNL     1       3.133  -0.633   4.054  0.00  0.00    +0.046 C 
ATOM     24  H   UNL     1       1.068  -1.255   2.981  0.00  0.00    +0.155 HD
ENDBRANCH   1  19
BRANCH  10  25
ATOM     25  C   UNL     1      -1.932  -3.460   4.766  0.00  0.00    +0.133 C 
ATOM     26  S   UNL     1      -1.787  -2.868   6.366  0.00  0.00    -0.019 S 
BRANCH  25  27
ATOM     27  N   UNL     1      -2.857  -2.938   3.936  0.00  0.00    -0.329 N 
ATOM     28  C   UNL     1      -3.660  -1.790   4.363  0.00  0.00    +0.127 C 
ATOM     29  H   UNL     1      -2.991  -3.324   3.056  0.00  0.00    +0.147 HD
ENDBRANCH  25  27
ENDBRANCH  10  25
BRANCH   5  30
ATOM     30  O   UNL     1      -1.070 -10.527   2.580  0.00  0.00    -0.491 OA
ATOM     31  C   UNL     1      -0.781 -11.260   3.772  0.00  0.00    +0.277 C 
ENDBRANCH   5  30
BRANCH   4  32
ATOM     32  O   UNL     1      -1.620  -8.982   0.359  0.00  0.00    -0.491 OA
ATOM     33  C   UNL     1      -1.893  -8.118  -0.745  0.00  0.00    +0.277 C 
ENDBRANCH   4  32
TORSDOF 5
