REMARK  Name = ZINC33431976
REMARK  11 active torsions:
REMARK  status: ('A' for Active; 'I' for Inactive)
REMARK    1  A    between atoms: C_1  and  C_2
REMARK    2  A    between atoms: C_2  and  C_3
REMARK    3  A    between atoms: C_3  and  C_4
REMARK    4  A    between atoms: C_4  and  O_5
REMARK    5  A    between atoms: O_5  and  C_6
REMARK    6  A    between atoms: C_6  and  C_8
REMARK    7  A    between atoms: C_8  and  C_10
REMARK    8  A    between atoms: C_8  and  N_21
REMARK    9  A    between atoms: C_10  and  C_11
REMARK   10  A    between atoms: C_22  and  C_24
REMARK   11  A    between atoms: C_27  and  C_29
REMARK                            x       y       z     vdW  Elec       q    Type
REMARK                         _______ _______ _______ _____ _____    ______ ____
ROOT
ATOM      1  C   UNL     1       0.052   1.036  -4.890  0.00  0.00    +0.186 C 
ENDROOT
BRANCH   1   2
ATOM      2  N   UNL     1      -0.707   1.556  -6.031  0.00  0.00    -0.297 N 
ATOM      3  C   UNL     1      -0.099   1.735  -7.220  0.00  0.00    +0.264 C 
ATOM      4  O   UNL     1       1.081   1.465  -7.346  0.00  0.00    -0.268 OA
ATOM      5  H   UNL     1      -1.774   1.800  -5.916  0.00  0.00    +0.150 HD
BRANCH   3   6
ATOM      6  C   UNL     1      -0.861   2.257  -8.366  0.00  0.00    +0.133 A 
ATOM      7  C   UNL     1      -0.266   2.454  -9.586  0.00  0.00    +0.079 A 
ATOM      8  S   UNL     1      -1.593   3.059 -10.525  0.00  0.00    -0.081 S 
ATOM      9  C   UNL     1      -2.809   3.024  -9.289  0.00  0.00    +0.065 A 
ATOM     10  N   UNL     1      -2.155   2.561  -8.255  0.00  0.00    -0.241 NA
BRANCH   9  11
ATOM     11  C   UNL     1      -4.258   3.427  -9.383  0.00  0.00    -0.015 C 
ATOM     12  C   UNL     1      -5.066   2.356 -10.145  0.00  0.00    -0.011 C 
ATOM     13  C   UNL     1      -6.091   3.148 -10.983  0.00  0.00    -0.020 C 
ATOM     14  C   UNL     1      -5.815   4.632 -10.656  0.00  0.00    -0.082 C 
ATOM     15  N   UNL     1      -4.401   4.658 -10.201  0.00  0.00    +0.385 N 
ATOM     16  H   UNL     1      -4.184   5.539  -9.580  0.00  0.00    -0.085 HD
ATOM     17  H   UNL     1      -3.696   4.622 -11.045  0.00  0.00    -0.085 HD
ENDBRANCH   9  11
ENDBRANCH   3   6
ENDBRANCH   1   2
BRANCH   1  18
ATOM     18  C   UNL     1      -0.599   1.484  -3.607  0.00  0.00    +0.328 C 
ATOM     19  O   UNL     1      -1.595   2.168  -3.642  0.00  0.00    -0.249 OA
BRANCH  18  20
ATOM     20  O   UNL     1      -0.073   1.124  -2.426  0.00  0.00    -0.463 OA
BRANCH  20  21
ATOM     21  C   UNL     1      -0.753   1.593  -1.232  0.00  0.00    +0.232 C 
BRANCH  21  22
ATOM     22  C   UNL     1      -0.013   1.086   0.008  0.00  0.00    +0.041 C 
BRANCH  22  24
ATOM     23  C   UNL     1       0.011   1.072   2.506  0.00  0.00    +0.004 C 
ATOM     24  C   UNL     1      -0.729   1.579   1.267  0.00  0.00    -0.000 C 
ENDBRANCH  22  24
ENDBRANCH  21  22
ENDBRANCH  20  21
ENDBRANCH  18  20
ENDBRANCH   1  18
BRANCH   1  25
ATOM     25  C   UNL     1       0.071  -0.493  -4.945  0.00  0.00    +0.071 C 
BRANCH  25  26
ATOM     26  C   UNL     1       0.830  -0.943  -6.167  0.00  0.00    -0.020 A 
ATOM     27  C   UNL     1       0.304  -1.267  -7.359  0.00  0.00    +0.087 A 
ATOM     28  N   UNL     1       1.300  -1.623  -8.227  0.00  0.00    -0.360 N 
ATOM     29  H   UNL     1       1.053  -1.915  -9.258  0.00  0.00    +0.165 HD
ATOM     30  C   UNL     1       2.521  -1.544  -7.596  0.00  0.00    +0.047 A 
ATOM     31  C   UNL     1       2.280  -1.114  -6.278  0.00  0.00    +0.003 A 
ATOM     32  C   UNL     1       3.348  -0.943  -5.395  0.00  0.00    +0.010 A 
ATOM     33  C   UNL     1       4.623  -1.194  -5.816  0.00  0.00    +0.001 A 
ATOM     34  C   UNL     1       4.866  -1.619  -7.114  0.00  0.00    +0.002 A 
ATOM     35  C   UNL     1       3.828  -1.794  -8.002  0.00  0.00    +0.026 A 
ENDBRANCH  25  26
ENDBRANCH   1  25
TORSDOF 10
