REMARK  Name = ZINC06017616
REMARK  8 active torsions:
REMARK  status: ('A' for Active; 'I' for Inactive)
REMARK    1  A    between atoms: C_1  and  C_2
REMARK    2  A    between atoms: C_5  and  S_8
REMARK    3  A    between atoms: S_8  and  N_11
REMARK    4  A    between atoms: C_15  and  C_33
REMARK    5  A    between atoms: C_19  and  S_20
REMARK    6  A    between atoms: S_20  and  C_21
REMARK    7  A    between atoms: C_24  and  N_30
REMARK    8  A    between atoms: C_26  and  N_27
REMARK                            x       y       z     vdW  Elec       q    Type
REMARK                         _______ _______ _______ _____ _____    ______ ____
ROOT
ATOM      1  N   UNL     1      -2.570   3.519   0.359  0.00  0.00    -0.186 N 
ATOM      2  C   UNL     1      -1.238   3.138   0.339  0.00  0.00    +0.093 A 
ATOM      3  C   UNL     1      -0.041   3.818   0.502  0.00  0.00    +0.030 A 
ATOM      4  C   UNL     1       1.154   3.133   0.424  0.00  0.00    +0.005 A 
ATOM      5  C   UNL     1       1.167   1.767   0.184  0.00  0.00    -0.048 A 
ATOM      6  C   UNL     1      -0.013   1.075   0.020  0.00  0.00    +0.033 A 
ATOM      7  C   UNL     1      -1.231   1.755   0.090  0.00  0.00    +0.092 A 
ATOM      8  N   UNL     1      -2.527   1.362  -0.019  0.00  0.00    -0.220 NA
ATOM      9  C   UNL     1      -3.316   2.396   0.136  0.00  0.00    +0.195 A 
ATOM     10  C   UNL     1       2.481   1.034   0.103  0.00  0.00    +0.044 C 
ENDROOT
BRANCH   1  11
ATOM     11  S   UNL     1      -3.149   5.050   0.607  0.00  0.00    +0.086 S 
ATOM     12  O   UNL     1      -4.476   4.908   1.095  0.00  0.00    -0.148 OA
ATOM     13  O   UNL     1      -2.145   5.753   1.326  0.00  0.00    -0.148 OA
BRANCH  11  18
ATOM     14  C   UNL     1      -3.574   7.694  -4.800  0.00  0.00    +0.044 C 
ATOM     15  C   UNL     1      -3.468   7.035  -3.449  0.00  0.00    -0.050 A 
ATOM     16  C   UNL     1      -4.540   6.325  -2.940  0.00  0.00    +0.005 A 
ATOM     17  C   UNL     1      -4.443   5.719  -1.702  0.00  0.00    +0.029 A 
ATOM     18  C   UNL     1      -3.273   5.823  -0.972  0.00  0.00    +0.111 A 
ATOM     19  C   UNL     1      -2.203   6.537  -1.478  0.00  0.00    +0.029 A 
ATOM     20  C   UNL     1      -2.299   7.139  -2.718  0.00  0.00    +0.005 A 
ENDBRANCH  11  18
ENDBRANCH   1  11
BRANCH   9  21
ATOM     21  S   UNL     1      -5.076   2.348   0.064  0.00  0.00    -0.048 S 
BRANCH  21  22
ATOM     22  C   UNL     1      -5.328   0.611  -0.093  0.00  0.00    +0.046 A 
ATOM     23  C   UNL     1      -5.648   0.062  -1.328  0.00  0.00    +0.019 A 
ATOM     24  C   UNL     1      -5.840  -1.300  -1.448  0.00  0.00    +0.034 A 
ATOM     25  C   UNL     1      -5.724  -2.117  -0.338  0.00  0.00    +0.128 A 
ATOM     26  C   UNL     1      -5.410  -1.573   0.894  0.00  0.00    +0.066 A 
ATOM     27  C   UNL     1      -5.212  -0.212   1.020  0.00  0.00    +0.142 A 
BRANCH  27  28
ATOM     28  N   UNL     1      -4.876   0.368   2.340  0.00  0.00    +0.058 N 
ATOM     29  O   UNL     1      -4.774  -0.354   3.315  0.00  0.00    -0.126 OA
ATOM     30  O   UNL     1      -4.701   1.569   2.450  0.00  0.00    -0.126 OA
ENDBRANCH  27  28
BRANCH  25  31
ATOM     31  N   UNL     1      -5.936  -3.576  -0.469  0.00  0.00    +0.056 N 
ATOM     32  O   UNL     1      -5.835  -4.296   0.507  0.00  0.00    -0.126 OA
ATOM     33  O   UNL     1      -6.213  -4.056  -1.554  0.00  0.00    -0.126 OA
ENDBRANCH  25  31
ENDBRANCH  21  22
ENDBRANCH   9  21
TORSDOF 6
