REMARK  Name = ZINC40336786
REMARK  6 active torsions:
REMARK  status: ('A' for Active; 'I' for Inactive)
REMARK    1  A    between atoms: C_1  and  C_2
REMARK    2  A    between atoms: C_2  and  C_3
REMARK    3  A    between atoms: C_6  and  C_9
REMARK    4  A    between atoms: C_12  and  C_30
REMARK    5  A    between atoms: N_19  and  C_20
REMARK    6  A    between atoms: C_20  and  C_21
REMARK                            x       y       z     vdW  Elec       q    Type
REMARK                         _______ _______ _______ _____ _____    ______ ____
ROOT
ATOM      1  C   UNL     1       2.797  -1.919   4.683  0.00  0.00    +0.142 C 
ATOM      2  C   UNL     1       3.029  -0.788   5.647  0.00  0.00    +0.035 A 
ATOM      3  C   UNL     1       3.619   0.459   5.883  0.00  0.00    +0.099 A 
ATOM      4  N   UNL     1       3.316   0.812   7.117  0.00  0.00    -0.173 NA
ATOM      5  N   UNL     1       2.593  -0.088   7.683  0.00  0.00    -0.272 N 
ATOM      6  H   UNL     1       2.255  -0.041   8.591  0.00  0.00    +0.189 HD
ATOM      7  C   UNL     1       2.375  -1.122   6.817  0.00  0.00    +0.126 A 
ATOM      8  C   UNL     1       1.731  -2.428   6.636  0.00  0.00    +0.266 C 
ATOM      9  O   UNL     1       1.075  -3.003   7.483  0.00  0.00    -0.268 OA
ATOM     10  N   UNL     1       1.971  -2.901   5.398  0.00  0.00    -0.281 N 
ENDROOT
BRANCH   1  14
ATOM     11  C   UNL     1       0.731  -0.503   1.223  0.00  0.00    -0.048 A 
ATOM     12  C   UNL     1       2.097  -0.710   1.176  0.00  0.00    +0.004 A 
ATOM     13  C   UNL     1       2.766  -1.167   2.296  0.00  0.00    +0.006 A 
ATOM     14  C   UNL     1       2.068  -1.419   3.463  0.00  0.00    -0.022 A 
ATOM     15  C   UNL     1       0.702  -1.212   3.510  0.00  0.00    +0.006 A 
ATOM     16  C   UNL     1       0.034  -0.750   2.391  0.00  0.00    +0.004 A 
BRANCH  11  18
ATOM     17  C   UNL     1      -0.019   1.526   0.010  0.00  0.00    +0.009 C 
ATOM     18  C   UNL     1       0.002  -0.004   0.002  0.00  0.00    +0.032 C 
ENDBRANCH  11  18
ENDBRANCH   1  14
BRANCH   3  19
ATOM     19  C   UNL     1       4.436   1.240   4.921  0.00  0.00    +0.002 A 
ATOM     20  C   UNL     1       5.270   0.585   4.018  0.00  0.00    +0.010 A 
ATOM     21  C   UNL     1       6.027   1.316   3.126  0.00  0.00    +0.001 A 
ATOM     22  C   UNL     1       5.958   2.698   3.126  0.00  0.00    +0.000 A 
ATOM     23  C   UNL     1       5.132   3.354   4.020  0.00  0.00    +0.001 A 
ATOM     24  C   UNL     1       4.366   2.632   4.913  0.00  0.00    +0.010 A 
ENDBRANCH   3  19
BRANCH  10  25
ATOM     25  C   UNL     1       1.492  -4.175   4.856  0.00  0.00    +0.144 C 
BRANCH  25  26
ATOM     26  C   UNL     1       2.502  -5.255   5.144  0.00  0.00    -0.026 A 
ATOM     27  C   UNL     1       3.516  -5.510   4.239  0.00  0.00    +0.009 A 
ATOM     28  C   UNL     1       4.446  -6.500   4.498  0.00  0.00    +0.050 A 
ATOM     29  C   UNL     1       4.363  -7.239   5.667  0.00  0.00    +0.166 A 
ATOM     30  C   UNL     1       3.342  -6.983   6.579  0.00  0.00    +0.167 A 
ATOM     31  C   UNL     1       2.417  -5.985   6.315  0.00  0.00    +0.054 A 
ATOM     32  O   UNL     1       3.477  -7.835   7.637  0.00  0.00    -0.453 OA
ATOM     33  C   UNL     1       4.345  -8.887   7.175  0.00  0.00    +0.466 C 
ATOM     34  O   UNL     1       5.138  -8.252   6.154  0.00  0.00    -0.453 OA
ENDBRANCH  25  26
ENDBRANCH  10  25
TORSDOF 5
