REMARK  Name = ZINC39634740
REMARK  12 active torsions:
REMARK  status: ('A' for Active; 'I' for Inactive)
REMARK    1  A    between atoms: C_1  and  C_2
REMARK    2  A    between atoms: C_2  and  C_3
REMARK    3  A    between atoms: C_2  and  N_4
REMARK    4  A    between atoms: N_4  and  C_5
REMARK    5  A    between atoms: N_4  and  C_34
REMARK    6  A    between atoms: C_5  and  C_6
REMARK    7  A    between atoms: C_6  and  N_7
REMARK    8  A    between atoms: C_8  and  C_10
REMARK    9  A    between atoms: C_21  and  C_23
REMARK   10  A    between atoms: C_25  and  C_30
REMARK   11  A    between atoms: C_34  and  C_35
REMARK   12  A    between atoms: C_34  and  C_36
REMARK                            x       y       z     vdW  Elec       q    Type
REMARK                         _______ _______ _______ _____ _____    ______ ____
ROOT
ATOM      1  C   UNL     1      -4.407   2.940  -4.618  0.00  0.00    +0.100 C 
ATOM      2  C   UNL     1      -5.832   2.519  -4.194  0.00  0.00    +0.121 C 
ATOM      3  N   UNL     1      -6.462   3.768  -3.704  0.00  0.00    -0.296 N 
ATOM      4  C   UNL     1      -5.984   4.814  -4.641  0.00  0.00    +0.115 C 
ATOM      5  C   UNL     1      -4.512   4.446  -4.914  0.00  0.00    -0.004 C 
ATOM      6  C   UNL     1      -3.592   5.232  -3.985  0.00  0.00    -0.010 C 
ATOM      7  C   UNL     1      -3.671   6.721  -4.336  0.00  0.00    -0.082 C 
ATOM      8  N   UNL     1      -3.271   6.917  -5.735  0.00  0.00    +0.379 N 
ATOM      9  C   UNL     1      -4.215   6.233  -6.627  0.00  0.00    -0.082 C 
ATOM     10  C   UNL     1      -4.160   4.724  -6.372  0.00  0.00    -0.010 C 
ATOM     11  C   UNL     1      -7.283   3.920  -2.647  0.00  0.00    +0.247 C 
ATOM     12  O   UNL     1      -7.501   2.981  -1.907  0.00  0.00    -0.270 OA
ATOM     13  H   UNL     1      -3.265   7.903  -5.946  0.00  0.00    -0.086 HD
ATOM     14  H   UNL     1      -2.345   6.540  -5.875  0.00  0.00    -0.086 HD
ENDROOT
BRANCH  11  15
ATOM     15  C   UNL     1      -7.918   5.229  -2.385  0.00  0.00    +0.040 A 
ATOM     16  C   UNL     1      -8.389   5.537  -1.108  0.00  0.00    +0.025 A 
ATOM     17  C   UNL     1      -8.981   6.761  -0.870  0.00  0.00    +0.058 A 
ATOM     18  C   UNL     1      -9.108   7.683  -1.893  0.00  0.00    +0.050 A 
ATOM     19  C   UNL     1      -8.644   7.384  -3.164  0.00  0.00    +0.125 A 
ATOM     20  C   UNL     1      -8.044   6.164  -3.414  0.00  0.00    +0.051 A 
ATOM     21  F   UNL     1      -8.772   8.289  -4.159  0.00  0.00    -0.205 F 
BRANCH  17  22
ATOM     22  C   UNL     1      -9.490   7.093   0.509  0.00  0.00    +0.418 C 
ATOM     23  F   UNL     1      -8.471   7.704   1.248  0.00  0.00    -0.166 F 
ATOM     24  F   UNL     1     -10.579   7.965   0.406  0.00  0.00    -0.166 F 
ATOM     25  F   UNL     1      -9.892   5.919   1.154  0.00  0.00    -0.166 F 
ENDBRANCH  17  22
ENDBRANCH  11  15
BRANCH   1  27
ATOM     26  N   UNL     1      -2.118   2.554  -3.765  0.00  0.00    -0.317 N 
ATOM     27  C   UNL     1      -3.432   2.692  -3.497  0.00  0.00    +0.218 C 
ATOM     28  O   UNL     1      -3.828   2.617  -2.353  0.00  0.00    -0.275 OA
ATOM     29  H   UNL     1      -1.801   2.614  -4.680  0.00  0.00    +0.149 HD
BRANCH  26  30
ATOM     30  C   UNL     1      -1.169   2.313  -2.675  0.00  0.00    +0.085 C 
BRANCH  30  31
ATOM     31  C   UNL     1       0.245   2.195  -3.247  0.00  0.00    -0.059 C 
BRANCH  31  32
ATOM     32  N   UNL     1       1.171   1.788  -2.182  0.00  0.00    +0.384 N 
ATOM     33  H   UNL     1       0.829   0.947  -1.742  0.00  0.00    -0.081 HD
BRANCH  32  35
ATOM     34  C   UNL     1       1.030   4.211  -1.857  0.00  0.00    -0.014 C 
ATOM     35  C   UNL     1       1.270   2.859  -1.182  0.00  0.00    -0.074 C 
ATOM     36  C   UNL     1       0.217   2.638  -0.093  0.00  0.00    -0.014 C 
ENDBRANCH  32  35
BRANCH  32  37
ATOM     37  C   UNL     1       2.498   1.532  -2.759  0.00  0.00    -0.074 C 
ATOM     38  C   UNL     1       3.420   0.957  -1.681  0.00  0.00    -0.014 C 
ATOM     39  C   UNL     1       2.371   0.532  -3.909  0.00  0.00    -0.014 C 
ENDBRANCH  32  37
ENDBRANCH  31  32
ENDBRANCH  30  31
ENDBRANCH  26  30
ENDBRANCH   1  27
TORSDOF 8
