REMARK  Name = ZINC63731202
REMARK  9 active torsions:
REMARK  status: ('A' for Active; 'I' for Inactive)
REMARK    1  A    between atoms: C_1  and  C_2
REMARK    2  A    between atoms: C_2  and  N_3
REMARK    3  A    between atoms: N_3  and  C_4
REMARK    4  A    between atoms: C_6  and  N_21
REMARK    5  A    between atoms: N_8  and  C_14
REMARK    6  A    between atoms: C_14  and  C_15
REMARK    7  A    between atoms: C_22  and  C_24
REMARK    8  A    between atoms: C_24  and  S_25
REMARK    9  A    between atoms: S_25  and  C_26
REMARK                            x       y       z     vdW  Elec       q    Type
REMARK                         _______ _______ _______ _____ _____    ______ ____
ROOT
ATOM      1  N   UNL     1       0.810  -0.480  -0.975  0.00  0.00    -0.286 N 
ATOM      2  C   UNL     1       0.005  -1.031  -1.906  0.00  0.00    +0.226 C 
ATOM      3  O   UNL     1       0.482  -1.676  -2.815  0.00  0.00    -0.275 OA
ENDROOT
BRANCH   1   4
ATOM      4  C   UNL     1       2.265  -0.566  -1.122  0.00  0.00    +0.199 C 
ATOM      5  C   UNL     1       2.743   0.494  -2.124  0.00  0.00    +0.173 C 
ATOM      6  N   UNL     1       4.210   0.576  -2.018  0.00  0.00    -0.262 N 
ATOM      7  C   UNL     1       4.753   0.724  -0.776  0.00  0.00    +0.330 C 
ATOM      8  O   UNL     1       5.956   1.311  -0.636  0.00  0.00    -0.250 OA
ATOM      9  N   UNL     1       4.103   0.295   0.290  0.00  0.00    -0.126 NA
ATOM     10  C   UNL     1       2.923  -0.311   0.210  0.00  0.00    +0.264 C 
ATOM     11  O   UNL     1       2.362  -0.665   1.228  0.00  0.00    -0.271 OA
BRANCH   5  12
ATOM     12  N   UNL     1       2.145   1.795  -1.798  0.00  0.00    -0.311 NA
ATOM     13  H   UNL     1       2.581   2.537  -2.326  0.00  0.00    +0.120 HD
ATOM     14  H   UNL     1       1.148   1.783  -1.948  0.00  0.00    +0.120 HD
ENDBRANCH   5  12
BRANCH   6  15
ATOM     15  C   UNL     1       5.059   0.499  -3.210  0.00  0.00    +0.146 C 
BRANCH  15  16
ATOM     16  C   UNL     1       5.282   1.885  -3.758  0.00  0.00    -0.030 A 
ATOM     17  C   UNL     1       4.407   2.408  -4.691  0.00  0.00    +0.005 A 
ATOM     18  C   UNL     1       4.611   3.679  -5.194  0.00  0.00    +0.000 A 
ATOM     19  C   UNL     1       5.690   4.428  -4.763  0.00  0.00    +0.000 A 
ATOM     20  C   UNL     1       6.564   3.906  -3.828  0.00  0.00    +0.000 A 
ATOM     21  C   UNL     1       6.358   2.636  -3.322  0.00  0.00    +0.005 A 
ENDBRANCH  15  16
ENDBRANCH   6  15
ENDBRANCH   1   4
BRANCH   1  23
ATOM     22  C   UNL     1       0.235   1.713  -0.059  0.00  0.00    +0.024 C 
ATOM     23  C   UNL     1       0.229   0.203   0.184  0.00  0.00    +0.105 C 
ENDBRANCH   1  23
BRANCH   2  24
ATOM     24  C   UNL     1      -1.488  -0.844  -1.817  0.00  0.00    +0.168 C 
BRANCH  24  25
ATOM     25  S   UNL     1      -2.288  -1.697  -3.203  0.00  0.00    -0.106 S 
BRANCH  25  26
ATOM     26  C   UNL     1      -4.056  -1.379  -2.952  0.00  0.00    +0.236 C 
ATOM     27  N   UNL     1      -4.306   0.067  -2.903  0.00  0.00    -0.355 N 
ATOM     28  C   UNL     1      -4.814   0.335  -1.735  0.00  0.00    +0.061 A 
ATOM     29  C   UNL     1      -5.264   1.584  -1.105  0.00  0.00    +0.027 A 
ATOM     30  C   UNL     1      -5.759   1.556   0.149  0.00  0.00    +0.002 A 
ATOM     31  C   UNL     1      -5.867   0.368   0.895  0.00  0.00    +0.002 A 
ATOM     32  C   UNL     1      -5.484  -0.831   0.412  0.00  0.00    +0.027 A 
ATOM     33  C   UNL     1      -4.928  -0.921  -0.946  0.00  0.00    +0.061 A 
ATOM     34  N   UNL     1      -4.486  -1.919  -1.656  0.00  0.00    -0.355 N 
ATOM     35  H   UNL     1      -4.126   0.705  -3.611  0.00  0.00    +0.162 HD
ATOM     36  H   UNL     1      -4.449  -2.848  -1.380  0.00  0.00    +0.162 HD
ENDBRANCH  25  26
ENDBRANCH  24  25
ENDBRANCH   2  24
TORSDOF 8
