REMARK  Name = ZINC23682670
REMARK  7 active torsions:
REMARK  status: ('A' for Active; 'I' for Inactive)
REMARK    1  A    between atoms: C_1  and  C_2
REMARK    2  A    between atoms: C_6  and  C_26
REMARK    3  A    between atoms: C_7  and  O_8
REMARK    4  A    between atoms: O_8  and  C_9
REMARK    5  A    between atoms: C_9  and  C_11
REMARK    6  A    between atoms: C_11  and  N_12
REMARK    7  A    between atoms: C_20  and  C_22
REMARK                            x       y       z     vdW  Elec       q    Type
REMARK                         _______ _______ _______ _____ _____    ______ ____
ROOT
ATOM      1  N   UNL     1      -2.605   1.205   4.646  0.00  0.00    -0.213 N 
ATOM      2  C   UNL     1      -3.347   2.275   4.296  0.00  0.00    +0.247 C 
ATOM      3  O   UNL     1      -3.000   3.219   3.619  0.00  0.00    -0.273 OA
ATOM      4  C   UNL     1      -4.704   2.049   4.924  0.00  0.00    +0.115 C 
ATOM      5  C   UNL     1      -5.779   1.960   3.847  0.00  0.00    +0.035 C 
ATOM      6  C   UNL     1      -5.876   3.298   3.109  0.00  0.00    +0.003 C 
ATOM      7  C   UNL     1      -6.220   4.405   4.108  0.00  0.00    +0.000 C 
ATOM      8  C   UNL     1      -5.123   4.496   5.170  0.00  0.00    +0.006 C 
ATOM      9  C   UNL     1      -5.023   3.162   5.915  0.00  0.00    +0.018 C 
ATOM     10  C   UNL     1      -3.912   3.246   6.963  0.00  0.00    +0.010 C 
ATOM     11  N   UNL     1      -4.564   0.763   5.620  0.00  0.00    -0.285 N 
ATOM     12  C   UNL     1      -3.304   0.344   5.396  0.00  0.00    +0.310 C 
ATOM     13  O   UNL     1      -2.851  -0.698   5.830  0.00  0.00    -0.252 OA
ATOM     14  H   UNL     1      -5.246   0.305   6.136  0.00  0.00    +0.151 HD
ENDROOT
BRANCH   1  15
ATOM     15  C   UNL     1      -1.208   1.006   4.250  0.00  0.00    +0.238 C 
BRANCH  15  16
ATOM     16  C   UNL     1      -1.159   0.263   2.941  0.00  0.00    +0.330 C 
ATOM     17  O   UNL     1      -2.184  -0.067   2.394  0.00  0.00    -0.249 OA
BRANCH  16  18
ATOM     18  O   UNL     1       0.025  -0.033   2.381  0.00  0.00    -0.424 OA
BRANCH  18  25
ATOM     19  C   UNL     1      -0.018   1.503   0.010  0.00  0.00    +0.047 C 
ATOM     20  C   UNL     1       0.002  -0.004   0.002  0.00  0.00    -0.008 A 
ATOM     21  C   UNL     1       0.006  -0.689  -1.198  0.00  0.00    +0.007 A 
ATOM     22  C   UNL     1       0.024  -2.071  -1.206  0.00  0.00    +0.001 A 
ATOM     23  C   UNL     1       0.039  -2.772  -0.014  0.00  0.00    +0.007 A 
ATOM     24  C   UNL     1       0.035  -2.092   1.188  0.00  0.00    -0.008 A 
ATOM     25  C   UNL     1       0.023  -0.705   1.199  0.00  0.00    +0.137 A 
ATOM     26  C   UNL     1       0.051  -2.856   2.487  0.00  0.00    +0.047 C 
ENDBRANCH  18  25
ENDBRANCH  16  18
ENDBRANCH  15  16
ENDBRANCH   1  15
TORSDOF 4
