REMARK  Name = ZINC08133033
REMARK  10 active torsions:
REMARK  status: ('A' for Active; 'I' for Inactive)
REMARK    1  A    between atoms: C_1  and  C_2
REMARK    2  A    between atoms: C_2  and  N_3
REMARK    3  A    between atoms: C_5  and  C_14
REMARK    4  A    between atoms: C_14  and  N_61
REMARK    5  A    between atoms: C_15  and  N_61
REMARK    6  A    between atoms: C_16  and  C_17
REMARK    7  A    between atoms: C_16  and  N_61
REMARK    8  A    between atoms: N_19  and  C_20
REMARK    9  A    between atoms: C_25  and  C_26
REMARK   10  A    between atoms: N_28  and  C_29
REMARK                            x       y       z     vdW  Elec       q    Type
REMARK                         _______ _______ _______ _____ _____    ______ ____
ROOT
ATOM      1  C   UNL     1      -4.843   5.188   0.316  0.00  0.00    +0.019 C 
ENDROOT
BRANCH   1   2
ATOM      2  C   UNL     1      -4.623   3.697   0.291  0.00  0.00    +0.201 C 
ATOM      3  O   UNL     1      -5.518   2.947   0.620  0.00  0.00    -0.278 OA
ATOM      4  N   UNL     1      -3.433   3.197  -0.096  0.00  0.00    -0.286 N 
ATOM      5  H   UNL     1      -2.698   3.797  -0.297  0.00  0.00    +0.155 HD
BRANCH   4   6
ATOM      6  C   UNL     1      -3.259   1.820  -0.208  0.00  0.00    +0.045 A 
ATOM      7  C   UNL     1      -3.934   0.960   0.648  0.00  0.00    +0.024 A 
ATOM      8  C   UNL     1      -3.760  -0.405   0.535  0.00  0.00    +0.002 A 
ATOM      9  C   UNL     1      -2.915  -0.927  -0.430  0.00  0.00    +0.001 A 
ATOM     10  C   UNL     1      -2.240  -0.088  -1.292  0.00  0.00    +0.015 A 
ATOM     11  C   UNL     1      -2.402   1.295  -1.186  0.00  0.00    +0.058 A 
BRANCH  11  12
ATOM     12  C   UNL     1      -1.680   2.198  -2.102  0.00  0.00    +0.246 C 
ATOM     13  O   UNL     1      -1.883   3.396  -2.060  0.00  0.00    -0.270 OA
ATOM     14  N   UNL     1      -0.795   1.696  -2.986  0.00  0.00    -0.308 N 
ATOM     15  H   UNL     1      -0.633   0.740  -3.019  0.00  0.00    +0.149 HD
BRANCH  14  16
ATOM     16  C   UNL     1      -0.082   2.592  -3.900  0.00  0.00    +0.073 C 
ATOM     17  C   UNL     1       0.037   2.160  -5.362  0.00  0.00    +0.024 C 
ATOM     18  C   UNL     1       1.264   2.116  -4.449  0.00  0.00    +0.024 C 
ENDBRANCH  14  16
ENDBRANCH  11  12
ENDBRANCH   4   6
ENDBRANCH   1   2
BRANCH   1  20
ATOM     19  C   UNL     1      -7.200   4.991  -0.201  0.00  0.00    -0.095 C 
ATOM     20  N   UNL     1      -6.214   5.460   0.796  0.00  0.00    +0.386 N 
ATOM     21  H   UNL     1      -6.366   4.955   1.677  0.00  0.00    -0.081 HD
BRANCH  20  22
ATOM     22  C   UNL     1      -6.388   6.908   1.035  0.00  0.00    -0.032 C 
BRANCH  22  25
ATOM     23  N   UNL     1      -5.194   9.096   3.889  0.00  0.00    -0.324 N 
ATOM     24  C   UNL     1      -5.906   8.764   2.650  0.00  0.00    +0.147 C 
ATOM     25  C   UNL     1      -5.715   7.269   2.361  0.00  0.00    +0.174 C 
ATOM     26  O   UNL     1      -6.322   6.534   3.428  0.00  0.00    -0.487 OA
ATOM     27  C   UNL     1      -6.063   6.966   4.693  0.00  0.00    +0.142 A 
ATOM     28  C   UNL     1      -5.516   8.221   4.932  0.00  0.00    +0.072 A 
ATOM     29  C   UNL     1      -5.276   8.627   6.240  0.00  0.00    +0.027 A 
ATOM     30  C   UNL     1      -5.577   7.788   7.295  0.00  0.00    +0.002 A 
ATOM     31  C   UNL     1      -6.118   6.540   7.056  0.00  0.00    +0.004 A 
ATOM     32  C   UNL     1      -6.361   6.128   5.759  0.00  0.00    +0.047 A 
BRANCH  23  34
ATOM     33  C   UNL     1      -6.904  10.658   4.688  0.00  0.00    +0.024 C 
ATOM     34  C   UNL     1      -5.438  10.491   4.279  0.00  0.00    +0.102 C 
ENDBRANCH  23  34
ENDBRANCH  22  25
ENDBRANCH  20  22
ENDBRANCH   1  20
TORSDOF 8
