REMARK  Name = ZINC40986869
REMARK  6 active torsions:
REMARK  status: ('A' for Active; 'I' for Inactive)
REMARK    1  A    between atoms: C_6  and  C_7
REMARK    2  A    between atoms: C_9  and  C_12
REMARK    3  A    between atoms: N_14  and  C_15
REMARK    4  A    between atoms: C_16  and  C_23
REMARK    5  A    between atoms: N_25  and  C_26
REMARK    6  A    between atoms: C_26  and  C_27
REMARK                            x       y       z     vdW  Elec       q    Type
REMARK                         _______ _______ _______ _____ _____    ______ ____
ROOT
ATOM      1  C   UNL     1      -5.235  -5.223   0.034  0.00  0.00    +0.085 A 
ATOM      2  C   UNL     1      -6.573  -5.574   0.037  0.00  0.00    +0.069 A 
ATOM      3  C   UNL     1      -6.891  -7.001   0.039  0.00  0.00    -0.023 A 
ATOM      4  C   UNL     1      -5.811  -7.804   0.037  0.00  0.00    -0.004 A 
ATOM      5  S   UNL     1      -4.427  -6.693   0.024  0.00  0.00    -0.077 S 
ATOM      6  C   UNL     1      -6.194  -9.259   0.043  0.00  0.00    +0.043 C 
ATOM      7  C   UNL     1      -7.676  -9.271   0.481  0.00  0.00    +0.010 C 
ATOM      8  C   UNL     1      -8.146  -7.871   0.039  0.00  0.00    +0.037 C 
ENDROOT
BRANCH   1  11
ATOM      9  C   UNL     1      -3.350  -3.792   0.022  0.00  0.00    +0.270 C 
ATOM     10  O   UNL     1      -2.623  -4.765   0.015  0.00  0.00    -0.268 OA
ATOM     11  N   UNL     1      -4.689  -3.950   0.032  0.00  0.00    -0.274 N 
ATOM     12  H   UNL     1      -5.269  -3.173   0.037  0.00  0.00    +0.156 HD
BRANCH   9  15
ATOM     13  C   UNL     1      -1.266  -0.763   0.011  0.00  0.00    +0.168 A 
ATOM     14  C   UNL     1      -1.388  -2.117   0.010  0.00  0.00    +0.086 A 
ATOM     15  C   UNL     1      -2.765  -2.429   0.020  0.00  0.00    +0.169 A 
ATOM     16  N   UNL     1      -3.436  -1.301   0.026  0.00  0.00    -0.073 NA
ATOM     17  O   UNL     1      -2.505  -0.235   0.026  0.00  0.00    -0.354 OA
BRANCH  13  23
ATOM     18  C   UNL     1      -0.017   1.391   0.010  0.00  0.00    +0.014 A 
ATOM     19  C   UNL     1       1.169   2.096   0.002  0.00  0.00    +0.042 A 
ATOM     20  C   UNL     1       2.379   1.421  -0.013  0.00  0.00    +0.158 A 
ATOM     21  C   UNL     1       2.405   0.033  -0.021  0.00  0.00    +0.159 A 
ATOM     22  C   UNL     1       1.223  -0.681  -0.014  0.00  0.00    +0.053 A 
ATOM     23  C   UNL     1       0.002  -0.004   0.002  0.00  0.00    +0.023 A 
ATOM     24  F   UNL     1       3.587  -0.620  -0.037  0.00  0.00    -0.202 F 
ATOM     25  F   UNL     1       3.537   2.116  -0.020  0.00  0.00    -0.202 F 
ENDBRANCH  13  23
ENDBRANCH   9  15
ENDBRANCH   1  11
BRANCH   2  26
ATOM     26  C   UNL     1      -7.629  -4.557   0.040  0.00  0.00    +0.247 C 
ATOM     27  O   UNL     1      -8.070  -4.135  -1.012  0.00  0.00    -0.270 OA
ATOM     28  N   UNL     1      -8.111  -4.089   1.209  0.00  0.00    -0.309 N 
ATOM     29  H   UNL     1      -7.758  -4.425   2.048  0.00  0.00    +0.149 HD
BRANCH  28  30
ATOM     30  C   UNL     1      -9.166  -3.073   1.212  0.00  0.00    +0.136 C 
BRANCH  30  31
ATOM     31  C   UNL     1      -9.528  -2.719   2.655  0.00  0.00    +0.135 C 
ATOM     32  C   UNL     1     -10.668  -1.669   2.682  0.00  0.00    +0.035 C 
ATOM     33  C   UNL     1     -11.289  -1.943   4.079  0.00  0.00    +0.031 C 
ATOM     34  C   UNL     1     -11.108  -3.469   4.225  0.00  0.00    +0.160 C 
ATOM     35  O   UNL     1     -10.059  -3.869   3.333  0.00  0.00    -0.375 OA
ENDBRANCH  30  31
ENDBRANCH  28  30
ENDBRANCH   2  26
TORSDOF 6
