REMARK  Name = ZINC15403587
REMARK  8 active torsions:
REMARK  status: ('A' for Active; 'I' for Inactive)
REMARK    1  A    between atoms: C_4  and  C_7
REMARK    2  A    between atoms: C_7  and  C_8
REMARK    3  A    between atoms: C_7  and  N_53
REMARK    4  A    between atoms: C_14  and  C_15
REMARK    5  A    between atoms: C_14  and  N_53
REMARK    6  A    between atoms: N_17  and  C_18
REMARK    7  A    between atoms: C_18  and  C_20
REMARK    8  A    between atoms: C_18  and  C_27
REMARK                            x       y       z     vdW  Elec       q    Type
REMARK                         _______ _______ _______ _____ _____    ______ ____
ROOT
ATOM      1  C   UNL     1       3.063   5.601  -3.120  0.00  0.00    +0.016 C 
ENDROOT
BRANCH   1   2
ATOM      2  C   UNL     1       1.878   5.482  -2.196  0.00  0.00    +0.197 C 
ATOM      3  O   UNL     1       0.753   5.570  -2.639  0.00  0.00    -0.278 OA
ATOM      4  N   UNL     1       2.070   5.276  -0.878  0.00  0.00    -0.306 N 
ATOM      5  H   UNL     1       2.970   5.206  -0.524  0.00  0.00    +0.150 HD
BRANCH   4   6
ATOM      6  C   UNL     1       0.918   5.160   0.020  0.00  0.00    +0.140 C 
BRANCH   6   7
ATOM      7  C   UNL     1       1.329   5.546   1.417  0.00  0.00    -0.022 A 
ATOM      8  C   UNL     1       2.558   5.147   1.911  0.00  0.00    +0.008 A 
ATOM      9  C   UNL     1       2.938   5.505   3.190  0.00  0.00    +0.038 A 
ATOM     10  C   UNL     1       2.084   6.255   3.981  0.00  0.00    +0.123 A 
ATOM     11  C   UNL     1       0.853   6.649   3.488  0.00  0.00    +0.038 A 
ATOM     12  C   UNL     1       0.476   6.295   2.206  0.00  0.00    +0.008 A 
ATOM     13  F   UNL     1       2.453   6.600   5.234  0.00  0.00    -0.205 F 
ENDBRANCH   6   7
BRANCH   6  14
ATOM     14  C   UNL     1       0.421   3.738   0.017  0.00  0.00    +0.014 A 
ATOM     15  C   UNL     1      -0.855   3.279   0.027  0.00  0.00    +0.013 A 
ATOM     16  C   UNL     1      -1.077   1.915   0.017  0.00  0.00    +0.008 A 
ATOM     17  C   UNL     1      -0.013   1.076   0.008  0.00  0.00    +0.045 A 
ATOM     18  S   UNL     1       1.359   2.219   0.001  0.00  0.00    -0.099 S 
ENDBRANCH   6  14
ENDBRANCH   4   6
ENDBRANCH   1   2
BRANCH   1  19
ATOM     19  N   UNL     1       2.582   5.821  -4.497  0.00  0.00    +0.392 N 
ATOM     20  H   UNL     1       1.997   5.027  -4.782  0.00  0.00    -0.084 HD
ATOM     21  H   UNL     1       2.027   6.684  -4.529  0.00  0.00    -0.084 HD
BRANCH  19  22
ATOM     22  C   UNL     1       3.723   5.941  -5.425  0.00  0.00    -0.009 C 
BRANCH  22  26
ATOM     23  C   UNL     1       4.969   2.049  -6.667  0.00  0.00    +0.000 A 
ATOM     24  C   UNL     1       5.912   3.023  -6.396  0.00  0.00    +0.000 A 
ATOM     25  C   UNL     1       5.509   4.283  -5.994  0.00  0.00    +0.002 A 
ATOM     26  C   UNL     1       4.162   4.568  -5.863  0.00  0.00    -0.057 A 
ATOM     27  C   UNL     1       3.220   3.593  -6.129  0.00  0.00    +0.002 A 
ATOM     28  C   UNL     1       3.623   2.334  -6.535  0.00  0.00    +0.000 A 
ENDBRANCH  22  26
BRANCH  22  29
ATOM     29  C   UNL     1       3.298   6.741  -6.630  0.00  0.00    -0.057 A 
ATOM     30  C   UNL     1       2.045   6.548  -7.181  0.00  0.00    +0.002 A 
ATOM     31  C   UNL     1       1.654   7.285  -8.283  0.00  0.00    +0.000 A 
ATOM     32  C   UNL     1       2.519   8.208  -8.840  0.00  0.00    +0.000 A 
ATOM     33  C   UNL     1       3.774   8.397  -8.292  0.00  0.00    +0.000 A 
ATOM     34  C   UNL     1       4.163   7.664  -7.187  0.00  0.00    +0.002 A 
ENDBRANCH  22  29
ENDBRANCH  19  22
ENDBRANCH   1  19
TORSDOF 8
