REMARK  Name = ZINC09593822
REMARK  7 active torsions:
REMARK  status: ('A' for Active; 'I' for Inactive)
REMARK    1  A    between atoms: C_1  and  O_2
REMARK    2  A    between atoms: O_2  and  C_3
REMARK    3  A    between atoms: C_3  and  C_4
REMARK    4  A    between atoms: C_4  and  N_5
REMARK    5  A    between atoms: C_6  and  C_8
REMARK    6  A    between atoms: C_10  and  C_25
REMARK    7  A    between atoms: C_14  and  C_19
REMARK                            x       y       z     vdW  Elec       q    Type
REMARK                         _______ _______ _______ _____ _____    ______ ____
ROOT
ATOM      1  C   UNL     1      -0.100   1.826  -0.083  0.00  0.00    +0.166 C 
ATOM      2  C   UNL     1       1.343   2.345  -0.084  0.00  0.00    +0.140 C 
ATOM      3  N   UNL     1       1.975   2.099  -1.381  0.00  0.00    -0.272 N 
ATOM      4  N   UNL     1       2.022   0.787  -1.725  0.00  0.00    -0.221 N 
ATOM      5  C   UNL     1       2.867   0.187  -2.627  0.00  0.00    +0.182 A 
ATOM      6  N   UNL     1       2.551  -1.089  -2.662  0.00  0.00    -0.127 NA
ATOM      7  N   UNL     1       1.580  -1.325  -1.849  0.00  0.00    -0.121 NA
ATOM      8  C   UNL     1       1.227  -0.218  -1.252  0.00  0.00    +0.210 A 
ATOM      9  S   UNL     1      -0.039   0.009  -0.043  0.00  0.00    -0.069 S 
ATOM     10  H   UNL     1       2.893   2.517  -1.421  0.00  0.00    +0.167 HD
ENDROOT
BRANCH   2  11
ATOM     11  C   UNL     1       1.340   3.826   0.196  0.00  0.00    -0.024 A 
ATOM     12  C   UNL     1       1.058   4.721  -0.819  0.00  0.00    +0.007 A 
ATOM     13  C   UNL     1       1.050   6.079  -0.562  0.00  0.00    +0.020 A 
ATOM     14  C   UNL     1       1.335   6.543   0.710  0.00  0.00    +0.041 A 
ATOM     15  C   UNL     1       1.622   5.648   1.725  0.00  0.00    +0.020 A 
ATOM     16  C   UNL     1       1.625   4.290   1.467  0.00  0.00    +0.007 A 
ATOM     17 CL   UNL     1       1.331   8.249   1.032  0.00  0.00    -0.084 Cl
ENDBRANCH   2  11
BRANCH   5  18
ATOM     18  C   UNL     1       3.930   0.850  -3.411  0.00  0.00    +0.021 A 
ATOM     19  C   UNL     1       3.923   2.237  -3.570  0.00  0.00    +0.011 A 
ATOM     20  C   UNL     1       4.921   2.850  -4.298  0.00  0.00    +0.001 A 
ATOM     21  C   UNL     1       5.922   2.093  -4.880  0.00  0.00    +0.000 A 
ATOM     22  C   UNL     1       5.933   0.718  -4.730  0.00  0.00    +0.001 A 
ATOM     23  C   UNL     1       4.944   0.092  -4.000  0.00  0.00    +0.011 A 
ENDBRANCH   5  18
BRANCH   1  25
ATOM     24  N   UNL     1      -2.125   2.565  -1.296  0.00  0.00    -0.312 N 
ATOM     25  C   UNL     1      -0.808   2.285  -1.333  0.00  0.00    +0.229 C 
ATOM     26  O   UNL     1      -0.191   2.401  -2.370  0.00  0.00    -0.275 OA
ATOM     27  H   UNL     1      -2.619   2.472  -0.466  0.00  0.00    +0.149 HD
BRANCH  24  28
ATOM     28  C   UNL     1      -2.813   3.011  -2.511  0.00  0.00    +0.132 C 
BRANCH  28  29
ATOM     29  C   UNL     1      -4.290   3.259  -2.199  0.00  0.00    +0.178 C 
BRANCH  29  31
ATOM     30  C   UNL     1      -5.753   4.662  -0.918  0.00  0.00    +0.194 C 
ATOM     31  O   UNL     1      -4.406   4.346  -1.278  0.00  0.00    -0.381 OA
ENDBRANCH  29  31
ENDBRANCH  28  29
ENDBRANCH  24  28
ENDBRANCH   1  25
TORSDOF 6
