REMARK  Name = ZINC23291289
REMARK  10 active torsions:
REMARK  status: ('A' for Active; 'I' for Inactive)
REMARK    1  A    between atoms: C_1  and  C_2
REMARK    2  A    between atoms: C_2  and  N_3
REMARK    3  A    between atoms: C_4  and  C_25
REMARK    4  A    between atoms: C_7  and  S_8
REMARK    5  A    between atoms: S_8  and  C_9
REMARK    6  A    between atoms: C_9  and  C_11
REMARK    7  A    between atoms: C_9  and  C_12
REMARK    8  A    between atoms: N_14  and  C_15
REMARK    9  A    between atoms: C_18  and  S_21
REMARK   10  A    between atoms: S_21  and  N_24
REMARK                            x       y       z     vdW  Elec       q    Type
REMARK                         _______ _______ _______ _____ _____    ______ ____
ROOT
ATOM      1  S   UNL     1      -7.259  -1.062  -0.582  0.00  0.00    -0.075 S 
ENDROOT
BRANCH   1   6
ATOM      2  N   UNL     1      -4.713  -0.128   0.051  0.00  0.00    -0.319 N 
ATOM      3  C   UNL     1      -3.472  -0.659   0.359  0.00  0.00    +0.069 A 
ATOM      4  C   UNL     1      -3.612  -2.010   0.335  0.00  0.00    +0.140 A 
ATOM      5  N   UNL     1      -4.882  -2.295   0.020  0.00  0.00    -0.230 NA
ATOM      6  C   UNL     1      -5.553  -1.179  -0.156  0.00  0.00    +0.170 A 
BRANCH   3   7
ATOM      7  C   UNL     1      -2.238   0.096   0.660  0.00  0.00    +0.004 A 
ATOM      8  C   UNL     1      -2.102   1.417   0.229  0.00  0.00    +0.014 A 
ATOM      9  C   UNL     1      -0.948   2.118   0.509  0.00  0.00    +0.050 A 
ATOM     10  C   UNL     1       0.079   1.517   1.224  0.00  0.00    +0.162 A 
ATOM     11  C   UNL     1      -0.050   0.202   1.658  0.00  0.00    +0.163 A 
ATOM     12  C   UNL     1      -1.205  -0.509   1.377  0.00  0.00    +0.059 A 
ATOM     13  O   UNL     1       0.948  -0.401   2.361  0.00  0.00    -0.485 OA
ATOM     14  C   UNL     1       2.239   0.213   2.301  0.00  0.00    +0.270 C 
ATOM     15  C   UNL     1       2.064   1.722   2.520  0.00  0.00    +0.270 C 
ATOM     16  O   UNL     1       1.211   2.228   1.488  0.00  0.00    -0.485 OA
ENDBRANCH   3   7
BRANCH   2  18
ATOM     17  C   UNL     1      -4.940   1.756  -1.493  0.00  0.00    +0.027 C 
ATOM     18  C   UNL     1      -5.055   1.294  -0.038  0.00  0.00    +0.121 C 
ENDBRANCH   2  18
ENDBRANCH   1   6
BRANCH   1  19
ATOM     19  C   UNL     1      -7.681  -2.820  -0.673  0.00  0.00    +0.137 C 
ATOM     20  C   UNL     1      -6.910  -3.471  -1.823  0.00  0.00    +0.029 C 
BRANCH  19  21
ATOM     21  C   UNL     1      -9.162  -2.969  -0.912  0.00  0.00    +0.230 C 
ATOM     22  O   UNL     1      -9.782  -2.076  -1.450  0.00  0.00    -0.274 OA
ATOM     23  N   UNL     1      -9.796  -4.095  -0.529  0.00  0.00    -0.285 N 
ATOM     24  H   UNL     1      -9.254  -4.866   0.037  0.00  0.00    +0.155 HD
BRANCH  23  25
ATOM     25  C   UNL     1     -11.145  -4.282  -0.852  0.00  0.00    +0.034 A 
ATOM     26  C   UNL     1     -11.978  -4.977   0.015  0.00  0.00    +0.025 A 
ATOM     27  C   UNL     1     -13.310  -5.155  -0.303  0.00  0.00    +0.030 A 
ATOM     28  C   UNL     1     -13.812  -4.651  -1.489  0.00  0.00    +0.105 A 
ATOM     29  C   UNL     1     -12.984  -3.963  -2.357  0.00  0.00    +0.030 A 
ATOM     30  C   UNL     1     -11.652  -3.777  -2.042  0.00  0.00    +0.025 A 
BRANCH  28  31
ATOM     31  S   UNL     1     -15.510  -4.886  -1.895  0.00  0.00    +0.056 S 
ATOM     32  O   UNL     1     -16.197  -5.087  -0.667  0.00  0.00    -0.153 OA
ATOM     33  O   UNL     1     -15.859  -3.849  -2.801  0.00  0.00    -0.153 OA
BRANCH  31  34
ATOM     34  N   UNL     1     -15.620  -6.308  -2.737  0.00  0.00    -0.204 NA
ATOM     35  H   UNL     1     -16.670  -6.492  -3.010  0.00  0.00    +0.144 HD
ATOM     36  H   UNL     1     -15.254  -7.134  -2.111  0.00  0.00    +0.144 HD
ENDBRANCH  31  34
ENDBRANCH  28  31
ENDBRANCH  23  25
ENDBRANCH  19  21
ENDBRANCH   1  19
TORSDOF 8
