REMARK  Name = ZINC04514577
REMARK  7 active torsions:
REMARK  status: ('A' for Active; 'I' for Inactive)
REMARK    1  A    between atoms: C_1  and  C_2
REMARK    2  A    between atoms: C_2  and  C_22
REMARK    3  A    between atoms: N_5  and  C_9
REMARK    4  A    between atoms: C_9  and  C_10
REMARK    5  A    between atoms: C_10  and  C_12
REMARK    6  A    between atoms: C_25  and  O_28
REMARK    7  A    between atoms: O_28  and  C_29
REMARK                            x       y       z     vdW  Elec       q    Type
REMARK                         _______ _______ _______ _____ _____    ______ ____
ROOT
ATOM      1  C   UNL     1       7.731   7.548  -1.140  0.00  0.00    +0.047 C 
ATOM      2  C   UNL     1       6.375   7.036  -0.652  0.00  0.00    +0.135 C 
ATOM      3  C   UNL     1       6.133   5.621  -1.139  0.00  0.00    +0.251 C 
ATOM      4  O   UNL     1       6.062   5.245  -2.290  0.00  0.00    -0.272 OA
ATOM      5  N   UNL     1       6.011   4.869  -0.028  0.00  0.00    -0.216 N 
ATOM      6  C   UNL     1       6.149   5.603   1.082  0.00  0.00    +0.310 C 
ATOM      7  O   UNL     1       6.083   5.146   2.207  0.00  0.00    -0.252 OA
ATOM      8  N   UNL     1       6.368   6.903   0.815  0.00  0.00    -0.281 N 
ATOM      9  H   UNL     1       6.496   7.614   1.462  0.00  0.00    +0.152 HD
ENDROOT
BRANCH   2  10
ATOM     10  C   UNL     1       5.269   7.954  -1.107  0.00  0.00    -0.015 A 
ATOM     11  C   UNL     1       4.666   7.753  -2.335  0.00  0.00    +0.010 A 
ATOM     12  C   UNL     1       3.649   8.590  -2.751  0.00  0.00    +0.046 A 
ATOM     13  C   UNL     1       3.239   9.638  -1.941  0.00  0.00    +0.127 A 
ATOM     14  C   UNL     1       3.849   9.841  -0.711  0.00  0.00    +0.046 A 
ATOM     15  C   UNL     1       4.863   8.998  -0.297  0.00  0.00    +0.010 A 
BRANCH  13  16
ATOM     16  O   UNL     1       2.242  10.466  -2.350  0.00  0.00    -0.434 OA
BRANCH  16  17
ATOM     17  C   UNL     1       1.660  10.197  -3.627  0.00  0.00    +0.541 C 
ATOM     18  F   UNL     1       2.646  10.280  -4.616  0.00  0.00    -0.166 F 
ATOM     19  F   UNL     1       1.106   8.913  -3.626  0.00  0.00    -0.166 F 
ENDBRANCH  16  17
ENDBRANCH  13  16
ENDBRANCH   2  10
BRANCH   5  20
ATOM     20  C   UNL     1       5.766   3.425  -0.034  0.00  0.00    +0.197 C 
BRANCH  20  21
ATOM     21  C   UNL     1       4.281   3.168  -0.021  0.00  0.00    +0.183 C 
ATOM     22  O   UNL     1       3.503   4.100  -0.008  0.00  0.00    -0.290 OA
BRANCH  21  23
ATOM     23  C   UNL     1       3.792   1.838  -0.024  0.00  0.00    +0.044 A 
ATOM     24  C   UNL     1       4.540   0.680  -0.038  0.00  0.00    +0.095 A 
ATOM     25  N   UNL     1       3.721  -0.389  -0.036  0.00  0.00    -0.360 N 
ATOM     26  H   UNL     1       4.019  -1.312  -0.045  0.00  0.00    +0.165 HD
ATOM     27  C   UNL     1       2.400   0.009  -0.021  0.00  0.00    +0.047 A 
ATOM     28  C   UNL     1       2.378   1.413  -0.013  0.00  0.00    +0.010 A 
ATOM     29  C   UNL     1       1.164   2.094   0.002  0.00  0.00    +0.011 A 
ATOM     30  C   UNL     1      -0.017   1.383   0.010  0.00  0.00    +0.001 A 
ATOM     31  C   UNL     1       0.002  -0.004   0.002  0.00  0.00    +0.002 A 
ATOM     32  C   UNL     1       1.197  -0.690  -0.013  0.00  0.00    +0.026 A 
ENDBRANCH  21  23
ENDBRANCH  20  21
ENDBRANCH   5  20
TORSDOF 6
