REMARK  Name = ZINC01326666
REMARK  6 active torsions:
REMARK  status: ('A' for Active; 'I' for Inactive)
REMARK    1  A    between atoms: C_1  and  C_2
REMARK    2  A    between atoms: C_5  and  C_8
REMARK    3  A    between atoms: N_10  and  N_11
REMARK    4  A    between atoms: C_12  and  C_14
REMARK    5  A    between atoms: C_19  and  C_34
REMARK    6  A    between atoms: C_22  and  C_25
REMARK                            x       y       z     vdW  Elec       q    Type
REMARK                         _______ _______ _______ _____ _____    ______ ____
ROOT
ATOM      1  C   UNL     1       0.130  -8.489   2.290  0.00  0.00    +0.150 A 
ATOM      2  C   UNL     1       0.141  -9.325   3.430  0.00  0.00    +0.078 A 
ATOM      3  C   UNL     1       0.158 -10.602   2.998  0.00  0.00    +0.119 A 
ATOM      4  N   UNL     1       0.159 -10.589   1.632  0.00  0.00    -0.238 N 
ATOM      5  N   UNL     1       0.135  -9.259   1.215  0.00  0.00    -0.164 NA
ATOM      6  C   UNL     1       0.180 -11.801   0.808  0.00  0.00    +0.215 C 
ATOM      7  C   UNL     1       0.678 -12.973   1.662  0.00  0.00    +0.063 C 
ATOM      8  C   UNL     1      -0.101 -13.026   2.981  0.00  0.00    +0.104 C 
ATOM      9  N   UNL     1       0.171 -11.788   3.737  0.00  0.00    -0.322 N 
ATOM     10  H   UNL     1       0.349 -11.797   4.691  0.00  0.00    +0.148 HD
ENDROOT
BRANCH   8  11
ATOM     11  C   UNL     1      -1.577 -13.134   2.693  0.00  0.00    -0.024 A 
ATOM     12  C   UNL     1      -2.296 -12.005   2.348  0.00  0.00    +0.009 A 
ATOM     13  C   UNL     1      -3.650 -12.099   2.083  0.00  0.00    +0.050 A 
ATOM     14  C   UNL     1      -4.288 -13.326   2.162  0.00  0.00    +0.166 A 
ATOM     15  C   UNL     1      -3.563 -14.463   2.509  0.00  0.00    +0.167 A 
ATOM     16  C   UNL     1      -2.206 -14.362   2.768  0.00  0.00    +0.055 A 
ATOM     17  O   UNL     1      -4.410 -15.534   2.518  0.00  0.00    -0.453 OA
ATOM     18  C   UNL     1      -5.736 -14.975   2.573  0.00  0.00    +0.466 C 
ATOM     19  O   UNL     1      -5.589 -13.684   1.953  0.00  0.00    -0.453 OA
ENDBRANCH   8  11
BRANCH   1  21
ATOM     20  N   UNL     1       0.095  -6.332   1.134  0.00  0.00    -0.229 N 
ATOM     21  C   UNL     1       0.110  -7.012   2.298  0.00  0.00    +0.280 C 
ATOM     22  O   UNL     1       0.107  -6.410   3.354  0.00  0.00    -0.267 OA
ATOM     23  H   UNL     1       0.097  -6.813   0.292  0.00  0.00    +0.173 HD
BRANCH  20  26
ATOM     24  C   UNL     1       0.061  -4.251  -0.021  0.00  0.00    +0.260 C 
ATOM     25  O   UNL     1       0.064  -4.853  -1.077  0.00  0.00    -0.269 OA
ATOM     26  N   UNL     1       0.076  -4.931   1.142  0.00  0.00    -0.230 N 
ATOM     27  H   UNL     1       0.073  -4.451   1.985  0.00  0.00    +0.173 HD
BRANCH  24  32
ATOM     28  C   UNL     1      -0.018   1.503   0.010  0.00  0.00    +0.044 C 
ATOM     29  C   UNL     1       0.002  -0.004   0.002  0.00  0.00    -0.050 A 
ATOM     30  C   UNL     1       0.006  -0.686  -1.202  0.00  0.00    +0.004 A 
ATOM     31  C   UNL     1       0.025  -2.066  -1.216  0.00  0.00    +0.013 A 
ATOM     32  C   UNL     1       0.041  -2.773  -0.013  0.00  0.00    +0.038 A 
ATOM     33  C   UNL     1       0.037  -2.079   1.198  0.00  0.00    +0.013 A 
ATOM     34  C   UNL     1       0.023  -0.699   1.198  0.00  0.00    +0.004 A 
ENDBRANCH  24  32
ENDBRANCH  20  26
ENDBRANCH   1  21
BRANCH   6  35
ATOM     35  C   UNL     1       1.120 -11.596  -0.382  0.00  0.00    +0.412 C 
ATOM     36  F   UNL     1       2.411 -11.328   0.084  0.00  0.00    -0.168 F 
ATOM     37  F   UNL     1       1.138 -12.753  -1.167  0.00  0.00    -0.168 F 
ATOM     38  F   UNL     1       0.669 -10.518  -1.151  0.00  0.00    -0.168 F 
ENDBRANCH   6  35
TORSDOF 5
