REMARK  Name = ZINC28058904
REMARK  12 active torsions:
REMARK  status: ('A' for Active; 'I' for Inactive)
REMARK    1  A    between atoms: C_1  and  C_2
REMARK    2  A    between atoms: C_2  and  O_3
REMARK    3  A    between atoms: O_3  and  C_4
REMARK    4  A    between atoms: C_7  and  C_12
REMARK    5  A    between atoms: C_9  and  O_10
REMARK    6  A    between atoms: O_10  and  C_11
REMARK    7  A    between atoms: C_18  and  C_23
REMARK    8  A    between atoms: C_30  and  C_32
REMARK    9  A    between atoms: C_35  and  O_40
REMARK   10  A    between atoms: C_37  and  O_38
REMARK   11  A    between atoms: O_38  and  C_39
REMARK   12  A    between atoms: O_40  and  C_41
REMARK                            x       y       z     vdW  Elec       q    Type
REMARK                         _______ _______ _______ _____ _____    ______ ____
ROOT
ATOM      1  C   UNL     1      -2.783   0.762   2.592  0.00  0.00    +0.234 C 
ATOM      2  C   UNL     1      -2.582  -0.142   1.397  0.00  0.00    +0.026 C 
ATOM      3  C   UNL     1      -2.555  -1.464   1.579  0.00  0.00    +0.050 C 
ATOM      4  C   UNL     1      -2.743  -1.991   2.952  0.00  0.00    +0.038 A 
ATOM      5  C   UNL     1      -2.394  -3.294   3.285  0.00  0.00    +0.016 A 
ATOM      6  C   UNL     1      -2.591  -3.742   4.577  0.00  0.00    -0.050 A 
ATOM      7  C   UNL     1      -3.131  -2.901   5.534  0.00  0.00    +0.007 A 
ATOM      8  C   UNL     1      -3.481  -1.602   5.211  0.00  0.00    +0.046 A 
ATOM      9  C   UNL     1      -3.288  -1.140   3.922  0.00  0.00    +0.131 A 
ATOM     10  O   UNL     1      -3.613   0.129   3.566  0.00  0.00    -0.479 OA
ATOM     11  C   UNL     1      -2.214  -5.154   4.946  0.00  0.00    +0.044 C 
ATOM     12  N   UNL     1      -2.364  -2.360   0.521  0.00  0.00    -0.282 N 
ATOM     13  C   UNL     1      -2.483  -1.859  -0.765  0.00  0.00    +0.240 A 
ATOM     14  N   UNL     1      -2.587  -2.461  -1.915  0.00  0.00    -0.092 NA
ATOM     15  N   UNL     1      -2.686  -1.594  -2.865  0.00  0.00    -0.021 NA
ATOM     16  N   UNL     1      -2.649  -0.393  -2.384  0.00  0.00    -0.042 NA
ATOM     17  N   UNL     1      -2.511  -0.522  -1.003  0.00  0.00    -0.201 N 
ATOM     18  C   UNL     1      -2.408   0.490   0.038  0.00  0.00    +0.177 C 
ATOM     19  H   UNL     1      -2.130  -3.415   0.729  0.00  0.00    +0.155 HD
ENDROOT
BRANCH   1  23
ATOM     20  C   UNL     1       1.015   1.659   4.340  0.00  0.00    +0.162 A 
ATOM     21  C   UNL     1       0.339   2.625   3.612  0.00  0.00    +0.050 A 
ATOM     22  C   UNL     1      -0.888   2.331   3.048  0.00  0.00    +0.011 A 
ATOM     23  C   UNL     1      -1.444   1.076   3.209  0.00  0.00    +0.001 A 
ATOM     24  C   UNL     1      -0.778   0.110   3.939  0.00  0.00    +0.057 A 
ATOM     25  C   UNL     1       0.456   0.395   4.503  0.00  0.00    +0.162 A 
BRANCH  25  26
ATOM     26  O   UNL     1       1.115  -0.555   5.217  0.00  0.00    -0.491 OA
ATOM     27  C   UNL     1       0.481  -1.830   5.341  0.00  0.00    +0.277 C 
ENDBRANCH  25  26
BRANCH  20  28
ATOM     28  O   UNL     1       2.223   1.946   4.897  0.00  0.00    -0.489 OA
BRANCH  28  30
ATOM     29  C   UNL     1       4.092   3.398   5.384  0.00  0.00    +0.048 C 
ATOM     30  C   UNL     1       2.735   3.264   4.690  0.00  0.00    +0.226 C 
ENDBRANCH  28  30
ENDBRANCH  20  28
ENDBRANCH   1  23
BRANCH  18  31
ATOM     31  C   UNL     1      -1.053   1.147  -0.036  0.00  0.00    +0.023 A 
ATOM     32  C   UNL     1       0.091   0.391   0.132  0.00  0.00    +0.013 A 
ATOM     33  C   UNL     1       1.334   0.989   0.058  0.00  0.00    +0.046 A 
ATOM     34  C   UNL     1       1.436   2.353  -0.179  0.00  0.00    +0.124 A 
ATOM     35  C   UNL     1       0.290   3.114  -0.343  0.00  0.00    +0.091 A 
ATOM     36  C   UNL     1      -0.957   2.511  -0.269  0.00  0.00    +0.129 A 
BRANCH  36  37
ATOM     37  O   UNL     1      -2.082   3.256  -0.429  0.00  0.00    -0.495 OA
ATOM     38  C   UNL     1      -1.907   4.653  -0.670  0.00  0.00    +0.277 C 
ENDBRANCH  36  37
BRANCH  34  39
ATOM     39  O   UNL     1       2.659   2.941  -0.252  0.00  0.00    -0.495 OA
ATOM     40  C   UNL     1       3.797   2.095  -0.074  0.00  0.00    +0.277 C 
ENDBRANCH  34  39
ENDBRANCH  18  31
TORSDOF 7
