REMARK  Name = ZINC41394349
REMARK  3 active torsions:
REMARK  status: ('A' for Active; 'I' for Inactive)
REMARK    1  A    between atoms: C_2  and  C_3
REMARK    2  A    between atoms: C_3  and  N_4
REMARK    3  A    between atoms: N_14  and  C_15
REMARK                            x       y       z     vdW  Elec       q    Type
REMARK                         _______ _______ _______ _____ _____    ______ ____
ROOT
ATOM      1  N   UNL     1       1.367  -1.676   1.111  0.00  0.00    -0.277 N 
ATOM      2  C   UNL     1       1.861  -1.261   2.293  0.00  0.00    +0.264 A 
ATOM      3  O   UNL     1       2.262  -0.117   2.428  0.00  0.00    -0.267 OA
ATOM      4  C   UNL     1       1.907  -2.180   3.389  0.00  0.00    +0.076 A 
ATOM      5  C   UNL     1       2.398  -1.948   4.748  0.00  0.00    -0.023 A 
ATOM      6  C   UNL     1       2.334  -2.985   5.607  0.00  0.00    -0.004 A 
ATOM      7  S   UNL     1       1.626  -4.314   4.673  0.00  0.00    -0.073 S 
ATOM      8  C   UNL     1       1.419  -3.470   3.125  0.00  0.00    +0.117 A 
ATOM      9  N   UNL     1       0.944  -3.817   1.933  0.00  0.00    -0.208 NA
ATOM     10  C   UNL     1       0.908  -2.949   0.944  0.00  0.00    +0.200 A 
ATOM     11  N   UNL     1       0.407  -3.333  -0.275  0.00  0.00    -0.312 N 
ATOM     12  C   UNL     1       2.770  -3.005   7.041  0.00  0.00    +0.043 C 
ATOM     13  C   UNL     1       3.650  -1.773   7.296  0.00  0.00    +0.005 C 
ATOM     14  C   UNL     1       2.948  -0.540   6.720  0.00  0.00    +0.005 C 
ATOM     15  C   UNL     1       2.961  -0.601   5.192  0.00  0.00    +0.037 C 
ATOM     16  H   UNL     1       0.382  -2.700  -1.010  0.00  0.00    +0.149 HD
ENDROOT
BRANCH  11  17
ATOM     17  C   UNL     1      -0.088  -4.698  -0.467  0.00  0.00    +0.073 C 
ATOM     18  C   UNL     1       1.109  -5.628  -0.751  0.00  0.00    +0.022 C 
ATOM     19  C   UNL     1       0.698  -7.043  -0.444  0.00  0.00    +0.002 C 
ATOM     20  C   UNL     1       0.186  -7.792  -1.689  0.00  0.00    +0.000 C 
ATOM     21  C   UNL     1      -0.723  -6.922  -2.578  0.00  0.00    +0.000 C 
ATOM     22  C   UNL     1      -1.687  -6.090  -1.776  0.00  0.00    +0.002 C 
ATOM     23  C   UNL     1      -1.061  -4.699  -1.549  0.00  0.00    +0.022 C 
ENDBRANCH  11  17
BRANCH   1  24
ATOM     24  C   UNL     1       1.317  -0.740  -0.015  0.00  0.00    +0.155 C 
BRANCH  24  26
ATOM     25  C   UNL     1      -0.016   1.306   0.009  0.00  0.00    +0.005 C 
ATOM     26  C   UNL     1       0.002  -0.004   0.002  0.00  0.00    -0.013 C 
ENDBRANCH  24  26
ENDBRANCH   1  24
TORSDOF 3
