REMARK  Name = ZINC34714700
REMARK  10 active torsions:
REMARK  status: ('A' for Active; 'I' for Inactive)
REMARK    1  A    between atoms: C_1  and  C_2
REMARK    2  A    between atoms: N_8  and  C_9
REMARK    3  A    between atoms: C_9  and  C_10
REMARK    4  A    between atoms: C_10  and  C_11
REMARK    5  A    between atoms: C_11  and  N_12
REMARK    6  A    between atoms: C_13  and  C_15
REMARK    7  A    between atoms: C_18  and  C_21
REMARK    8  A    between atoms: C_21  and  N_22
REMARK    9  A    between atoms: C_25  and  C_33
REMARK   10  A    between atoms: C_33  and  C_35
REMARK                            x       y       z     vdW  Elec       q    Type
REMARK                         _______ _______ _______ _____ _____    ______ ____
ROOT
ATOM      1  C   UNL     1       7.410   0.232   5.125  0.00  0.00    +0.037 A 
ATOM      2  C   UNL     1       6.567  -0.564   5.902  0.00  0.00    +0.013 A 
ATOM      3  C   UNL     1       6.999  -1.029   7.127  0.00  0.00    +0.006 A 
ATOM      4  C   UNL     1       8.264  -0.708   7.585  0.00  0.00    -0.030 A 
ATOM      5  C   UNL     1       9.105   0.080   6.819  0.00  0.00    +0.006 A 
ATOM      6  C   UNL     1       8.688   0.547   5.590  0.00  0.00    +0.013 A 
ENDROOT
BRANCH   1   8
ATOM      7  N   UNL     1       5.720   0.428   3.364  0.00  0.00    -0.311 N 
ATOM      8  C   UNL     1       6.954   0.734   3.811  0.00  0.00    +0.244 C 
ATOM      9  O   UNL     1       7.692   1.422   3.134  0.00  0.00    -0.270 OA
ATOM     10  H   UNL     1       5.130  -0.122   3.905  0.00  0.00    +0.149 HD
BRANCH   7  11
ATOM     11  C   UNL     1       5.268   0.925   2.062  0.00  0.00    +0.102 C 
BRANCH  11  12
ATOM     12  C   UNL     1       3.842   0.437   1.797  0.00  0.00    +0.000 C 
BRANCH  12  13
ATOM     13  C   UNL     1       3.370   0.957   0.438  0.00  0.00    -0.077 C 
BRANCH  13  20
ATOM     14  C   UNL     1       1.586   2.609  -0.967  0.00  0.00    -0.013 C 
ATOM     15  C   UNL     1       1.505   1.084  -1.064  0.00  0.00    -0.072 C 
ATOM     16  C   UNL     1       0.052   0.664  -1.291  0.00  0.00    -0.016 C 
ATOM     17  C   UNL     1      -0.024  -0.863  -1.387  0.00  0.00    -0.003 C 
ATOM     18  C   UNL     1       0.564  -1.474  -0.112  0.00  0.00    -0.019 C 
ATOM     19  C   UNL     1       1.999  -0.975   0.071  0.00  0.00    -0.078 C 
ATOM     20  N   UNL     1       2.001   0.488   0.183  0.00  0.00    +0.381 N 
ATOM     21  H   UNL     1       1.404   0.767   0.948  0.00  0.00    -0.081 HD
ENDBRANCH  13  20
ENDBRANCH  12  13
ENDBRANCH  11  12
ENDBRANCH   7  11
ENDBRANCH   1   8
BRANCH   4  22
ATOM     22  C   UNL     1       8.729  -1.220   8.924  0.00  0.00    +0.149 C 
BRANCH  22  23
ATOM     23  N   UNL     1       9.351  -2.536   8.755  0.00  0.00    -0.261 N 
ATOM     24  C   UNL     1      10.703  -2.644   8.398  0.00  0.00    +0.079 A 
ATOM     25  C   UNL     1      11.548  -1.560   8.508  0.00  0.00    +0.038 A 
ATOM     26  C   UNL     1      12.895  -1.690   8.144  0.00  0.00    +0.019 A 
ATOM     27  C   UNL     1      13.373  -2.918   7.672  0.00  0.00    +0.015 A 
ATOM     28  C   UNL     1      12.522  -3.996   7.566  0.00  0.00    +0.048 A 
ATOM     29  C   UNL     1      11.188  -3.868   7.927  0.00  0.00    +0.143 A 
ATOM     30  O   UNL     1      10.343  -4.926   7.829  0.00  0.00    -0.481 OA
ATOM     31  C   UNL     1       9.298  -5.008   8.801  0.00  0.00    +0.325 C 
ATOM     32  C   UNL     1       8.632  -3.663   8.947  0.00  0.00    +0.258 C 
ATOM     33  O   UNL     1       7.455  -3.594   9.233  0.00  0.00    -0.271 OA
BRANCH  26  34
ATOM     34  C   UNL     1      13.802  -0.540   8.257  0.00  0.00    +0.160 C 
ATOM     35  O   UNL     1      13.386   0.523   8.665  0.00  0.00    -0.292 OA
ATOM     36  C   UNL     1      15.250  -0.682   7.865  0.00  0.00    +0.091 C 
ENDBRANCH  26  34
ENDBRANCH  22  23
ENDBRANCH   4  22
TORSDOF 8
