REMARK  Name = ZINC42782743
REMARK  9 active torsions:
REMARK  status: ('A' for Active; 'I' for Inactive)
REMARK    1  A    between atoms: C_1  and  C_2
REMARK    2  A    between atoms: C_2  and  C_4
REMARK    3  A    between atoms: C_2  and  N_8
REMARK    4  A    between atoms: C_4  and  C_5
REMARK    5  A    between atoms: C_4  and  C_6
REMARK    6  A    between atoms: C_4  and  C_7
REMARK    7  A    between atoms: N_8  and  C_9
REMARK    8  A    between atoms: N_12  and  C_13
REMARK    9  A    between atoms: C_16  and  C_19
REMARK                            x       y       z     vdW  Elec       q    Type
REMARK                         _______ _______ _______ _____ _____    ______ ____
ROOT
ATOM      1  N   UNL     1       0.616  -0.091  -0.796  0.00  0.00    -0.285 N 
ATOM      2  C   UNL     1       2.067   0.074  -0.911  0.00  0.00    +0.134 C 
ATOM      3  C   UNL     1      -0.066  -0.744  -1.758  0.00  0.00    +0.302 C 
ATOM      4  O   UNL     1      -1.271  -0.880  -1.662  0.00  0.00    -0.253 OA
ATOM      5  N   UNL     1       0.586  -1.245  -2.825  0.00  0.00    -0.296 N 
ATOM      6  H   UNL     1       1.547  -1.136  -2.901  0.00  0.00    +0.151 HD
ENDROOT
BRANCH   5   7
ATOM      7  C   UNL     1      -0.155  -1.955  -3.870  0.00  0.00    +0.074 C 
ATOM      8  C   UNL     1      -0.325  -3.421  -3.469  0.00  0.00    +0.023 C 
ATOM      9  C   UNL     1       1.052  -4.065  -3.295  0.00  0.00    +0.016 C 
ATOM     10  C   UNL     1       1.824  -3.982  -4.613  0.00  0.00    +0.102 C 
ATOM     11  C   UNL     1       1.994  -2.516  -5.014  0.00  0.00    +0.016 C 
ATOM     12  C   UNL     1       0.616  -1.872  -5.189  0.00  0.00    +0.023 C 
BRANCH  10  13
ATOM     13  C   UNL     1       3.181  -4.616  -4.442  0.00  0.00    +0.359 C 
ATOM     14  O   UNL     1       3.648  -5.306  -5.332  0.00  0.00    -0.246 OA
ATOM     15  O   UNL     1       3.811  -4.439  -3.413  0.00  0.00    -0.246 OA
ENDBRANCH  10  13
ENDBRANCH   5   7
BRANCH   1  17
ATOM     16  C   UNL     1       0.243   1.940   0.516  0.00  0.00    +0.028 C 
ATOM     17  C   UNL     1      -0.093   0.455   0.364  0.00  0.00    +0.080 C 
BRANCH  17  18
ATOM     18  C   UNL     1       0.338  -0.297   1.625  0.00  0.00    -0.019 C 
ATOM     19  C   UNL     1      -0.513   0.164   2.810  0.00  0.00    +0.012 C 
ATOM     20  C   UNL     1       0.145  -1.800   1.413  0.00  0.00    +0.012 C 
ATOM     21  C   UNL     1       1.812  -0.007   1.913  0.00  0.00    +0.012 C 
ENDBRANCH  17  18
ENDBRANCH   1  17
TORSDOF 4
