REMARK  Name = ZINC08928268
REMARK  6 active torsions:
REMARK  status: ('A' for Active; 'I' for Inactive)
REMARK    1  A    between atoms: C_1  and  C_2
REMARK    2  A    between atoms: C_9  and  N_13
REMARK    3  A    between atoms: C_10  and  C_11
REMARK    4  A    between atoms: C_14  and  C_16
REMARK    5  A    between atoms: N_21  and  S_22
REMARK    6  A    between atoms: S_22  and  C_25
REMARK                            x       y       z     vdW  Elec       q    Type
REMARK                         _______ _______ _______ _____ _____    ______ ____
ROOT
ATOM      1  N   UNL     1      -2.018   4.926   1.938  0.00  0.00    -0.278 N 
ATOM      2  C   UNL     1      -1.833   5.837   0.962  0.00  0.00    +0.236 C 
ATOM      3  O   UNL     1      -0.804   5.837   0.320  0.00  0.00    -0.274 OA
ATOM      4  H   UNL     1      -2.841   4.927   2.452  0.00  0.00    +0.155 HD
ENDROOT
BRANCH   1  12
ATOM      5  C   UNL     1       3.816  -0.129   3.207  0.00  0.00    +0.008 C 
ATOM      6  C   UNL     1       2.654   0.834   3.457  0.00  0.00    -0.009 C 
ATOM      7  C   UNL     1       1.378   0.037   3.743  0.00  0.00    +0.008 C 
ATOM      8  C   UNL     1       0.276   0.977   4.235  0.00  0.00    +0.037 C 
ATOM      9  C   UNL     1       0.132   2.124   3.242  0.00  0.00    -0.018 A 
ATOM     10  C   UNL     1       1.115   2.408   2.360  0.00  0.00    -0.004 A 
ATOM     11  S   UNL     1       0.506   3.790   1.435  0.00  0.00    -0.077 S 
ATOM     12  C   UNL     1      -1.032   3.988   2.208  0.00  0.00    +0.090 A 
ATOM     13  C   UNL     1      -1.040   2.978   3.159  0.00  0.00    +0.084 A 
ATOM     14  C   UNL     1       2.426   1.700   2.209  0.00  0.00    +0.046 C 
BRANCH  13  15
ATOM     15  C   UNL     1      -2.161   2.788   4.030  0.00  0.00    +0.102 C 
ATOM     16  N   UNL     1      -3.050   2.637   4.721  0.00  0.00    -0.191 NA
ENDBRANCH  13  15
ENDBRANCH   1  12
BRANCH   2  17
ATOM     17  C   UNL     1      -2.904   6.856   0.669  0.00  0.00    +0.166 C 
ATOM     18  C   UNL     1      -3.727   6.431  -0.572  0.00  0.00    +0.031 C 
ATOM     19  C   UNL     1      -4.275   7.797  -1.065  0.00  0.00    +0.019 C 
ATOM     20  C   UNL     1      -3.116   8.767  -0.755  0.00  0.00    +0.110 C 
ATOM     21  N   UNL     1      -2.296   8.146   0.296  0.00  0.00    -0.165 NA
BRANCH  21  22
ATOM     22  S   UNL     1      -0.919   8.791   0.953  0.00  0.00    +0.062 S 
ATOM     23  O   UNL     1      -0.250   7.728   1.617  0.00  0.00    -0.153 OA
ATOM     24  O   UNL     1      -0.302   9.558  -0.072  0.00  0.00    -0.153 OA
BRANCH  22  25
ATOM     25  C   UNL     1      -1.421   9.928   2.201  0.00  0.00    +0.106 A 
ATOM     26  C   UNL     1      -1.532  11.274   1.906  0.00  0.00    +0.030 A 
ATOM     27  C   UNL     1      -1.931  12.166   2.883  0.00  0.00    +0.022 A 
ATOM     28  C   UNL     1      -2.207  11.713   4.161  0.00  0.00    +0.041 A 
ATOM     29  C   UNL     1      -2.090  10.367   4.458  0.00  0.00    +0.022 A 
ATOM     30  C   UNL     1      -1.697   9.475   3.478  0.00  0.00    +0.030 A 
ATOM     31 CL   UNL     1      -2.702  12.834   5.391  0.00  0.00    -0.084 Cl
ENDBRANCH  22  25
ENDBRANCH  21  22
ENDBRANCH   2  17
TORSDOF 5
