REMARK  Name = ZINC09838489
REMARK  12 active torsions:
REMARK  status: ('A' for Active; 'I' for Inactive)
REMARK    1  A    between atoms: C_1  and  C_2
REMARK    2  A    between atoms: C_5  and  N_9
REMARK    3  A    between atoms: C_10  and  C_12
REMARK    4  A    between atoms: C_12  and  C_14
REMARK    5  A    between atoms: C_12  and  N_18
REMARK    6  A    between atoms: C_14  and  C_15
REMARK    7  A    between atoms: C_15  and  S_16
REMARK    8  A    between atoms: S_16  and  C_17
REMARK    9  A    between atoms: N_18  and  S_19
REMARK   10  A    between atoms: S_19  and  C_22
REMARK   11  A    between atoms: N_30  and  C_35
REMARK   12  A    between atoms: N_33  and  C_34
REMARK                            x       y       z     vdW  Elec       q    Type
REMARK                         _______ _______ _______ _____ _____    ______ ____
ROOT
ATOM      1  N   UNL     1      -1.139   7.303   5.580  0.00  0.00    -0.178 NA
ATOM      2  H   UNL     1      -1.068   7.573   6.509  0.00  0.00    +0.149 HD
ENDROOT
BRANCH   1   3
ATOM      3  S   UNL     1      -2.625   7.003   4.916  0.00  0.00    +0.059 S 
ATOM      4  O   UNL     1      -2.696   7.763   3.717  0.00  0.00    -0.153 OA
ATOM      5  O   UNL     1      -3.574   7.144   5.964  0.00  0.00    -0.153 OA
BRANCH   3   6
ATOM      6  C   UNL     1      -2.650   5.307   4.439  0.00  0.00    +0.106 A 
ATOM      7  C   UNL     1      -3.084   4.345   5.338  0.00  0.00    +0.030 A 
ATOM      8  C   UNL     1      -3.111   3.011   4.983  0.00  0.00    +0.028 A 
ATOM      9  C   UNL     1      -2.700   2.628   3.716  0.00  0.00    +0.058 A 
ATOM     10  C   UNL     1      -2.259   3.602   2.803  0.00  0.00    +0.065 A 
ATOM     11  C   UNL     1      -2.237   4.944   3.174  0.00  0.00    +0.043 A 
ATOM     12  C   UNL     1      -1.824   3.160   1.466  0.00  0.00    +0.264 A 
ATOM     13  O   UNL     1      -1.429   3.961   0.642  0.00  0.00    -0.267 OA
ATOM     14  N   UNL     1      -1.881   1.841   1.179  0.00  0.00    -0.263 N 
ATOM     15  C   UNL     1      -2.310   0.948   2.085  0.00  0.00    +0.332 A 
ATOM     16  O   UNL     1      -2.336  -0.227   1.776  0.00  0.00    -0.246 OA
ATOM     17  N   UNL     1      -2.712   1.298   3.319  0.00  0.00    -0.296 N 
ATOM     18  C   UNL     1      -3.167   0.266   4.253  0.00  0.00    +0.154 C 
ATOM     19  C   UNL     1      -1.459   1.376  -0.145  0.00  0.00    +0.157 C 
ENDBRANCH   3   6
ENDBRANCH   1   3
BRANCH   1  20
ATOM     20  C   UNL     1       0.070   7.162   4.764  0.00  0.00    +0.163 C 
BRANCH  20  22
ATOM     21  N   UNL     1       2.389   6.354   5.058  0.00  0.00    -0.284 N 
ATOM     22  C   UNL     1       1.176   6.575   5.602  0.00  0.00    +0.236 C 
ATOM     23  O   UNL     1       0.975   6.301   6.766  0.00  0.00    -0.274 OA
ATOM     24  H   UNL     1       2.530   6.502   4.110  0.00  0.00    +0.155 HD
BRANCH  21  29
ATOM     25  C   UNL     1       6.678   4.557   8.311  0.00  0.00    +0.047 C 
ATOM     26  C   UNL     1       5.538   5.034   7.447  0.00  0.00    -0.015 A 
ATOM     27  C   UNL     1       5.783   5.903   6.400  0.00  0.00    +0.008 A 
ATOM     28  C   UNL     1       4.742   6.337   5.603  0.00  0.00    +0.024 A 
ATOM     29  C   UNL     1       3.446   5.910   5.861  0.00  0.00    +0.036 A 
ATOM     30  C   UNL     1       3.201   5.038   6.913  0.00  0.00    +0.062 A 
ATOM     31  C   UNL     1       4.248   4.601   7.704  0.00  0.00    +0.128 A 
ATOM     32  F   UNL     1       4.012   3.752   8.728  0.00  0.00    -0.205 F 
ENDBRANCH  21  29
ENDBRANCH  20  22
BRANCH  20  33
ATOM     33  C   UNL     1       0.499   8.537   4.245  0.00  0.00    +0.040 C 
BRANCH  33  34
ATOM     34  C   UNL     1       0.746   9.474   5.429  0.00  0.00    +0.071 C 
BRANCH  34  35
ATOM     35  S   UNL     1       1.108  11.142   4.814  0.00  0.00    -0.164 S 
ATOM     36  C   UNL     1       1.374  12.117   6.320  0.00  0.00    +0.084 C 
ENDBRANCH  34  35
ENDBRANCH  33  34
ENDBRANCH  20  33
ENDBRANCH   1  20
TORSDOF 8
