REMARK  Name = ZINC01055683
REMARK  5 active torsions:
REMARK  status: ('A' for Active; 'I' for Inactive)
REMARK    1  A    between atoms: C_1  and  C_2
REMARK    2  A    between atoms: C_3  and  C_19
REMARK    3  A    between atoms: C_8  and  C_10
REMARK    4  A    between atoms: C_19  and  O_21
REMARK    5  A    between atoms: O_21  and  C_22
REMARK                            x       y       z     vdW  Elec       q    Type
REMARK                         _______ _______ _______ _____ _____    ______ ____
ROOT
ATOM      1  C   UNL     1      -0.018   1.503   0.010  0.00  0.00    +0.067 C 
ATOM      2  C   UNL     1       0.002  -0.004   0.002  0.00  0.00    +0.062 A 
ATOM      3  C   UNL     1       0.006  -0.730  -1.182  0.00  0.00    +0.120 A 
ATOM      4  S   UNL     1       0.032  -2.398  -0.545  0.00  0.00    -0.045 S 
ATOM      5  C   UNL     1       0.035  -2.021   1.095  0.00  0.00    +0.166 A 
ATOM      6  N   UNL     1       0.022  -0.700   1.110  0.00  0.00    -0.229 NA
ATOM      7  N   UNL     1       0.052  -2.888   2.172  0.00  0.00    -0.260 N 
ATOM      8  C   UNL     1       0.069  -4.219   1.965  0.00  0.00    +0.256 C 
ATOM      9  O   UNL     1       0.070  -4.659   0.830  0.00  0.00    -0.269 OA
ATOM     10  H   UNL     1       0.051  -2.538   3.077  0.00  0.00    +0.157 HD
ENDROOT
BRANCH   8  11
ATOM     11  C   UNL     1       0.087  -5.138   3.106  0.00  0.00    +0.075 A 
ATOM     12  C   UNL     1       0.112  -6.521   3.112  0.00  0.00    +0.024 A 
ATOM     13  C   UNL     1       0.126  -7.141   4.352  0.00  0.00    -0.036 A 
ATOM     14  C   UNL     1       0.113  -6.325   5.446  0.00  0.00    -0.006 A 
ATOM     15  S   UNL     1       0.091  -4.766   4.850  0.00  0.00    -0.088 S 
ATOM     16  C   UNL     1       0.121  -6.752   6.884  0.00  0.00    +0.043 C 
ATOM     17  C   UNL     1      -0.233  -8.244   6.950  0.00  0.00    +0.005 C 
ATOM     18  C   UNL     1       0.620  -8.999   5.927  0.00  0.00    +0.005 C 
ATOM     19  C   UNL     1       0.154  -8.659   4.511  0.00  0.00    +0.036 C 
ENDBRANCH   8  11
BRANCH   3  20
ATOM     20  C   UNL     1      -0.007  -0.260  -2.565  0.00  0.00    +0.347 C 
ATOM     21  O   UNL     1      -0.025   0.934  -2.802  0.00  0.00    -0.244 OA
BRANCH  20  22
ATOM     22  O   UNL     1      -0.000  -1.149  -3.580  0.00  0.00    -0.464 OA
ATOM     23  C   UNL     1      -0.014  -0.618  -4.907  0.00  0.00    +0.280 C 
ENDBRANCH  20  22
ENDBRANCH   3  20
TORSDOF 3
