REMARK  Name = ZINC36207752
REMARK  16 active torsions:
REMARK  status: ('A' for Active; 'I' for Inactive)
REMARK    1  A    between atoms: C_1  and  O_2
REMARK    2  A    between atoms: O_2  and  C_3
REMARK    3  A    between atoms: C_6  and  C_11
REMARK    4  A    between atoms: C_8  and  O_9
REMARK    5  A    between atoms: O_9  and  C_10
REMARK    6  A    between atoms: C_20  and  C_22
REMARK    7  A    between atoms: C_22  and  N_23
REMARK    8  A    between atoms: N_23  and  C_24
REMARK    9  A    between atoms: N_23  and  C_27
REMARK   10  A    between atoms: C_24  and  C_25
REMARK   11  A    between atoms: C_27  and  C_28
REMARK   12  A    between atoms: C_28  and  C_30
REMARK   13  A    between atoms: C_28  and  O_35
REMARK   14  A    between atoms: C_30  and  O_31
REMARK   15  A    between atoms: O_31  and  C_32
REMARK   16  A    between atoms: C_32  and  C_33
REMARK                            x       y       z     vdW  Elec       q    Type
REMARK                         _______ _______ _______ _____ _____    ______ ____
ROOT
ATOM      1  C   UNL     1      -4.633  -2.522   0.666  0.00  0.00    +0.004 A 
ATOM      2  C   UNL     1      -4.838  -3.433  -0.316  0.00  0.00    +0.056 A 
ATOM      3  S   UNL     1      -6.564  -3.845  -0.142  0.00  0.00    -0.076 S 
ATOM      4  C   UNL     1      -6.966  -2.795   1.230  0.00  0.00    +0.116 A 
ATOM      5  C   UNL     1      -5.752  -2.153   1.525  0.00  0.00    +0.080 A 
ATOM      6  C   UNL     1      -5.788  -1.231   2.619  0.00  0.00    +0.260 A 
ATOM      7  O   UNL     1      -4.785  -0.622   2.948  0.00  0.00    -0.267 OA
ATOM      8  N   UNL     1      -6.947  -1.046   3.278  0.00  0.00    -0.312 N 
ATOM      9  H   UNL     1      -6.977  -0.422   4.020  0.00  0.00    +0.170 HD
ATOM     10  C   UNL     1      -8.074  -1.715   2.924  0.00  0.00    +0.094 A 
ATOM     11  N   UNL     1      -8.075  -2.556   1.925  0.00  0.00    -0.229 NA
ENDROOT
BRANCH   1  15
ATOM     12  C   UNL     1      -0.795  -0.776   1.241  0.00  0.00    +0.162 A 
ATOM     13  C   UNL     1      -1.918   0.032   1.158  0.00  0.00    +0.050 A 
ATOM     14  C   UNL     1      -3.164  -0.532   0.971  0.00  0.00    +0.012 A 
ATOM     15  C   UNL     1      -3.295  -1.916   0.866  0.00  0.00    -0.013 A 
ATOM     16  C   UNL     1      -2.166  -2.728   0.949  0.00  0.00    +0.058 A 
ATOM     17  C   UNL     1      -0.918  -2.158   1.132  0.00  0.00    +0.162 A 
BRANCH  12  19
ATOM     18  C   UNL     1       0.485   1.208   1.530  0.00  0.00    +0.277 C 
ATOM     19  O   UNL     1       0.431  -0.216   1.425  0.00  0.00    -0.491 OA
ENDBRANCH  12  19
BRANCH  17  20
ATOM     20  O   UNL     1       0.186  -2.948   1.209  0.00  0.00    -0.491 OA
ATOM     21  C   UNL     1      -0.015  -4.358   1.088  0.00  0.00    +0.277 C 
ENDBRANCH  17  20
ENDBRANCH   1  15
BRANCH  10  22
ATOM     22  C   UNL     1      -9.349  -1.475   3.691  0.00  0.00    -0.003 C 
BRANCH  22  23
ATOM     23  N   UNL     1     -10.390  -2.393   3.210  0.00  0.00    +0.388 N 
ATOM     24  H   UNL     1     -10.477  -2.309   2.209  0.00  0.00    -0.081 HD
BRANCH  23  25
ATOM     25  C   UNL     1     -11.671  -2.055   3.844  0.00  0.00    -0.051 C 
BRANCH  25  26
ATOM     26  C   UNL     1     -12.119  -0.695   3.376  0.00  0.00    -0.053 C 
ATOM     27  C   UNL     1     -13.303  -0.545   2.835  0.00  0.00    +0.002 C 
ENDBRANCH  25  26
ENDBRANCH  23  25
BRANCH  23  28
ATOM     28  C   UNL     1     -10.022  -3.773   3.555  0.00  0.00    -0.044 C 
BRANCH  28  29
ATOM     29  C   UNL     1     -11.041  -4.739   2.947  0.00  0.00    +0.124 C 
BRANCH  29  30
ATOM     30  O   UNL     1     -10.968  -4.674   1.522  0.00  0.00    -0.391 OA
ATOM     31  H   UNL     1     -10.102  -4.908   1.161  0.00  0.00    +0.210 HD
ENDBRANCH  29  30
BRANCH  29  32
ATOM     32  C   UNL     1     -10.730  -6.165   3.409  0.00  0.00    +0.189 C 
BRANCH  32  33
ATOM     33  O   UNL     1     -11.747  -7.051   2.937  0.00  0.00    -0.373 OA
BRANCH  33  34
ATOM     34  C   UNL     1     -11.551  -8.415   3.315  0.00  0.00    +0.186 C 
BRANCH  34  35
ATOM     35  C   UNL     1     -12.676  -9.255   2.768  0.00  0.00    -0.007 C 
ATOM     36  C   UNL     1     -12.416 -10.399   2.186  0.00  0.00    +0.006 C 
ENDBRANCH  34  35
ENDBRANCH  33  34
ENDBRANCH  32  33
ENDBRANCH  29  32
ENDBRANCH  28  29
ENDBRANCH  23  28
ENDBRANCH  22  23
ENDBRANCH  10  22
TORSDOF 14
