REMARK  Name = ZINC40343203
REMARK  10 active torsions:
REMARK  status: ('A' for Active; 'I' for Inactive)
REMARK    1  A    between atoms: C_1  and  C_2
REMARK    2  A    between atoms: C_2  and  O_3
REMARK    3  A    between atoms: O_3  and  C_4
REMARK    4  A    between atoms: C_7  and  C_13
REMARK    5  A    between atoms: C_9  and  O_10
REMARK    6  A    between atoms: O_10  and  C_11
REMARK    7  A    between atoms: C_11  and  C_12
REMARK    8  A    between atoms: C_16  and  C_31
REMARK    9  A    between atoms: N_23  and  C_24
REMARK   10  A    between atoms: C_24  and  C_25
REMARK                            x       y       z     vdW  Elec       q    Type
REMARK                         _______ _______ _______ _____ _____    ______ ____
ROOT
ATOM      1  C   UNL     1       1.142  -6.064   1.761  0.00  0.00    +0.141 C 
ATOM      2  C   UNL     1       2.224  -6.596   0.861  0.00  0.00    +0.035 A 
ATOM      3  C   UNL     1       3.579  -6.587   0.514  0.00  0.00    +0.099 A 
ATOM      4  N   UNL     1       3.734  -7.423  -0.494  0.00  0.00    -0.173 NA
ATOM      5  N   UNL     1       2.611  -7.959  -0.817  0.00  0.00    -0.272 N 
ATOM      6  H   UNL     1       2.486  -8.605  -1.530  0.00  0.00    +0.189 HD
ATOM      7  C   UNL     1       1.619  -7.484  -0.007  0.00  0.00    +0.126 A 
ATOM      8  C   UNL     1       0.186  -7.539   0.307  0.00  0.00    +0.266 C 
ATOM      9  O   UNL     1      -0.626  -8.231  -0.278  0.00  0.00    -0.268 OA
ATOM     10  N   UNL     1      -0.102  -6.718   1.334  0.00  0.00    -0.283 N 
ENDROOT
BRANCH   3  11
ATOM     11  C   UNL     1       4.647  -5.784   1.160  0.00  0.00    +0.003 A 
ATOM     12  C   UNL     1       4.366  -4.508   1.644  0.00  0.00    +0.011 A 
ATOM     13  C   UNL     1       5.362  -3.765   2.245  0.00  0.00    +0.020 A 
ATOM     14  C   UNL     1       6.639  -4.286   2.366  0.00  0.00    +0.041 A 
ATOM     15  C   UNL     1       6.923  -5.553   1.887  0.00  0.00    +0.020 A 
ATOM     16  C   UNL     1       5.932  -6.306   1.291  0.00  0.00    +0.011 A 
ATOM     17 CL   UNL     1       7.888  -3.346   3.122  0.00  0.00    -0.084 Cl
ENDBRANCH   3  11
BRANCH   1  21
ATOM     18  C   UNL     1       0.802  -1.825   1.306  0.00  0.00    +0.162 A 
ATOM     19  C   UNL     1       0.261  -2.673   0.353  0.00  0.00    +0.050 A 
ATOM     20  C   UNL     1       0.372  -4.043   0.502  0.00  0.00    +0.009 A 
ATOM     21  C   UNL     1       1.024  -4.570   1.602  0.00  0.00    -0.019 A 
ATOM     22  C   UNL     1       1.566  -3.730   2.557  0.00  0.00    +0.055 A 
ATOM     23  C   UNL     1       1.462  -2.356   2.410  0.00  0.00    +0.162 A 
BRANCH  18  24
ATOM     24  O   UNL     1       0.693  -0.477   1.160  0.00  0.00    -0.489 OA
BRANCH  24  26
ATOM     25  C   UNL     1      -0.019   1.526   0.010  0.00  0.00    +0.048 C 
ATOM     26  C   UNL     1       0.002  -0.004   0.002  0.00  0.00    +0.226 C 
ENDBRANCH  24  26
ENDBRANCH  18  24
BRANCH  23  27
ATOM     27  O   UNL     1       2.000  -1.528   3.345  0.00  0.00    -0.489 OA
BRANCH  27  28
ATOM     28  C   UNL     1       2.664  -2.143   4.451  0.00  0.00    +0.226 C 
ATOM     29  C   UNL     1       3.200  -1.060   5.390  0.00  0.00    +0.048 C 
ENDBRANCH  27  28
ENDBRANCH  23  27
ENDBRANCH   1  21
BRANCH  10  30
ATOM     30  C   UNL     1      -1.426  -6.511   1.924  0.00  0.00    +0.140 C 
BRANCH  30  31
ATOM     31  C   UNL     1      -2.134  -5.364   1.200  0.00  0.00    +0.136 C 
ATOM     32  C   UNL     1      -3.479  -5.058   1.892  0.00  0.00    +0.035 C 
ATOM     33  C   UNL     1      -4.413  -4.770   0.684  0.00  0.00    +0.031 C 
ATOM     34  C   UNL     1      -3.838  -5.747  -0.372  0.00  0.00    +0.160 C 
ATOM     35  O   UNL     1      -2.416  -5.744  -0.152  0.00  0.00    -0.375 OA
ENDBRANCH  30  31
ENDBRANCH  10  30
TORSDOF 8
