REMARK  Name = ZINC57520986
REMARK  7 active torsions:
REMARK  status: ('A' for Active; 'I' for Inactive)
REMARK    1  A    between atoms: C_1  and  C_2
REMARK    2  A    between atoms: C_5  and  C_25
REMARK    3  A    between atoms: C_6  and  N_8
REMARK    4  A    between atoms: C_9  and  C_11
REMARK    5  A    between atoms: C_11  and  S_12
REMARK    6  A    between atoms: S_12  and  C_13
REMARK    7  A    between atoms: C_21  and  C_24
REMARK                            x       y       z     vdW  Elec       q    Type
REMARK                         _______ _______ _______ _____ _____    ______ ____
ROOT
ATOM      1  S   UNL     1       0.391  -1.734   6.239  0.00  0.00    -0.078 S 
ENDROOT
BRANCH   1   2
ATOM      2  C   UNL     1       0.537  -2.770   7.657  0.00  0.00    +0.171 A 
ATOM      3  N   UNL     1       0.545  -4.076   7.490  0.00  0.00    -0.183 NA
ATOM      4  C   UNL     1       0.654  -4.916   8.531  0.00  0.00    +0.298 A 
ATOM      5  O   UNL     1       0.661  -6.125   8.357  0.00  0.00    -0.263 OA
ATOM      6  C   UNL     1       0.765  -4.356   9.877  0.00  0.00    +0.130 A 
ATOM      7  C   UNL     1       0.752  -2.973  10.017  0.00  0.00    +0.072 A 
ATOM      8  N   UNL     1       0.641  -2.191   8.883  0.00  0.00    -0.333 N 
ATOM      9  C   UNL     1       0.870  -2.701  11.389  0.00  0.00    +0.048 A 
ATOM     10  C   UNL     1       0.949  -3.882  12.040  0.00  0.00    +0.015 A 
ATOM     11  N   UNL     1       0.887  -4.897  11.135  0.00  0.00    -0.353 N 
ATOM     12  H   UNL     1       0.923  -5.844  11.343  0.00  0.00    +0.166 HD
ATOM     13  C   UNL     1       1.086  -4.050  13.531  0.00  0.00    +0.063 C 
ATOM     14  H   UNL     1       0.634  -1.224   8.962  0.00  0.00    +0.168 HD
ENDBRANCH   1   2
BRANCH   1  15
ATOM     15  C   UNL     1       0.280  -2.900   4.854  0.00  0.00    +0.173 C 
BRANCH  15  17
ATOM     16  N   UNL     1       0.052  -2.797   2.393  0.00  0.00    -0.285 N 
ATOM     17  C   UNL     1       0.150  -2.135   3.562  0.00  0.00    +0.227 C 
ATOM     18  O   UNL     1       0.134  -0.922   3.575  0.00  0.00    -0.275 OA
ATOM     19  H   UNL     1      -0.016  -3.765   2.388  0.00  0.00    +0.155 HD
BRANCH  16  25
ATOM     20  C   UNL     1       1.264   1.227  -0.158  0.00  0.00    +0.044 C 
ATOM     21  C   UNL     1       0.628  -0.137  -0.079  0.00  0.00    -0.049 A 
ATOM     22  C   UNL     1       0.039  -0.690  -1.201  0.00  0.00    +0.004 A 
ATOM     23  C   UNL     1      -0.546  -1.941  -1.133  0.00  0.00    +0.005 A 
ATOM     24  C   UNL     1      -0.543  -2.643   0.057  0.00  0.00    -0.029 A 
ATOM     25  C   UNL     1       0.048  -2.090   1.185  0.00  0.00    +0.037 A 
ATOM     26  C   UNL     1       0.639  -0.835   1.112  0.00  0.00    +0.027 A 
ATOM     27  C   UNL     1      -1.181  -4.006   0.131  0.00  0.00    +0.045 C 
ENDBRANCH  16  25
ENDBRANCH  15  17
ENDBRANCH   1  15
TORSDOF 4
