REMARK  Name = ZINC23846030
REMARK  10 active torsions:
REMARK  status: ('A' for Active; 'I' for Inactive)
REMARK    1  A    between atoms: C_1  and  C_2
REMARK    2  A    between atoms: C_2  and  C_4
REMARK    3  A    between atoms: C_7  and  S_10
REMARK    4  A    between atoms: S_10  and  N_13
REMARK    5  A    between atoms: N_13  and  C_14
REMARK    6  A    between atoms: C_14  and  C_15
REMARK    7  A    between atoms: C_15  and  C_16
REMARK    8  A    between atoms: C_16  and  C_17
REMARK    9  A    between atoms: N_22  and  C_25
REMARK   10  A    between atoms: C_25  and  C_26
REMARK                            x       y       z     vdW  Elec       q    Type
REMARK                         _______ _______ _______ _____ _____    ______ ____
ROOT
ATOM      1  C   UNL     1       8.988  -3.471  -0.274  0.00  0.00    +0.216 C 
ATOM      2  O   UNL     1      10.140  -3.258   0.040  0.00  0.00    -0.276 OA
ATOM      3  N   UNL     1       8.048  -2.527  -0.071  0.00  0.00    -0.299 N 
ATOM      4  C   UNL     1       8.397  -1.231   0.530  0.00  0.00    +0.123 C 
ATOM      5  C   UNL     1       7.440  -0.962   1.696  0.00  0.00    +0.103 C 
ATOM      6  N   UNL     1       6.054  -1.074   1.223  0.00  0.00    -0.295 NA
ATOM      7  C   UNL     1       5.757  -2.435   0.758  0.00  0.00    +0.103 C 
ATOM      8  C   UNL     1       6.646  -2.765  -0.446  0.00  0.00    +0.123 C 
ENDROOT
BRANCH   1   9
ATOM      9  C   UNL     1       8.608  -4.792  -0.892  0.00  0.00    +0.097 C 
BRANCH   9  10
ATOM     10  C   UNL     1       9.851  -5.676  -1.011  0.00  0.00    +0.026 C 
BRANCH  10  11
ATOM     11  C   UNL     1       9.465  -7.017  -1.638  0.00  0.00    +0.106 C 
BRANCH  11  12
ATOM     12  N   UNL     1      10.656  -7.864  -1.752  0.00  0.00    -0.190 NA
ATOM     13  H   UNL     1      11.654  -7.405  -1.809  0.00  0.00    +0.148 HD
BRANCH  12  14
ATOM     14  S   UNL     1      10.493  -9.486  -2.043  0.00  0.00    +0.058 S 
ATOM     15  O   UNL     1      11.809 -10.017  -2.124  0.00  0.00    -0.153 OA
ATOM     16  O   UNL     1       9.532  -9.971  -1.115  0.00  0.00    -0.153 OA
BRANCH  14  20
ATOM     17  C   UNL     1       8.658  -9.932  -6.162  0.00  0.00    +0.017 A 
ATOM     18  C   UNL     1      10.048  -9.885  -6.013  0.00  0.00    +0.013 A 
ATOM     19  C   UNL     1      10.599  -9.749  -4.756  0.00  0.00    +0.029 A 
ATOM     20  C   UNL     1       9.780  -9.659  -3.644  0.00  0.00    +0.105 A 
ATOM     21  C   UNL     1       8.404  -9.710  -3.783  0.00  0.00    +0.029 A 
ATOM     22  C   UNL     1       7.838  -9.841  -5.034  0.00  0.00    +0.013 A 
BRANCH  17  24
ATOM     23  C   UNL     1       6.564 -10.126  -7.656  0.00  0.00    +0.091 C 
ATOM     24  C   UNL     1       8.062 -10.076  -7.500  0.00  0.00    +0.160 C 
ATOM     25  O   UNL     1       8.777 -10.155  -8.477  0.00  0.00    -0.292 OA
ENDBRANCH  17  24
ENDBRANCH  14  20
ENDBRANCH  12  14
ENDBRANCH  11  12
ENDBRANCH  10  11
ENDBRANCH   9  10
ENDBRANCH   1   9
BRANCH   6  26
ATOM     26  C   UNL     1       5.107  -0.655   2.265  0.00  0.00    +0.119 C 
BRANCH  26  27
ATOM     27  C   UNL     1       3.725  -0.548   1.674  0.00  0.00    -0.030 A 
ATOM     28  C   UNL     1       2.885  -1.646   1.677  0.00  0.00    +0.009 A 
ATOM     29  C   UNL     1       1.617  -1.553   1.135  0.00  0.00    +0.050 A 
ATOM     30  C   UNL     1       1.183  -0.356   0.589  0.00  0.00    +0.166 A 
ATOM     31  C   UNL     1       2.028   0.751   0.586  0.00  0.00    +0.167 A 
ATOM     32  C   UNL     1       3.298   0.650   1.131  0.00  0.00    +0.054 A 
ATOM     33  O   UNL     1       1.376   1.797  -0.001  0.00  0.00    -0.453 OA
ATOM     34  C   UNL     1      -0.018   1.436   0.010  0.00  0.00    +0.466 C 
ATOM     35  O   UNL     1       0.002  -0.004   0.002  0.00  0.00    -0.453 OA
ENDBRANCH  26  27
ENDBRANCH   6  26
TORSDOF 9
