REMARK  Name = ZINC15835471
REMARK  6 active torsions:
REMARK  status: ('A' for Active; 'I' for Inactive)
REMARK    1  A    between atoms: C_1  and  N_2
REMARK    2  A    between atoms: N_2  and  C_3
REMARK    3  A    between atoms: C_3  and  C_5
REMARK    4  A    between atoms: C_3  and  C_11
REMARK    5  A    between atoms: C_21  and  C_23
REMARK    6  A    between atoms: C_27  and  N_29
REMARK                            x       y       z     vdW  Elec       q    Type
REMARK                         _______ _______ _______ _____ _____    ______ ____
ROOT
ATOM      1  C   UNL     1       0.934   7.587   0.050  0.00  0.00    +0.139 C 
ENDROOT
BRANCH   1   2
ATOM      2  C   UNL     1       1.857   7.885  -1.104  0.00  0.00    +0.002 A 
ATOM      3  C   UNL     1       2.665   7.013  -1.726  0.00  0.00    +0.089 A 
ATOM      4  N   UNL     1       3.353   7.645  -2.726  0.00  0.00    -0.360 N 
ATOM      5  H   UNL     1       3.996   7.220  -3.315  0.00  0.00    +0.165 HD
ATOM      6  C   UNL     1       2.994   8.974  -2.773  0.00  0.00    +0.047 A 
ATOM      7  C   UNL     1       2.038   9.181  -1.762  0.00  0.00    +0.005 A 
ATOM      8  C   UNL     1       1.485  10.450  -1.577  0.00  0.00    +0.010 A 
ATOM      9  C   UNL     1       1.874  11.484  -2.381  0.00  0.00    +0.001 A 
ATOM     10  C   UNL     1       2.814  11.283  -3.381  0.00  0.00    +0.002 A 
ATOM     11  C   UNL     1       3.378  10.041  -3.577  0.00  0.00    +0.026 A 
ENDBRANCH   1   2
BRANCH   1  12
ATOM     12  C   UNL     1       1.607   7.970   1.343  0.00  0.00    -0.023 A 
ATOM     13  C   UNL     1       2.764   7.325   1.738  0.00  0.00    +0.006 A 
ATOM     14  C   UNL     1       3.383   7.679   2.922  0.00  0.00    +0.000 A 
ATOM     15  C   UNL     1       2.840   8.672   3.716  0.00  0.00    +0.000 A 
ATOM     16  C   UNL     1       1.681   9.314   3.323  0.00  0.00    +0.000 A 
ATOM     17  C   UNL     1       1.064   8.963   2.137  0.00  0.00    +0.006 A 
ENDBRANCH   1  12
BRANCH   1  19
ATOM     18  C   UNL     1       1.047   5.327   1.198  0.00  0.00    +0.133 C 
ATOM     19  N   UNL     1       0.622   6.156   0.067  0.00  0.00    -0.289 N 
ATOM     20  C   UNL     1      -0.057   5.602  -0.957  0.00  0.00    +0.247 C 
ATOM     21  O   UNL     1      -0.336   6.270  -1.933  0.00  0.00    -0.270 OA
BRANCH  20  22
ATOM     22  C   UNL     1      -0.463   4.182  -0.892  0.00  0.00    +0.039 A 
ATOM     23  C   UNL     1       0.401   3.230  -0.348  0.00  0.00    +0.013 A 
ATOM     24  C   UNL     1       0.016   1.906  -0.291  0.00  0.00    +0.003 A 
ATOM     25  C   UNL     1      -1.223   1.522  -0.772  0.00  0.00    +0.033 A 
ATOM     26  C   UNL     1      -2.082   2.459  -1.318  0.00  0.00    +0.127 A 
ATOM     27  C   UNL     1      -1.712   3.787  -1.375  0.00  0.00    +0.045 A 
BRANCH  26  28
ATOM     28  N   UNL     1      -3.402   2.038  -1.836  0.00  0.00    +0.056 N 
ATOM     29  O   UNL     1      -3.732   0.866  -1.782  0.00  0.00    -0.126 OA
ATOM     30  O   UNL     1      -4.159   2.862  -2.317  0.00  0.00    -0.126 OA
ENDBRANCH  26  28
ENDBRANCH  20  22
ENDBRANCH   1  19
TORSDOF 5
