REMARK  Name = ZINC67177337
REMARK  6 active torsions:
REMARK  status: ('A' for Active; 'I' for Inactive)
REMARK    1  A    between atoms: C_1  and  C_2
REMARK    2  A    between atoms: C_2  and  C_3
REMARK    3  A    between atoms: C_2  and  C_4
REMARK    4  A    between atoms: C_7  and  C_11
REMARK    5  A    between atoms: C_8  and  O_10
REMARK    6  A    between atoms: C_17  and  C_20
REMARK                            x       y       z     vdW  Elec       q    Type
REMARK                         _______ _______ _______ _____ _____    ______ ____
ROOT
ATOM      1  C   UNL     1      -5.400  -1.990   0.056  0.00  0.00    +0.250 C 
ATOM      2  O   UNL     1      -5.831  -2.608  -0.898  0.00  0.00    -0.270 OA
ATOM      3  N   UNL     1      -6.191  -1.759   1.123  0.00  0.00    -0.292 N 
ATOM      4  C   UNL     1      -5.736  -0.906   2.232  0.00  0.00    +0.136 C 
ATOM      5  C   UNL     1      -6.822   0.137   2.517  0.00  0.00    +0.179 C 
ATOM      6  O   UNL     1      -8.076  -0.526   2.698  0.00  0.00    -0.369 OA
ATOM      7  C   UNL     1      -8.533  -1.238   1.546  0.00  0.00    +0.166 C 
ATOM      8  C   UNL     1      -7.537  -2.347   1.209  0.00  0.00    +0.144 C 
ENDROOT
BRANCH   7   9
ATOM      9  C   UNL     1      -9.885  -1.841   1.831  0.00  0.00    -0.015 A 
ATOM     10  C   UNL     1     -10.182  -2.303   3.099  0.00  0.00    +0.006 A 
ATOM     11  C   UNL     1     -11.421  -2.857   3.362  0.00  0.00    +0.003 A 
ATOM     12  C   UNL     1     -12.365  -2.948   2.356  0.00  0.00    +0.038 A 
ATOM     13  C   UNL     1     -12.069  -2.485   1.085  0.00  0.00    +0.124 A 
ATOM     14  C   UNL     1     -10.829  -1.926   0.825  0.00  0.00    +0.044 A 
ATOM     15  F   UNL     1     -12.990  -2.575   0.102  0.00  0.00    -0.205 F 
ENDBRANCH   7   9
BRANCH   1  19
ATOM     16  C   UNL     1      -1.400  -0.557   0.027  0.00  0.00    -0.041 A 
ATOM     17  C   UNL     1      -1.896  -1.206   1.147  0.00  0.00    +0.005 A 
ATOM     18  C   UNL     1      -3.192  -1.673   1.163  0.00  0.00    +0.017 A 
ATOM     19  C   UNL     1      -4.011  -1.492   0.046  0.00  0.00    +0.078 A 
ATOM     20  C   UNL     1      -3.506  -0.836  -1.085  0.00  0.00    +0.129 A 
ATOM     21  C   UNL     1      -2.201  -0.367  -1.081  0.00  0.00    +0.050 A 
BRANCH  16  23
ATOM     22  C   UNL     1       0.205   0.958   1.156  0.00  0.00    +0.012 C 
ATOM     23  C   UNL     1       0.019  -0.051   0.022  0.00  0.00    +0.013 C 
ATOM     24  C   UNL     1       0.980  -1.225   0.221  0.00  0.00    +0.012 C 
ENDBRANCH  16  23
BRANCH  20  25
ATOM     25  O   UNL     1      -4.292  -0.654  -2.175  0.00  0.00    -0.506 OA
ATOM     26  H   UNL     1      -4.795   0.172  -2.165  0.00  0.00    +0.292 HD
ENDBRANCH  20  25
ENDBRANCH   1  19
TORSDOF 4
