REMARK  Name = ZINC36628896
REMARK  13 active torsions:
REMARK  status: ('A' for Active; 'I' for Inactive)
REMARK    1  A    between atoms: C_1  and  C_2
REMARK    2  A    between atoms: C_2  and  C_3
REMARK    3  A    between atoms: C_3  and  N_4
REMARK    4  A    between atoms: C_10  and  N_16
REMARK    5  A    between atoms: C_11  and  C_12
REMARK    6  A    between atoms: C_12  and  O_14
REMARK    7  A    between atoms: O_14  and  C_15
REMARK    8  A    between atoms: C_17  and  C_19
REMARK    9  A    between atoms: C_19  and  O_20
REMARK   10  A    between atoms: O_20  and  C_21
REMARK   11  A    between atoms: C_24  and  C_27
REMARK   12  A    between atoms: C_27  and  C_28
REMARK   13  A    between atoms: C_27  and  C_29
REMARK                            x       y       z     vdW  Elec       q    Type
REMARK                         _______ _______ _______ _____ _____    ______ ____
ROOT
ATOM      1  N   UNL     1       0.738  -1.966  -1.265  0.00  0.00    +0.383 N 
ATOM      2  C   UNL     1       1.532  -2.438  -2.407  0.00  0.00    -0.074 C 
ATOM      3  C   UNL     1       1.827  -3.935  -2.263  0.00  0.00    +0.018 C 
ATOM      4  C   UNL     1       0.507  -4.650  -2.013  0.00  0.00    -0.025 A 
ATOM      5  C   UNL     1      -0.580  -3.951  -1.616  0.00  0.00    -0.021 A 
ATOM      6  S   UNL     1      -1.856  -5.162  -1.455  0.00  0.00    -0.079 S 
ATOM      7  C   UNL     1      -1.000  -6.541  -1.889  0.00  0.00    +0.086 A 
ATOM      8  C   UNL     1       0.279  -6.074  -2.162  0.00  0.00    +0.091 A 
ATOM      9  C   UNL     1      -0.641  -2.475  -1.376  0.00  0.00    -0.035 C 
ATOM     10  H   UNL     1       1.152  -2.301  -0.408  0.00  0.00    -0.081 HD
ENDROOT
BRANCH   7  11
ATOM     11  N   UNL     1      -1.463  -7.845  -1.957  0.00  0.00    -0.277 N 
ATOM     12  C   UNL     1      -2.747  -8.121  -1.653  0.00  0.00    +0.255 C 
ATOM     13  O   UNL     1      -3.497  -7.228  -1.321  0.00  0.00    -0.272 OA
ATOM     14  H   UNL     1      -0.864  -8.560  -2.223  0.00  0.00    +0.155 HD
BRANCH  12  15
ATOM     15  C   UNL     1      -3.251  -9.539  -1.728  0.00  0.00    +0.324 C 
BRANCH  15  16
ATOM     16  O   UNL     1      -4.632  -9.574  -1.363  0.00  0.00    -0.483 OA
BRANCH  16  17
ATOM     17  C   UNL     1      -5.244 -10.787  -1.378  0.00  0.00    +0.121 A 
ATOM     18  C   UNL     1      -4.529 -11.922  -1.731  0.00  0.00    +0.046 A 
ATOM     19  C   UNL     1      -5.153 -13.154  -1.745  0.00  0.00    +0.007 A 
ATOM     20  C   UNL     1      -6.490 -13.257  -1.408  0.00  0.00    -0.045 A 
ATOM     21  C   UNL     1      -7.205 -12.128  -1.056  0.00  0.00    +0.007 A 
ATOM     22  C   UNL     1      -6.584 -10.894  -1.034  0.00  0.00    +0.046 A 
BRANCH  20  23
ATOM     23  C   UNL     1      -7.168 -14.603  -1.425  0.00  0.00    +0.013 C 
ATOM     24  C   UNL     1      -7.701 -14.923  -0.026  0.00  0.00    +0.012 C 
ATOM     25  C   UNL     1      -8.331 -14.575  -2.419  0.00  0.00    +0.012 C 
ENDBRANCH  20  23
ENDBRANCH  16  17
ENDBRANCH  15  16
ENDBRANCH  12  15
ENDBRANCH   7  11
BRANCH   8  26
ATOM     26  C   UNL     1       1.349  -6.980  -2.584  0.00  0.00    +0.342 C 
ATOM     27  O   UNL     1       2.064  -7.505  -1.752  0.00  0.00    -0.245 OA
BRANCH  26  28
ATOM     28  O   UNL     1       1.542  -7.232  -3.895  0.00  0.00    -0.464 OA
ATOM     29  C   UNL     1       2.605  -8.125  -4.234  0.00  0.00    +0.280 C 
ENDBRANCH  26  28
ENDBRANCH   8  26
BRANCH   1  30
ATOM     30  C   UNL     1       0.718  -0.497  -1.257  0.00  0.00    -0.079 C 
BRANCH  30  32
ATOM     31  C   UNL     1      -0.019   1.526   0.010  0.00  0.00    +0.002 C 
ATOM     32  C   UNL     1       0.002  -0.004   0.002  0.00  0.00    -0.022 C 
ENDBRANCH  30  32
ENDBRANCH   1  30
TORSDOF 9
