REMARK  Name = ZINC11854536
REMARK  8 active torsions:
REMARK  status: ('A' for Active; 'I' for Inactive)
REMARK    1  A    between atoms: C_1  and  C_2
REMARK    2  A    between atoms: C_2  and  C_3
REMARK    3  A    between atoms: C_12  and  N_21
REMARK    4  A    between atoms: C_14  and  C_16
REMARK    5  A    between atoms: C_22  and  C_24
REMARK    6  A    between atoms: C_24  and  C_25
REMARK    7  A    between atoms: C_24  and  C_26
REMARK    8  A    between atoms: C_24  and  C_27
REMARK                            x       y       z     vdW  Elec       q    Type
REMARK                         _______ _______ _______ _____ _____    ______ ____
ROOT
ATOM      1  C   UNL     1      -3.933  -0.022   0.020  0.00  0.00    +0.050 A 
ATOM      2  C   UNL     1      -4.988   0.842   0.029  0.00  0.00    +0.093 A 
ATOM      3  C   UNL     1      -4.732   2.226   0.035  0.00  0.00    +0.253 A 
ATOM      4  O   UNL     1      -5.652   3.029   0.044  0.00  0.00    -0.268 OA
ATOM      5  N   UNL     1      -3.450   2.649   0.037  0.00  0.00    -0.291 N 
ATOM      6  H   UNL     1      -3.250   3.598   0.044  0.00  0.00    +0.172 HD
ATOM      7  C   UNL     1      -2.440   1.739   0.022  0.00  0.00    +0.234 A 
ATOM      8  N   UNL     1      -2.686   0.447   0.017  0.00  0.00    -0.217 NA
ATOM      9  N   UNL     1      -1.131   2.180   0.019  0.00  0.00    -0.185 N 
ATOM     10  C   UNL     1      -0.017   1.389   0.010  0.00  0.00    +0.132 A 
ATOM     11  C   UNL     1       1.068   2.204   0.004  0.00  0.00    +0.074 A 
ATOM     12  C   UNL     1       0.606   3.538   0.015  0.00  0.00    +0.102 A 
ATOM     13  N   UNL     1      -0.712   3.517   0.027  0.00  0.00    -0.162 NA
ENDROOT
BRANCH  12  14
ATOM     14  C   UNL     1       1.453   4.749   0.012  0.00  0.00    +0.039 A 
ATOM     15  C   UNL     1       1.077   6.065   0.022  0.00  0.00    +0.018 A 
ATOM     16  C   UNL     1       2.056   7.034   0.017  0.00  0.00    +0.008 A 
ATOM     17  C   UNL     1       3.360   6.656   0.003  0.00  0.00    +0.046 A 
ATOM     18  S   UNL     1       3.234   4.876   0.003  0.00  0.00    -0.095 S 
ENDBRANCH  12  14
BRANCH  10  19
ATOM     19  N   UNL     1       0.002  -0.004   0.002  0.00  0.00    -0.270 N 
ATOM     20  C   UNL     1       1.178  -0.662  -0.012  0.00  0.00    +0.225 C 
ATOM     21  O   UNL     1       2.220  -0.041  -0.018  0.00  0.00    -0.275 OA
ATOM     22  H   UNL     1      -0.831  -0.500   0.007  0.00  0.00    +0.156 HD
BRANCH  20  23
ATOM     23  C   UNL     1       1.199  -2.169  -0.021  0.00  0.00    +0.055 C 
ATOM     24  C   UNL     1       0.496  -2.695   1.232  0.00  0.00    +0.022 C 
ATOM     25  C   UNL     1       0.473  -2.682  -1.266  0.00  0.00    +0.022 C 
BRANCH  23  26
ATOM     26  C   UNL     1       2.648  -2.659  -0.036  0.00  0.00    +0.124 C 
ATOM     27 CL   UNL     1       2.672  -4.462  -0.046  0.00  0.00    -0.124 Cl
ENDBRANCH  23  26
ENDBRANCH  20  23
ENDBRANCH  10  19
BRANCH   1  29
ATOM     28  C   UNL     1      -4.143  -2.026  -1.426  0.00  0.00    +0.010 C 
ATOM     29  C   UNL     1      -4.177  -1.509   0.014  0.00  0.00    +0.052 C 
ENDBRANCH   1  29
TORSDOF 5
