REMARK  Name = ZINC52860610
REMARK  6 active torsions:
REMARK  status: ('A' for Active; 'I' for Inactive)
REMARK    1  A    between atoms: C_1  and  C_2
REMARK    2  A    between atoms: C_2  and  C_3
REMARK    3  A    between atoms: C_7  and  C_22
REMARK    4  A    between atoms: N_10  and  C_11
REMARK    5  A    between atoms: C_16  and  C_17
REMARK    6  A    between atoms: N_18  and  O_19
REMARK                            x       y       z     vdW  Elec       q    Type
REMARK                         _______ _______ _______ _____ _____    ______ ____
ROOT
ATOM      1  C   UNL     1       2.546   0.756  -2.211  0.00  0.00    +0.041 A 
ATOM      2  C   UNL     1       2.749   2.057  -1.770  0.00  0.00    +0.025 A 
ATOM      3  C   UNL     1       3.297   2.998  -2.619  0.00  0.00    +0.022 A 
ATOM      4  C   UNL     1       3.647   2.652  -3.915  0.00  0.00    +0.042 A 
ATOM      5  C   UNL     1       3.452   1.364  -4.368  0.00  0.00    +0.033 A 
ATOM      6  C   UNL     1       2.904   0.402  -3.519  0.00  0.00    +0.040 A 
ATOM      7 CL   UNL     1       4.335   3.846  -4.971  0.00  0.00    -0.084 Cl
ENDROOT
BRANCH   1  13
ATOM      8  C   UNL     1       0.544  -0.450  -1.343  0.00  0.00    +0.099 C 
ATOM      9  C   UNL     1       0.319  -1.961  -1.471  0.00  0.00    +0.182 C 
ATOM     10  O   UNL     1       1.092  -2.639  -0.477  0.00  0.00    -0.373 OA
ATOM     11  C   UNL     1       2.504  -2.458  -0.610  0.00  0.00    +0.132 C 
ATOM     12  C   UNL     1       2.841  -0.973  -0.438  0.00  0.00    +0.136 C 
ATOM     13  N   UNL     1       1.993  -0.194  -1.355  0.00  0.00    -0.322 N 
ATOM     14  C   UNL     1       3.226  -3.276   0.462  0.00  0.00    +0.039 C 
BRANCH   8  16
ATOM     15  C   UNL     1       0.067   1.574   0.042  0.00  0.00    +0.006 C 
ATOM     16  C   UNL     1      -0.056   0.050  -0.028  0.00  0.00    +0.021 C 
ENDBRANCH   8  16
ENDBRANCH   1  13
BRANCH   6  17
ATOM     17  C   UNL     1       2.698  -0.981  -3.997  0.00  0.00    +0.164 C 
ATOM     18  N   UNL     1       2.300  -1.904  -3.169  0.00  0.00    -0.071 NA
ATOM     19  N   UNL     1       2.928  -1.296  -5.326  0.00  0.00    -0.340 N 
ATOM     20  H   UNL     1       3.224  -0.609  -5.943  0.00  0.00    +0.144 HD
ATOM     21  H   UNL     1       2.792  -2.204  -5.640  0.00  0.00    +0.144 HD
BRANCH  18  22
ATOM     22  O   UNL     1       2.103  -3.229  -3.627  0.00  0.00    -0.408 OA
ATOM     23  H   UNL     1       1.807  -3.842  -2.941  0.00  0.00    +0.328 HD
ENDBRANCH  18  22
ENDBRANCH   6  17
TORSDOF 4
