REMARK  Name = ZINC17838129
REMARK  5 active torsions:
REMARK  status: ('A' for Active; 'I' for Inactive)
REMARK    1  A    between atoms: C_1  and  C_2
REMARK    2  A    between atoms: N_10  and  N_11
REMARK    3  A    between atoms: C_12  and  C_14
REMARK    4  A    between atoms: C_14  and  C_15
REMARK    5  A    between atoms: C_15  and  C_16
REMARK                            x       y       z     vdW  Elec       q    Type
REMARK                         _______ _______ _______ _____ _____    ______ ____
ROOT
ATOM      1  C   UNL     1      -0.018   1.503   0.010  0.00  0.00    +0.045 C 
ATOM      2  C   UNL     1       0.002  -0.004   0.002  0.00  0.00    -0.036 A 
ATOM      3  C   UNL     1       0.006  -0.689  -1.201  0.00  0.00    +0.006 A 
ATOM      4  C   UNL     1       0.025  -2.069  -1.225  0.00  0.00    +0.024 A 
ATOM      5  C   UNL     1       0.041  -2.788  -0.034  0.00  0.00    +0.044 A 
ATOM      6  C   UNL     1       0.037  -2.092   1.181  0.00  0.00    +0.042 A 
ATOM      7  C   UNL     1       0.023  -0.701   1.195  0.00  0.00    +0.032 A 
ATOM      8 BR   UNL     1       0.026   0.233   2.840  0.00  0.00    -0.049 Br
ATOM      9  C   UNL     1       0.057  -3.117   2.251  0.00  0.00    +0.154 C 
ATOM     10  N   UNL     1       0.060  -2.918   3.546  0.00  0.00    -0.174 NA
ATOM     11  C   UNL     1       0.072  -4.411   1.538  0.00  0.00    +0.269 C 
ATOM     12  O   UNL     1       0.089  -5.512   2.054  0.00  0.00    -0.268 OA
ATOM     13  N   UNL     1       0.061  -4.155   0.219  0.00  0.00    -0.280 N 
ATOM     14  H   UNL     1       0.068  -4.838  -0.470  0.00  0.00    +0.155 HD
ENDROOT
BRANCH  10  15
ATOM     15  N   UNL     1       0.080  -4.012   4.422  0.00  0.00    -0.206 N 
ATOM     16  C   UNL     1       0.084  -3.808   5.754  0.00  0.00    +0.233 C 
ATOM     17  O   UNL     1       0.069  -2.678   6.195  0.00  0.00    -0.274 OA
ATOM     18  H   UNL     1       0.091  -4.915   4.070  0.00  0.00    +0.177 HD
BRANCH  16  19
ATOM     19  C   UNL     1       0.105  -4.984   6.696  0.00  0.00    +0.102 C 
BRANCH  19  20
ATOM     20  C   UNL     1       0.105  -4.480   8.141  0.00  0.00    +0.044 C 
BRANCH  20  21
ATOM     21  C   UNL     1       0.126  -5.656   9.083  0.00  0.00    -0.047 A 
ATOM     22  C   UNL     1      -1.061  -6.216   9.517  0.00  0.00    +0.003 A 
ATOM     23  C   UNL     1      -1.041  -7.295  10.381  0.00  0.00    +0.000 A 
ATOM     24  C   UNL     1       0.166  -7.814  10.811  0.00  0.00    +0.000 A 
ATOM     25  C   UNL     1       1.353  -7.254  10.377  0.00  0.00    +0.000 A 
ATOM     26  C   UNL     1       1.333  -6.178   9.510  0.00  0.00    +0.003 A 
ENDBRANCH  20  21
ENDBRANCH  19  20
ENDBRANCH  16  19
ENDBRANCH  10  15
TORSDOF 4
