REMARK  Name = ZINC24173857
REMARK  8 active torsions:
REMARK  status: ('A' for Active; 'I' for Inactive)
REMARK    1  A    between atoms: C_4  and  C_7
REMARK    2  A    between atoms: C_7  and  C_8
REMARK    3  A    between atoms: C_8  and  C_10
REMARK    4  A    between atoms: C_8  and  N_16
REMARK    5  A    between atoms: C_17  and  C_19
REMARK    6  A    between atoms: C_19  and  N_20
REMARK    7  A    between atoms: N_20  and  S_26
REMARK    8  A    between atoms: S_26  and  C_29
REMARK                            x       y       z     vdW  Elec       q    Type
REMARK                         _______ _______ _______ _____ _____    ______ ____
ROOT
ATOM      1  N   UNL     1       2.039  -2.955  -3.801  0.00  0.00    -0.307 N 
ATOM      2  C   UNL     1       2.630  -1.984  -3.078  0.00  0.00    +0.233 C 
ATOM      3  O   UNL     1       2.134  -0.878  -3.029  0.00  0.00    -0.274 OA
ATOM      4  H   UNL     1       2.489  -3.958  -3.846  0.00  0.00    +0.149 HD
ENDROOT
BRANCH   1   5
ATOM      5  C   UNL     1       0.797  -2.676  -4.527  0.00  0.00    +0.107 C 
BRANCH   5   6
ATOM      6  C   UNL     1      -0.377  -2.852  -3.599  0.00  0.00    -0.027 A 
ATOM      7  C   UNL     1      -0.395  -3.900  -2.697  0.00  0.00    +0.005 A 
ATOM      8  C   UNL     1      -1.470  -4.058  -1.843  0.00  0.00    +0.000 A 
ATOM      9  C   UNL     1      -2.532  -3.175  -1.897  0.00  0.00    +0.000 A 
ATOM     10  C   UNL     1      -2.516  -2.130  -2.801  0.00  0.00    +0.000 A 
ATOM     11  C   UNL     1      -1.439  -1.968  -3.653  0.00  0.00    +0.005 A 
ENDBRANCH   5   6
BRANCH   5  12
ATOM     12  C   UNL     1       0.666  -3.645  -5.704  0.00  0.00    +0.062 C 
BRANCH  12  16
ATOM     13  C   UNL     1       3.803  -2.910  -8.509  0.00  0.00    +0.000 A 
ATOM     14  C   UNL     1       3.991  -3.818  -7.484  0.00  0.00    +0.000 A 
ATOM     15  C   UNL     1       2.976  -4.056  -6.576  0.00  0.00    +0.004 A 
ATOM     16  C   UNL     1       1.772  -3.385  -6.694  0.00  0.00    -0.045 A 
ATOM     17  C   UNL     1       1.582  -2.481  -7.722  0.00  0.00    +0.004 A 
ATOM     18  C   UNL     1       2.599  -2.240  -8.627  0.00  0.00    +0.000 A 
ENDBRANCH  12  16
ENDBRANCH   5  12
ENDBRANCH   1   5
BRANCH   2  19
ATOM     19  C   UNL     1       3.907  -2.271  -2.332  0.00  0.00    +0.229 C 
BRANCH  19  20
ATOM     20  N   UNL     1       4.345  -1.062  -1.630  0.00  0.00    -0.171 N 
ATOM     21  C   UNL     1       5.103  -0.110  -2.294  0.00  0.00    +0.180 A 
ATOM     22  N   UNL     1       5.581   1.033  -1.841  0.00  0.00    -0.232 NA
ATOM     23  C   UNL     1       6.296   1.829  -2.615  0.00  0.00    +0.120 A 
ATOM     24  C   UNL     1       6.521   1.452  -3.896  0.00  0.00    +0.068 A 
ATOM     25  S   UNL     1       5.660  -0.113  -3.939  0.00  0.00    -0.059 S 
BRANCH  20  26
ATOM     26  S   UNL     1       3.934  -0.832  -0.042  0.00  0.00    +0.077 S 
ATOM     27  O   UNL     1       4.902   0.054   0.504  0.00  0.00    -0.150 OA
ATOM     28  O   UNL     1       3.686  -2.120   0.504  0.00  0.00    -0.150 OA
BRANCH  26  29
ATOM     29  C   UNL     1       2.396   0.029  -0.022  0.00  0.00    +0.109 A 
ATOM     30  C   UNL     1       1.208  -0.679  -0.014  0.00  0.00    +0.029 A 
ATOM     31  C   UNL     1       0.002  -0.004   0.002  0.00  0.00    +0.002 A 
ATOM     32  C   UNL     1      -0.017   1.378   0.010  0.00  0.00    +0.000 A 
ATOM     33  C   UNL     1       1.171   2.086   0.002  0.00  0.00    +0.002 A 
ATOM     34  C   UNL     1       2.377   1.411  -0.014  0.00  0.00    +0.029 A 
ENDBRANCH  26  29
ENDBRANCH  20  26
ENDBRANCH  19  20
ENDBRANCH   2  19
TORSDOF 8
