REMARK  Name = ZINC62926138
REMARK  6 active torsions:
REMARK  status: ('A' for Active; 'I' for Inactive)
REMARK    1  A    between atoms: C_1  and  C_2
REMARK    2  A    between atoms: C_2  and  C_3
REMARK    3  A    between atoms: C_3  and  C_4
REMARK    4  A    between atoms: C_4  and  C_21
REMARK    5  A    between atoms: N_11  and  C_12
REMARK    6  A    between atoms: C_18  and  N_20
REMARK                            x       y       z     vdW  Elec       q    Type
REMARK                         _______ _______ _______ _____ _____    ______ ____
ROOT
ATOM      1  C   UNL     1      -1.413  -2.063   0.004  0.00  0.00    +0.089 C 
ATOM      2  C   UNL     1      -2.854  -2.620  -0.059  0.00  0.00    +0.039 C 
ATOM      3  C   UNL     1      -3.046  -2.908  -1.569  0.00  0.00    +0.110 C 
ATOM      4  N   UNL     1      -1.717  -3.407  -1.991  0.00  0.00    -0.285 N 
ATOM      5  C   UNL     1      -0.727  -2.582  -1.274  0.00  0.00    +0.127 C 
ATOM      6  C   UNL     1      -1.464  -4.411  -2.854  0.00  0.00    +0.302 C 
ATOM      7  O   UNL     1      -0.316  -4.718  -3.111  0.00  0.00    -0.253 OA
ATOM      8  N   UNL     1      -2.484  -5.075  -3.433  0.00  0.00    -0.298 N 
ATOM      9  H   UNL     1      -3.400  -4.831  -3.228  0.00  0.00    +0.150 HD
ENDROOT
BRANCH   8  10
ATOM     10  C   UNL     1      -2.209  -6.167  -4.371  0.00  0.00    +0.060 C 
ATOM     11  C   UNL     1      -1.997  -7.467  -3.593  0.00  0.00    +0.021 C 
ATOM     12  C   UNL     1      -1.709  -8.607  -4.572  0.00  0.00    +0.002 C 
ATOM     13  C   UNL     1      -2.895  -8.770  -5.526  0.00  0.00    -0.001 C 
ATOM     14  C   UNL     1      -3.107  -7.470  -6.304  0.00  0.00    -0.014 C 
ATOM     15  C   UNL     1      -3.394  -6.331  -5.324  0.00  0.00    -0.054 C 
BRANCH  15  16
ATOM     16  N   UNL     1      -3.598  -5.082  -6.072  0.00  0.00    +0.381 N 
ATOM     17  H   UNL     1      -2.766  -4.869  -6.602  0.00  0.00    -0.090 HD
ATOM     18  H   UNL     1      -4.379  -5.190  -6.700  0.00  0.00    -0.090 HD
ATOM     19  H   UNL     1      -3.787  -4.331  -5.426  0.00  0.00    -0.090 HD
ENDBRANCH  15  16
ENDBRANCH   8  10
BRANCH   1  20
ATOM     20  C   UNL     1      -0.702  -2.583   1.227  0.00  0.00    +0.364 C 
ATOM     21  O   UNL     1      -0.256  -1.803   2.051  0.00  0.00    -0.246 OA
ATOM     22  O   UNL     1      -0.572  -3.784   1.393  0.00  0.00    -0.246 OA
ENDBRANCH   1  20
BRANCH   1  23
ATOM     23  C   UNL     1      -1.433  -0.534   0.013  0.00  0.00    +0.019 C 
BRANCH  23  25
ATOM     24  C   UNL     1      -0.019   1.526   0.010  0.00  0.00    +0.004 C 
ATOM     25  C   UNL     1       0.002  -0.004   0.002  0.00  0.00    -0.002 C 
ENDBRANCH  23  25
ENDBRANCH   1  23
TORSDOF 5
