REMARK  Name = ZINC39523553
REMARK  4 active torsions:
REMARK  status: ('A' for Active; 'I' for Inactive)
REMARK    1  A    between atoms: C_1  and  O_2
REMARK    2  A    between atoms: O_2  and  C_3
REMARK    3  A    between atoms: C_13  and  C_17
REMARK    4  A    between atoms: C_22  and  O_23
REMARK                            x       y       z     vdW  Elec       q    Type
REMARK                         _______ _______ _______ _____ _____    ______ ____
ROOT
ATOM      1  C   UNL     1       0.673  -0.582   1.123  0.00  0.00    +0.120 C 
ATOM      2  C   UNL     1      -0.329  -0.810   2.256  0.00  0.00    +0.032 C 
ATOM      3  C   UNL     1       0.389  -1.429   3.457  0.00  0.00    +0.004 C 
ATOM      4  C   UNL     1       1.008  -2.767   3.046  0.00  0.00    +0.025 C 
ATOM      5  C   UNL     1       2.011  -2.539   1.914  0.00  0.00    +0.055 C 
ATOM      6  C   UNL     1       1.291  -1.921   0.713  0.00  0.00    +0.056 C 
ATOM      7  C   UNL     1       3.111  -1.589   2.392  0.00  0.00    +0.025 C 
ATOM      8  C   UNL     1       3.843  -2.220   3.579  0.00  0.00    +0.004 C 
ATOM      9  C   UNL     1       4.413  -3.576   3.156  0.00  0.00    +0.026 C 
ATOM     10  C   UNL     1       3.275  -4.468   2.656  0.00  0.00    +0.123 C 
ATOM     11  N   UNL     1       2.607  -3.822   1.520  0.00  0.00    -0.132 NA
ATOM     12  F   UNL     1       1.714  -4.609   0.995  0.00  0.00    -0.132 F 
ENDROOT
BRANCH  10  13
ATOM     13  C   UNL     1       3.834  -5.798   2.220  0.00  0.00    +0.014 A 
ATOM     14  C   UNL     1       4.150  -6.013   0.892  0.00  0.00    +0.009 A 
ATOM     15  C   UNL     1       4.662  -7.233   0.491  0.00  0.00    +0.001 A 
ATOM     16  C   UNL     1       4.860  -8.241   1.417  0.00  0.00    +0.004 A 
ATOM     17  C   UNL     1       4.546  -8.031   2.745  0.00  0.00    +0.046 A 
ATOM     18  C   UNL     1       4.037  -6.806   3.152  0.00  0.00    +0.122 A 
BRANCH  18  19
ATOM     19  O   UNL     1       3.733  -6.595   4.459  0.00  0.00    -0.506 OA
ATOM     20  H   UNL     1       2.825  -6.831   4.695  0.00  0.00    +0.292 HD
ENDBRANCH  18  19
ENDBRANCH  10  13
BRANCH   1  22
ATOM     21  C   UNL     1      -0.017   1.425   0.010  0.00  0.00    +0.194 C 
ATOM     22  O   UNL     1       0.002  -0.004   0.002  0.00  0.00    -0.380 OA
ENDBRANCH   1  22
TORSDOF 3
