REMARK  Name = ZINC05538376
REMARK  9 active torsions:
REMARK  status: ('A' for Active; 'I' for Inactive)
REMARK    1  A    between atoms: C_1  and  C_2
REMARK    2  A    between atoms: C_2  and  N_3
REMARK    3  A    between atoms: C_4  and  C_22
REMARK    4  A    between atoms: C_7  and  S_8
REMARK    5  A    between atoms: S_8  and  C_9
REMARK    6  A    between atoms: C_9  and  C_10
REMARK    7  A    between atoms: N_12  and  C_13
REMARK    8  A    between atoms: C_19  and  C_21
REMARK    9  A    between atoms: C_22  and  N_23
REMARK                            x       y       z     vdW  Elec       q    Type
REMARK                         _______ _______ _______ _____ _____    ______ ____
ROOT
ATOM      1  N   UNL     1       0.816  -0.509  -1.682  0.00  0.00    -0.305 N 
ATOM      2  C   UNL     1      -0.062  -0.748  -2.703  0.00  0.00    +0.152 A 
ATOM      3  N   UNL     1       0.606  -1.320  -3.664  0.00  0.00    -0.132 NA
ATOM      4  N   UNL     1       1.838  -1.458  -3.323  0.00  0.00    -0.122 NA
ATOM      5  C   UNL     1       2.024  -0.973  -2.117  0.00  0.00    +0.192 A 
ENDROOT
BRANCH   1   7
ATOM      6  C   UNL     1       0.599   1.641  -0.536  0.00  0.00    +0.027 C 
ATOM      7  C   UNL     1       0.522   0.119  -0.392  0.00  0.00    +0.122 C 
ENDBRANCH   1   7
BRANCH   5   8
ATOM      8  S   UNL     1       3.545  -0.931  -1.228  0.00  0.00    -0.077 S 
BRANCH   8   9
ATOM      9  C   UNL     1       4.737  -1.696  -2.362  0.00  0.00    +0.173 C 
BRANCH   9  10
ATOM     10  C   UNL     1       6.098  -1.723  -1.715  0.00  0.00    +0.224 C 
ATOM     11  O   UNL     1       6.249  -1.272  -0.600  0.00  0.00    -0.275 OA
ATOM     12  N   UNL     1       7.147  -2.250  -2.377  0.00  0.00    -0.312 N 
ATOM     13  H   UNL     1       7.027  -2.611  -3.269  0.00  0.00    +0.149 HD
BRANCH  12  14
ATOM     14  C   UNL     1       8.471  -2.277  -1.748  0.00  0.00    +0.076 C 
ATOM     15  C   UNL     1       9.177  -0.941  -1.988  0.00  0.00    +0.022 C 
ATOM     16  C   UNL     1      10.559  -0.969  -1.332  0.00  0.00    +0.002 C 
ATOM     17  C   UNL     1      11.389  -2.101  -1.940  0.00  0.00    +0.000 C 
ATOM     18  C   UNL     1      10.683  -3.437  -1.700  0.00  0.00    +0.005 C 
ATOM     19  C   UNL     1       9.301  -3.409  -2.356  0.00  0.00    +0.006 C 
ATOM     20  C   UNL     1       8.595  -4.745  -2.116  0.00  0.00    +0.009 C 
ENDBRANCH  12  14
ENDBRANCH   9  10
ENDBRANCH   8   9
ENDBRANCH   5   8
BRANCH   2  21
ATOM     21  C   UNL     1      -1.531  -0.411  -2.714  0.00  0.00    +0.184 C 
BRANCH  21  22
ATOM     22  N   UNL     1      -2.306  -1.594  -2.331  0.00  0.00    -0.294 N 
ATOM     23  C   UNL     1      -2.647  -2.605  -3.345  0.00  0.00    +0.108 C 
ATOM     24  C   UNL     1      -1.805  -3.857  -3.090  0.00  0.00    +0.019 C 
ATOM     25  C   UNL     1      -2.483  -4.769  -2.084  0.00  0.00    +0.002 C 
ATOM     26  C   UNL     1      -2.563  -4.186  -0.685  0.00  0.00    +0.009 C 
ATOM     27  C   UNL     1      -3.493  -2.970  -0.657  0.00  0.00    +0.096 C 
ATOM     28  C   UNL     1      -2.693  -1.751  -1.064  0.00  0.00    +0.216 C 
ATOM     29  O   UNL     1      -2.407  -0.911  -0.237  0.00  0.00    -0.276 OA
ENDBRANCH  21  22
ENDBRANCH   2  21
TORSDOF 7
