REMARK  Name = ZINC15089135
REMARK  9 active torsions:
REMARK  status: ('A' for Active; 'I' for Inactive)
REMARK    1  A    between atoms: C_1  and  C_2
REMARK    2  A    between atoms: C_3  and  N_15
REMARK    3  A    between atoms: N_6  and  C_9
REMARK    4  A    between atoms: N_7  and  C_8
REMARK    5  A    between atoms: C_16  and  C_18
REMARK    6  A    between atoms: C_18  and  C_20
REMARK    7  A    between atoms: C_18  and  O_21
REMARK    8  A    between atoms: O_21  and  C_22
REMARK    9  A    between atoms: C_22  and  C_24
REMARK                            x       y       z     vdW  Elec       q    Type
REMARK                         _______ _______ _______ _____ _____    ______ ____
ROOT
ATOM      1  N   UNL     1      -3.093  -5.395  -1.099  0.00  0.00    -0.277 N 
ATOM      2  C   UNL     1      -2.336  -4.291  -0.945  0.00  0.00    +0.258 C 
ATOM      3  O   UNL     1      -1.176  -4.296  -1.301  0.00  0.00    -0.271 OA
ATOM      4  H   UNL     1      -3.998  -5.415  -0.749  0.00  0.00    +0.155 HD
ENDROOT
BRANCH   1   7
ATOM      5  C   UNL     1      -2.898  -8.211   0.101  0.00  0.00    +0.067 C 
ATOM      6  C   UNL     1      -2.470  -7.772  -1.275  0.00  0.00    +0.059 A 
ATOM      7  C   UNL     1      -2.572  -6.519  -1.771  0.00  0.00    +0.121 A 
ATOM      8  C   UNL     1      -2.047  -6.548  -3.136  0.00  0.00    +0.293 A 
ATOM      9  O   UNL     1      -1.976  -5.607  -3.906  0.00  0.00    -0.264 OA
ATOM     10  N   UNL     1      -1.651  -7.815  -3.378  0.00  0.00    -0.216 N 
ATOM     11  N   UNL     1      -1.914  -8.577  -2.234  0.00  0.00    -0.282 N 
ATOM     12  C   UNL     1      -1.637 -10.008  -2.085  0.00  0.00    +0.171 C 
BRANCH  10  13
ATOM     13  C   UNL     1      -1.084  -8.286  -4.566  0.00  0.00    +0.067 A 
ATOM     14  C   UNL     1       0.066  -9.063  -4.528  0.00  0.00    +0.028 A 
ATOM     15  C   UNL     1       0.620  -9.532  -5.703  0.00  0.00    +0.002 A 
ATOM     16  C   UNL     1       0.037  -9.218  -6.918  0.00  0.00    +0.000 A 
ATOM     17  C   UNL     1      -1.104  -8.438  -6.959  0.00  0.00    +0.002 A 
ATOM     18  C   UNL     1      -1.667  -7.972  -5.787  0.00  0.00    +0.028 A 
ENDBRANCH  10  13
ENDBRANCH   1   7
BRANCH   2  19
ATOM     19  C   UNL     1      -2.929  -3.050  -0.329  0.00  0.00    +0.259 C 
ATOM     20  C   UNL     1      -3.301  -3.332   1.128  0.00  0.00    +0.062 C 
BRANCH  19  21
ATOM     21  O   UNL     1      -1.957  -1.972  -0.380  0.00  0.00    -0.448 OA
BRANCH  21  22
ATOM     22  C   UNL     1      -2.440  -0.716  -0.475  0.00  0.00    +0.347 C 
ATOM     23  O   UNL     1      -3.641  -0.528  -0.513  0.00  0.00    -0.244 OA
BRANCH  22  24
ATOM     24  C   UNL     1      -1.518   0.420  -0.531  0.00  0.00    +0.097 A 
ATOM     25  C   UNL     1      -1.802   1.771  -0.628  0.00  0.00    +0.026 A 
ATOM     26  C   UNL     1      -0.737   2.661  -0.671  0.00  0.00    -0.036 A 
ATOM     27  C   UNL     1       0.503   2.127  -0.589  0.00  0.00    -0.006 A 
ATOM     28  S   UNL     1       0.267   0.426  -0.494  0.00  0.00    -0.086 S 
ATOM     29  C   UNL     1       1.812   2.883  -0.553  0.00  0.00    +0.043 C 
ATOM     30  C   UNL     1       2.007   3.521  -1.939  0.00  0.00    +0.005 C 
ATOM     31  C   UNL     1       1.167   4.771  -2.062  0.00  0.00    +0.001 C 
ATOM     32  C   UNL     1      -0.321   4.569  -2.182  0.00  0.00    +0.005 C 
ATOM     33  C   UNL     1      -0.955   4.169  -0.848  0.00  0.00    +0.036 C 
ENDBRANCH  22  24
ENDBRANCH  21  22
ENDBRANCH  19  21
ENDBRANCH   2  19
TORSDOF 6
