REMARK  Name = ZINC33697644
REMARK  8 active torsions:
REMARK  status: ('A' for Active; 'I' for Inactive)
REMARK    1  A    between atoms: C_1  and  C_2
REMARK    2  A    between atoms: C_2  and  O_3
REMARK    3  A    between atoms: O_3  and  C_4
REMARK    4  A    between atoms: C_7  and  C_10
REMARK    5  A    between atoms: N_18  and  C_21
REMARK    6  A    between atoms: C_25  and  C_27
REMARK    7  A    between atoms: C_32  and  N_36
REMARK    8  A    between atoms: C_33  and  C_34
REMARK                            x       y       z     vdW  Elec       q    Type
REMARK                         _______ _______ _______ _____ _____    ______ ____
ROOT
ATOM      1  C   UNL     1      -2.001  -6.092  -0.011  0.00  0.00    +0.075 C 
ATOM      2  C   UNL     1      -2.551  -6.489   1.302  0.00  0.00    +0.110 C 
ATOM      3  C   UNL     1      -3.162  -7.894   1.423  0.00  0.00    +0.152 C 
ATOM      4  C   UNL     1      -3.907  -7.707   2.756  0.00  0.00    +0.240 C 
ATOM      5  O   UNL     1      -4.175  -8.576   3.558  0.00  0.00    -0.274 OA
ATOM      6  N   UNL     1      -4.205  -6.397   2.867  0.00  0.00    -0.209 N 
ATOM      7  C   UNL     1      -3.587  -5.626   1.954  0.00  0.00    +0.232 C 
ATOM      8  O   UNL     1      -3.816  -4.459   1.721  0.00  0.00    -0.274 OA
ATOM      9  S   UNL     1      -4.441  -8.108   0.145  0.00  0.00    -0.096 S 
ATOM     10  C   UNL     1      -3.776  -7.330  -1.281  0.00  0.00    +0.074 C 
ATOM     11  C   UNL     1      -2.786  -6.452  -1.219  0.00  0.00    +0.064 C 
ENDROOT
BRANCH   1  15
ATOM     12  C   UNL     1      -1.498  -1.848   0.007  0.00  0.00    +0.121 A 
ATOM     13  C   UNL     1      -2.674  -2.407  -0.473  0.00  0.00    +0.046 A 
ATOM     14  C   UNL     1      -2.834  -3.779  -0.478  0.00  0.00    +0.008 A 
ATOM     15  C   UNL     1      -1.823  -4.596  -0.005  0.00  0.00    -0.038 A 
ATOM     16  C   UNL     1      -0.651  -4.041   0.475  0.00  0.00    +0.008 A 
ATOM     17  C   UNL     1      -0.484  -2.670   0.476  0.00  0.00    +0.046 A 
BRANCH  12  18
ATOM     18  O   UNL     1      -1.339  -0.499   0.013  0.00  0.00    -0.492 OA
BRANCH  18  20
ATOM     19  C   UNL     1      -2.064   1.770  -0.400  0.00  0.00    +0.048 C 
ATOM     20  C   UNL     1      -2.425   0.285  -0.485  0.00  0.00    +0.225 C 
ENDBRANCH  18  20
ENDBRANCH  12  18
ENDBRANCH   1  15
BRANCH   6  21
ATOM     21  C   UNL     1      -5.094  -5.894   3.827  0.00  0.00    +0.044 A 
ATOM     22  C   UNL     1      -5.361  -4.532   3.881  0.00  0.00    +0.024 A 
ATOM     23  C   UNL     1      -6.237  -4.039   4.827  0.00  0.00    +0.002 A 
ATOM     24  C   UNL     1      -6.849  -4.899   5.721  0.00  0.00    +0.012 A 
ATOM     25  C   UNL     1      -6.585  -6.255   5.669  0.00  0.00    +0.057 A 
ATOM     26  C   UNL     1      -5.713  -6.756   4.721  0.00  0.00    +0.036 A 
BRANCH  25  27
ATOM     27  C   UNL     1      -7.253  -7.190   6.645  0.00  0.00    +0.417 C 
ATOM     28  F   UNL     1      -8.088  -6.457   7.495  0.00  0.00    -0.166 F 
ATOM     29  F   UNL     1      -8.013  -8.131   5.943  0.00  0.00    -0.166 F 
ATOM     30  F   UNL     1      -6.278  -7.849   7.402  0.00  0.00    -0.166 F 
ENDBRANCH  25  27
ENDBRANCH   6  21
BRANCH  10  31
ATOM     31  N   UNL     1      -4.333  -7.611  -2.506  0.00  0.00    -0.352 N 
ATOM     32  H   UNL     1      -5.079  -8.228  -2.570  0.00  0.00    +0.143 HD
ATOM     33  H   UNL     1      -3.980  -7.192  -3.307  0.00  0.00    +0.143 HD
ENDBRANCH  10  31
BRANCH  11  34
ATOM     34  C   UNL     1      -2.405  -5.829  -2.451  0.00  0.00    +0.098 C 
ATOM     35  N   UNL     1      -2.103  -5.334  -3.428  0.00  0.00    -0.191 NA
ENDBRANCH  11  34
TORSDOF 7
