REMARK  Name = ZINC11663443
REMARK  3 active torsions:
REMARK  status: ('A' for Active; 'I' for Inactive)
REMARK    1  A    between atoms: C_1  and  C_2
REMARK    2  A    between atoms: C_6  and  C_8
REMARK    3  A    between atoms: C_23  and  C_25
REMARK                            x       y       z     vdW  Elec       q    Type
REMARK                         _______ _______ _______ _____ _____    ______ ____
ROOT
ATOM      1  C   UNL     1       0.053  -3.223   1.580  0.00  0.00    +0.283 C 
ATOM      2  O   UNL     1       0.102  -2.253   0.848  0.00  0.00    -0.267 OA
ATOM      3  N   UNL     1      -0.045  -3.056   2.914  0.00  0.00    -0.286 N 
ATOM      4  C   UNL     1      -0.178  -1.713   3.498  0.00  0.00    +0.113 C 
ATOM      5  C   UNL     1      -1.545  -1.603   4.186  0.00  0.00    +0.056 C 
ATOM      6  C   UNL     1      -1.784  -2.847   5.002  0.00  0.00    -0.016 A 
ATOM      7  C   UNL     1      -2.738  -3.047   6.075  0.00  0.00    +0.003 A 
ATOM      8  C   UNL     1      -3.686  -2.208   6.669  0.00  0.00    +0.010 A 
ATOM      9  C   UNL     1      -4.437  -2.742   7.686  0.00  0.00    +0.001 A 
ATOM     10  C   UNL     1      -4.274  -4.050   8.113  0.00  0.00    +0.002 A 
ATOM     11  C   UNL     1      -3.343  -4.902   7.544  0.00  0.00    +0.026 A 
ATOM     12  C   UNL     1      -2.566  -4.386   6.508  0.00  0.00    +0.047 A 
ATOM     13  N   UNL     1      -1.580  -4.938   5.742  0.00  0.00    -0.356 N 
ATOM     14  H   UNL     1      -1.256  -5.849   5.820  0.00  0.00    +0.166 HD
ATOM     15  C   UNL     1      -1.117  -4.011   4.847  0.00  0.00    +0.041 A 
ATOM     16  C   UNL     1      -0.027  -4.215   3.823  0.00  0.00    +0.126 C 
ENDROOT
BRANCH   1  22
ATOM     17  C   UNL     1       0.287  -8.185   1.224  0.00  0.00    +0.067 C 
ATOM     18  C   UNL     1       0.202  -6.729   0.845  0.00  0.00    +0.057 A 
ATOM     19  C   UNL     1       0.135  -6.240  -0.418  0.00  0.00    +0.107 A 
ATOM     20  N   UNL     1       0.072  -4.891  -0.322  0.00  0.00    -0.340 N 
ATOM     21  H   UNL     1       0.016  -4.263  -1.059  0.00  0.00    +0.167 HD
ATOM     22  C   UNL     1       0.101  -4.581   1.009  0.00  0.00    +0.194 A 
ATOM     23  N   UNL     1       0.174  -5.703   1.693  0.00  0.00    -0.229 NA
ENDBRANCH   1  22
BRANCH  16  24
ATOM     24  C   UNL     1       1.329  -4.303   4.526  0.00  0.00    +0.015 C 
ATOM     25  C   UNL     1       1.338  -5.509   5.468  0.00  0.00    +0.006 C 
ATOM     26  C   UNL     1       2.694  -5.598   6.170  0.00  0.00    +0.000 C 
ATOM     27  C   UNL     1       3.800  -5.759   5.125  0.00  0.00    +0.000 C 
ATOM     28  C   UNL     1       3.791  -4.553   4.183  0.00  0.00    +0.000 C 
ATOM     29  C   UNL     1       2.435  -4.465   3.481  0.00  0.00    +0.006 C 
ENDBRANCH  16  24
TORSDOF 2
