REMARK  Name = ZINC24702329
REMARK  11 active torsions:
REMARK  status: ('A' for Active; 'I' for Inactive)
REMARK    1  A    between atoms: C_1  and  C_2
REMARK    2  A    between atoms: C_2  and  N_3
REMARK    3  A    between atoms: N_3  and  C_4
REMARK    4  A    between atoms: C_10  and  C_12
REMARK    5  A    between atoms: C_12  and  N_13
REMARK    6  A    between atoms: C_16  and  C_20
REMARK    7  A    between atoms: C_16  and  C_21
REMARK    8  A    between atoms: C_24  and  C_27
REMARK    9  A    between atoms: C_27  and  C_28
REMARK   10  A    between atoms: C_27  and  C_29
REMARK   11  A    between atoms: C_27  and  C_30
REMARK                            x       y       z     vdW  Elec       q    Type
REMARK                         _______ _______ _______ _____ _____    ______ ____
ROOT
ATOM      1  N   UNL     1      -0.491   0.381   3.182  0.00  0.00    -0.215 N 
ATOM      2  C   UNL     1       0.462   1.180   2.662  0.00  0.00    +0.251 C 
ATOM      3  O   UNL     1       1.543   1.440   3.144  0.00  0.00    -0.272 OA
ATOM      4  C   UNL     1      -0.101   1.687   1.349  0.00  0.00    +0.135 C 
ATOM      5  N   UNL     1      -1.429   1.055   1.274  0.00  0.00    -0.281 N 
ATOM      6  C   UNL     1      -1.565   0.313   2.388  0.00  0.00    +0.310 C 
ATOM      7  O   UNL     1      -2.554  -0.346   2.644  0.00  0.00    -0.252 OA
ATOM      8  C   UNL     1       0.776   1.237   0.178  0.00  0.00    +0.047 C 
ATOM      9  H   UNL     1      -2.081   1.245   0.408  0.00  0.00    +0.152 HD
ENDROOT
BRANCH   4  10
ATOM     10  C   UNL     1      -0.225   3.189   1.369  0.00  0.00    -0.015 A 
ATOM     11  C   UNL     1       0.676   3.947   2.094  0.00  0.00    +0.006 A 
ATOM     12  C   UNL     1       0.565   5.325   2.109  0.00  0.00    +0.004 A 
ATOM     13  C   UNL     1      -0.453   5.944   1.408  0.00  0.00    -0.042 A 
ATOM     14  C   UNL     1      -1.356   5.185   0.687  0.00  0.00    +0.004 A 
ATOM     15  C   UNL     1      -1.242   3.808   0.668  0.00  0.00    +0.006 A 
BRANCH  13  16
ATOM     16  C   UNL     1      -0.578   7.445   1.429  0.00  0.00    -0.013 C 
ATOM     17  C   UNL     1      -1.937   7.836   2.013  0.00  0.00    +0.015 C 
ATOM     18  C   UNL     1       0.538   8.038   2.293  0.00  0.00    +0.015 C 
ATOM     19  C   UNL     1      -0.460   7.987   0.003  0.00  0.00    +0.015 C 
ENDBRANCH  13  16
ENDBRANCH   4  10
BRANCH   1  20
ATOM     20  C   UNL     1      -0.365  -0.327   4.458  0.00  0.00    +0.214 C 
BRANCH  20  22
ATOM     21  N   UNL     1      -0.874   0.098   6.842  0.00  0.00    -0.274 N 
ATOM     22  C   UNL     1      -0.889   0.545   5.570  0.00  0.00    +0.237 C 
ATOM     23  O   UNL     1      -1.325   1.649   5.321  0.00  0.00    -0.274 OA
BRANCH  21  24
ATOM     24  C   UNL     1      -1.262   0.940   7.880  0.00  0.00    +0.010 C 
ATOM     25  C   UNL     1      -2.500   1.348   7.908  0.00  0.00    -0.008 C 
ATOM     26  C   UNL     1      -3.059   2.259   8.961  0.00  0.00    +0.029 C 
ATOM     27  C   UNL     1      -2.128   2.297  10.175  0.00  0.00    +0.004 C 
ATOM     28  C   UNL     1      -0.699   2.554   9.684  0.00  0.00    +0.006 C 
ATOM     29  C   UNL     1      -0.229   1.329   8.897  0.00  0.00    +0.051 C 
ENDBRANCH  21  24
BRANCH  21  31
ATOM     30  C   UNL     1       1.071  -1.308   7.315  0.00  0.00    +0.025 C 
ATOM     31  C   UNL     1      -0.448  -1.273   7.131  0.00  0.00    +0.110 C 
ENDBRANCH  21  31
ENDBRANCH  20  22
ENDBRANCH   1  20
TORSDOF 6
