REMARK  Name = ZINC08914665
REMARK  17 active torsions:
REMARK  status: ('A' for Active; 'I' for Inactive)
REMARK    1  A    between atoms: C_1  and  C_2
REMARK    2  A    between atoms: C_2  and  N_70
REMARK    3  A    between atoms: C_3  and  C_4
REMARK    4  A    between atoms: C_3  and  N_70
REMARK    5  A    between atoms: C_5  and  C_6
REMARK    6  A    between atoms: C_5  and  N_70
REMARK    7  A    between atoms: C_6  and  N_7
REMARK    8  A    between atoms: C_8  and  C_27
REMARK    9  A    between atoms: C_11  and  C_12
REMARK   10  A    between atoms: C_11  and  O_22
REMARK   11  A    between atoms: C_15  and  O_18
REMARK   12  A    between atoms: O_18  and  C_19
REMARK   13  A    between atoms: C_19  and  C_20
REMARK   14  A    between atoms: C_19  and  C_21
REMARK   15  A    between atoms: C_30  and  C_33
REMARK   16  A    between atoms: C_33  and  O_35
REMARK   17  A    between atoms: O_35  and  C_36
REMARK                            x       y       z     vdW  Elec       q    Type
REMARK                         _______ _______ _______ _____ _____    ______ ____
ROOT
ATOM      1  N   UNL     1       0.883   0.905  -1.307  0.00  0.00    -0.285 N 
ATOM      2  C   UNL     1       0.679   2.287  -0.863  0.00  0.00    +0.144 C 
ATOM      3  C   UNL     1      -0.808   2.549  -0.933  0.00  0.00    +0.071 C 
ATOM      4  C   UNL     1      -1.460   3.722  -0.607  0.00  0.00    +0.133 C 
ATOM      5  C   UNL     1      -1.392   1.362  -1.401  0.00  0.00    +0.249 C 
ATOM      6  O   UNL     1      -2.580   1.179  -1.595  0.00  0.00    -0.282 OA
ATOM      7  C   UNL     1      -0.308   0.365  -1.616  0.00  0.00    +0.288 C 
ATOM      8  O   UNL     1      -0.476  -0.769  -2.016  0.00  0.00    -0.266 OA
ENDROOT
BRANCH   4   9
ATOM      9  C   UNL     1      -2.930   3.767  -0.592  0.00  0.00    +0.017 A 
ATOM     10  C   UNL     1      -3.612   4.736  -1.338  0.00  0.00    +0.015 A 
ATOM     11  C   UNL     1      -4.987   4.769  -1.325  0.00  0.00    +0.046 A 
ATOM     12  C   UNL     1      -5.700   3.851  -0.562  0.00  0.00    +0.121 A 
ATOM     13  C   UNL     1      -5.028   2.890   0.186  0.00  0.00    +0.046 A 
ATOM     14  C   UNL     1      -3.653   2.844   0.174  0.00  0.00    +0.015 A 
BRANCH  12  15
ATOM     15  O   UNL     1      -7.057   3.892  -0.547  0.00  0.00    -0.489 OA
BRANCH  15  16
ATOM     16  C   UNL     1      -7.724   2.987   0.335  0.00  0.00    +0.167 C 
ATOM     17  C   UNL     1      -9.092   3.558   0.712  0.00  0.00    +0.051 C 
ATOM     18  C   UNL     1      -7.908   1.638  -0.362  0.00  0.00    +0.051 C 
ENDBRANCH  15  16
ENDBRANCH  12  15
ENDBRANCH   4   9
BRANCH   2  19
ATOM     19  C   UNL     1       1.414   3.236  -1.775  0.00  0.00    -0.022 A 
ATOM     20  C   UNL     1       1.430   3.006  -3.139  0.00  0.00    +0.006 A 
ATOM     21  C   UNL     1       2.098   3.873  -3.979  0.00  0.00    +0.015 A 
ATOM     22  C   UNL     1       2.767   4.978  -3.449  0.00  0.00    +0.059 A 
ATOM     23  C   UNL     1       2.751   5.200  -2.071  0.00  0.00    +0.015 A 
ATOM     24  C   UNL     1       2.075   4.328  -1.242  0.00  0.00    +0.006 A 
BRANCH  22  25
ATOM     25  C   UNL     1       3.488   5.908  -4.342  0.00  0.00    +0.339 C 
ATOM     26  O   UNL     1       4.069   6.869  -3.878  0.00  0.00    -0.245 OA
BRANCH  25  27
ATOM     27  O   UNL     1       3.501   5.691  -5.672  0.00  0.00    -0.464 OA
ATOM     28  C   UNL     1       4.229   6.645  -6.488  0.00  0.00    +0.280 C 
ENDBRANCH  25  27
ENDBRANCH  22  25
ENDBRANCH   2  19
BRANCH   4  29
ATOM     29  O   UNL     1      -0.748   4.828  -0.303  0.00  0.00    -0.506 OA
ATOM     30  H   UNL     1      -1.373   5.580  -0.094  0.00  0.00    +0.292 HD
ENDBRANCH   4  29
BRANCH   1  31
ATOM     31  C   UNL     1       2.176   0.223  -1.399  0.00  0.00    +0.090 C 
BRANCH  31  32
ATOM     32  C   UNL     1       2.771   0.443  -2.791  0.00  0.00    -0.060 C 
BRANCH  32  33
ATOM     33  N   UNL     1       4.014  -0.348  -2.906  0.00  0.00    +0.380 N 
ATOM     34  H   UNL     1       4.550  -0.256  -2.034  0.00  0.00    -0.082 HD
BRANCH  33  36
ATOM     35  C   UNL     1       4.973  -2.596  -3.011  0.00  0.00    -0.017 C 
ATOM     36  C   UNL     1       3.688  -1.773  -3.120  0.00  0.00    -0.082 C 
ENDBRANCH  33  36
BRANCH  33  37
ATOM     37  C   UNL     1       4.833   0.157  -4.028  0.00  0.00    -0.082 C 
ATOM     38  C   UNL     1       5.527   1.447  -3.587  0.00  0.00    -0.017 C 
ENDBRANCH  33  37
ENDBRANCH  32  33
ENDBRANCH  31  32
ENDBRANCH   1  31
TORSDOF 12
